MODEL 1
REMARK VINA RESULT:     -10.3      0.000      0.000
REMARK  8 active torsions:
REMARK  status: ('A' for Active; 'I' for Inactive)
REMARK    1  A    between atoms: C_2  and  N_3 
REMARK    2  A    between atoms: C_2  and  C_23 
REMARK       I    between atoms: N_3  and  C_4 
REMARK    3  A    between atoms: N_3  and  C_16 
REMARK    4  A    between atoms: C_4  and  C_5 
REMARK    5  A    between atoms: C_5  and  N_6 
REMARK    6  A    between atoms: C_16  and  C_17 
REMARK       I    between atoms: C_23  and  N_24 
REMARK    7  A    between atoms: N_24  and  C_25 
REMARK    8  A    between atoms: C_28  and  O_29 
ROOT
HETATM    1  N   UNL     1       6.854  25.769  53.686  1.00  0.00    -0.333 N 
HETATM    2  C   UNL     1       5.611  25.901  53.064  1.00  0.00     0.240 C 
HETATM    3  O   UNL     1       4.660  26.428  53.651  1.00  0.00    -0.271 OA
ENDROOT
BRANCH   1   4
HETATM    4  C   UNL     1       6.877  25.958  55.164  1.00  0.00     0.176 C 
HETATM    5  C   UNL     1       5.637  25.366  55.840  1.00  0.00     0.042 C 
BRANCH   4   6
HETATM    6  C   UNL     1       7.153  27.415  55.625  1.00  0.00     0.244 C 
HETATM    7  N   UNL     1       8.140  27.490  56.597  1.00  0.00    -0.325 N 
HETATM    8  H   UNL     1       8.503  26.605  56.925  1.00  0.00     0.169 HD
HETATM    9  O   UNL     1       6.431  28.344  55.270  1.00  0.00    -0.271 OA
BRANCH   7  10
HETATM   10  C   UNL     1       8.667  28.655  57.187  1.00  0.00     0.035 A 
HETATM   11  C   UNL     1       7.962  29.215  58.256  1.00  0.00     0.032 A 
HETATM   12  C   UNL     1       8.450  30.351  58.910  1.00  0.00     0.039 A 
HETATM   13  C   UNL     1       9.656  30.934  58.519  1.00  0.00     0.068 A 
HETATM   14  C   UNL     1      10.357  30.385  57.447  1.00  0.00     0.039 A 
HETATM   15  C   UNL     1       9.863  29.251  56.786  1.00  0.00     0.032 A 
BRANCH  13  16
HETATM   16  O   UNL     1      10.036  32.026  59.250  1.00  0.00    -0.356 OA
HETATM   17  C   UNL     1       9.242  32.333  60.390  1.00  0.00     0.210 C 
ENDBRANCH  13  16
ENDBRANCH   7  10
ENDBRANCH   4   6
ENDBRANCH   1   4
BRANCH   1  18
HETATM   18  C   UNL     1       7.995  25.057  53.089  1.00  0.00     0.165 C 
BRANCH  18  19
HETATM   19  C   UNL     1       8.112  23.629  53.569  1.00  0.00    -0.040 A 
HETATM   20  C   UNL     1       8.660  23.344  54.829  1.00  0.00     0.009 A 
HETATM   21  C   UNL     1       8.808  22.025  55.257  1.00  0.00     0.001 A 
HETATM   22  C   UNL     1       8.402  20.976  54.436  1.00  0.00     0.000 A 
HETATM   23  C   UNL     1       7.840  21.245  53.190  1.00  0.00     0.001 A 
HETATM   24  C   UNL     1       7.692  22.564  52.758  1.00  0.00     0.009 A 
ENDBRANCH  18  19
ENDBRANCH   1  18
BRANCH   2  25
HETATM   25  C   UNL     1       5.384  25.365  51.672  1.00  0.00     0.250 C 
BRANCH  25  26
HETATM   26  N   UNL     1       5.141  26.378  50.671  1.00  0.00    -0.263 N 
HETATM   27  N   UNL     1       5.712  27.589  50.842  1.00  0.00     0.006 NA
HETATM   28  N   UNL     1       5.372  28.345  49.809  1.00  0.00    -0.158 NA
HETATM   29  C   UNL     1       4.584  27.598  48.980  1.00  0.00     0.102 A 
HETATM   30  C   UNL     1       4.419  26.320  49.509  1.00  0.00     0.079 A 
HETATM   31  C   UNL     1       3.967  27.936  47.767  1.00  0.00     0.035 A 
HETATM   32  C   UNL     1       3.658  25.334  48.871  1.00  0.00     0.033 A 
HETATM   33  C   UNL     1       3.039  25.693  47.666  1.00  0.00     0.002 A 
HETATM   34  C   UNL     1       3.188  26.970  47.122  1.00  0.00     0.002 A 
ENDBRANCH  25  26
ENDBRANCH   2  25
TORSDOF 8
ENDMDL
MODEL 2
REMARK VINA RESULT:     -10.1      1.919      2.475
REMARK  8 active torsions:
REMARK  status: ('A' for Active; 'I' for Inactive)
REMARK    1  A    between atoms: C_2  and  N_3 
REMARK    2  A    between atoms: C_2  and  C_23 
REMARK       I    between atoms: N_3  and  C_4 
REMARK    3  A    between atoms: N_3  and  C_16 
REMARK    4  A    between atoms: C_4  and  C_5 
REMARK    5  A    between atoms: C_5  and  N_6 
REMARK    6  A    between atoms: C_16  and  C_17 
REMARK       I    between atoms: C_23  and  N_24 
REMARK    7  A    between atoms: N_24  and  C_25 
REMARK    8  A    between atoms: C_28  and  O_29 
ROOT
HETATM    1  N   UNL     1       7.439  25.019  55.472  1.00  0.00    -0.333 N 
HETATM    2  C   UNL     1       6.793  25.954  54.660  1.00  0.00     0.240 C 
HETATM    3  O   UNL     1       7.292  27.064  54.450  1.00  0.00    -0.271 OA
ENDROOT
BRANCH   1   4
HETATM    4  C   UNL     1       8.540  25.539  56.331  1.00  0.00     0.176 C 
HETATM    5  C   UNL     1       9.317  24.411  57.016  1.00  0.00     0.042 C 
BRANCH   4   6
HETATM    6  C   UNL     1       8.110  26.644  57.333  1.00  0.00     0.244 C 
HETATM    7  N   UNL     1       8.476  27.915  56.917  1.00  0.00    -0.325 N 
HETATM    8  H   UNL     1       9.021  27.959  56.065  1.00  0.00     0.169 HD
HETATM    9  O   UNL     1       7.658  26.360  58.441  1.00  0.00    -0.271 OA
BRANCH   7  10
HETATM   10  C   UNL     1       8.194  29.136  57.558  1.00  0.00     0.035 A 
HETATM   11  C   UNL     1       6.881  29.611  57.497  1.00  0.00     0.032 A 
HETATM   12  C   UNL     1       6.526  30.800  58.142  1.00  0.00     0.039 A 
HETATM   13  C   UNL     1       7.469  31.522  58.874  1.00  0.00     0.068 A 
HETATM   14  C   UNL     1       8.782  31.057  58.929  1.00  0.00     0.039 A 
HETATM   15  C   UNL     1       9.140  29.871  58.274  1.00  0.00     0.032 A 
BRANCH  13  16
HETATM   16  O   UNL     1       6.994  32.654  59.476  1.00  0.00    -0.356 OA
HETATM   17  C   UNL     1       6.229  32.467  60.662  1.00  0.00     0.210 C 
ENDBRANCH  13  16
ENDBRANCH   7  10
ENDBRANCH   4   6
ENDBRANCH   1   4
BRANCH   1  18
HETATM   18  C   UNL     1       6.852  23.724  55.852  1.00  0.00     0.165 C 
BRANCH  18  19
HETATM   19  C   UNL     1       7.392  22.572  55.038  1.00  0.00    -0.040 A 
HETATM   20  C   UNL     1       7.730  21.359  55.657  1.00  0.00     0.009 A 
HETATM   21  C   UNL     1       8.269  20.309  54.914  1.00  0.00     0.001 A 
HETATM   22  C   UNL     1       8.465  20.454  53.543  1.00  0.00     0.000 A 
HETATM   23  C   UNL     1       8.117  21.647  52.912  1.00  0.00     0.001 A 
HETATM   24  C   UNL     1       7.581  22.700  53.654  1.00  0.00     0.009 A 
ENDBRANCH  18  19
ENDBRANCH   1  18
BRANCH   2  25
HETATM   25  C   UNL     1       5.446  25.648  54.052  1.00  0.00     0.250 C 
BRANCH  25  26
HETATM   26  N   UNL     1       4.883  26.722  53.268  1.00  0.00    -0.263 N 
HETATM   27  N   UNL     1       4.357  27.778  53.924  1.00  0.00     0.006 NA
HETATM   28  N   UNL     1       3.919  28.639  53.017  1.00  0.00    -0.158 NA
HETATM   29  C   UNL     1       4.179  28.119  51.780  1.00  0.00     0.102 A 
HETATM   30  C   UNL     1       4.805  26.881  51.909  1.00  0.00     0.079 A 
HETATM   31  C   UNL     1       3.908  28.634  50.505  1.00  0.00     0.035 A 
HETATM   32  C   UNL     1       5.191  26.115  50.805  1.00  0.00     0.033 A 
HETATM   33  C   UNL     1       4.902  26.639  49.538  1.00  0.00     0.002 A 
HETATM   34  C   UNL     1       4.271  27.876  49.387  1.00  0.00     0.002 A 
ENDBRANCH  25  26
ENDBRANCH   2  25
TORSDOF 8
ENDMDL
MODEL 3
REMARK VINA RESULT:     -10.1      1.985      2.797
REMARK  8 active torsions:
REMARK  status: ('A' for Active; 'I' for Inactive)
REMARK    1  A    between atoms: C_2  and  N_3 
REMARK    2  A    between atoms: C_2  and  C_23 
REMARK       I    between atoms: N_3  and  C_4 
REMARK    3  A    between atoms: N_3  and  C_16 
REMARK    4  A    between atoms: C_4  and  C_5 
REMARK    5  A    between atoms: C_5  and  N_6 
REMARK    6  A    between atoms: C_16  and  C_17 
REMARK       I    between atoms: C_23  and  N_24 
REMARK    7  A    between atoms: N_24  and  C_25 
REMARK    8  A    between atoms: C_28  and  O_29 
ROOT
HETATM    1  N   UNL     1       7.422  24.990  55.491  1.00  0.00    -0.333 N 
HETATM    2  C   UNL     1       6.770  25.915  54.676  1.00  0.00     0.240 C 
HETATM    3  O   UNL     1       7.246  27.039  54.482  1.00  0.00    -0.271 OA
ENDROOT
BRANCH   1   4
HETATM    4  C   UNL     1       8.496  25.528  56.375  1.00  0.00     0.176 C 
HETATM    5  C   UNL     1       9.271  24.414  57.084  1.00  0.00     0.042 C 
BRANCH   4   6
HETATM    6  C   UNL     1       8.028  26.632  57.360  1.00  0.00     0.244 C 
HETATM    7  N   UNL     1       8.390  27.906  56.948  1.00  0.00    -0.325 N 
HETATM    8  H   UNL     1       8.956  27.953  56.110  1.00  0.00     0.169 HD
HETATM    9  O   UNL     1       7.550  26.348  58.457  1.00  0.00    -0.271 OA
BRANCH   7  10
HETATM   10  C   UNL     1       8.077  29.127  57.576  1.00  0.00     0.035 A 
HETATM   11  C   UNL     1       6.772  29.607  57.442  1.00  0.00     0.032 A 
HETATM   12  C   UNL     1       6.385  30.796  58.070  1.00  0.00     0.039 A 
HETATM   13  C   UNL     1       7.290  31.512  58.856  1.00  0.00     0.068 A 
HETATM   14  C   UNL     1       8.595  31.041  58.984  1.00  0.00     0.039 A 
HETATM   15  C   UNL     1       8.984  29.855  58.346  1.00  0.00     0.032 A 
BRANCH  13  16
HETATM   16  O   UNL     1       6.786  32.644  59.434  1.00  0.00    -0.356 OA
HETATM   17  C   UNL     1       6.707  32.649  60.855  1.00  0.00     0.210 C 
ENDBRANCH  13  16
ENDBRANCH   7  10
ENDBRANCH   4   6
ENDBRANCH   1   4
BRANCH   1  18
HETATM   18  C   UNL     1       6.859  23.679  55.852  1.00  0.00     0.165 C 
BRANCH  18  19
HETATM   19  C   UNL     1       7.432  22.548  55.031  1.00  0.00    -0.040 A 
HETATM   20  C   UNL     1       7.626  22.698  53.649  1.00  0.00     0.009 A 
HETATM   21  C   UNL     1       8.114  21.641  52.881  1.00  0.00     0.001 A 
HETATM   22  C   UNL     1       8.425  20.426  53.486  1.00  0.00     0.000 A 
HETATM   23  C   UNL     1       8.254  20.268  54.860  1.00  0.00     0.001 A 
HETATM   24  C   UNL     1       7.763  21.324  55.630  1.00  0.00     0.009 A 
ENDBRANCH  18  19
ENDBRANCH   1  18
BRANCH   2  25
HETATM   25  C   UNL     1       5.441  25.583  54.040  1.00  0.00     0.250 C 
BRANCH  25  26
HETATM   26  N   UNL     1       5.221  26.197  52.752  1.00  0.00    -0.263 N 
HETATM   27  N   UNL     1       5.772  25.611  51.668  1.00  0.00     0.006 NA
HETATM   28  N   UNL     1       5.431  26.326  50.606  1.00  0.00    -0.158 NA
HETATM   29  C   UNL     1       4.655  27.368  51.029  1.00  0.00     0.102 A 
HETATM   30  C   UNL     1       4.498  27.310  52.412  1.00  0.00     0.079 A 
HETATM   31  C   UNL     1       4.053  28.404  50.302  1.00  0.00     0.035 A 
HETATM   32  C   UNL     1       3.748  28.251  53.125  1.00  0.00     0.033 A 
HETATM   33  C   UNL     1       3.164  29.287  52.384  1.00  0.00     0.002 A 
HETATM   34  C   UNL     1       3.312  29.366  50.997  1.00  0.00     0.002 A 
ENDBRANCH  25  26
ENDBRANCH   2  25
TORSDOF 8
ENDMDL
MODEL 4
REMARK VINA RESULT:     -10.1      1.625      5.890
REMARK  8 active torsions:
REMARK  status: ('A' for Active; 'I' for Inactive)
REMARK    1  A    between atoms: C_2  and  N_3 
REMARK    2  A    between atoms: C_2  and  C_23 
REMARK       I    between atoms: N_3  and  C_4 
REMARK    3  A    between atoms: N_3  and  C_16 
REMARK    4  A    between atoms: C_4  and  C_5 
REMARK    5  A    between atoms: C_5  and  N_6 
REMARK    6  A    between atoms: C_16  and  C_17 
REMARK       I    between atoms: C_23  and  N_24 
REMARK    7  A    between atoms: N_24  and  C_25 
REMARK    8  A    between atoms: C_28  and  O_29 
ROOT
HETATM    1  N   UNL     1       5.099  26.855  52.556  1.00  0.00    -0.333 N 
HETATM    2  C   UNL     1       5.315  25.573  53.065  1.00  0.00     0.240 C 
HETATM    3  O   UNL     1       4.624  25.133  53.990  1.00  0.00    -0.271 OA
ENDROOT
BRANCH   1   4
HETATM    4  C   UNL     1       4.267  27.766  53.391  1.00  0.00     0.176 C 
HETATM    5  C   UNL     1       3.288  28.587  52.547  1.00  0.00     0.042 C 
BRANCH   4   6
HETATM    6  C   UNL     1       5.072  28.652  54.379  1.00  0.00     0.244 C 
HETATM    7  N   UNL     1       6.076  27.952  55.030  1.00  0.00    -0.325 N 
HETATM    8  H   UNL     1       6.118  26.960  54.834  1.00  0.00     0.169 HD
HETATM    9  O   UNL     1       4.709  29.795  54.652  1.00  0.00    -0.271 OA
BRANCH   7  10
HETATM   10  C   UNL     1       7.019  28.463  55.942  1.00  0.00     0.035 A 
HETATM   11  C   UNL     1       8.270  28.831  55.440  1.00  0.00     0.032 A 
HETATM   12  C   UNL     1       9.240  29.379  56.287  1.00  0.00     0.039 A 
HETATM   13  C   UNL     1       8.970  29.584  57.640  1.00  0.00     0.068 A 
HETATM   14  C   UNL     1       7.727  29.209  58.146  1.00  0.00     0.039 A 
HETATM   15  C   UNL     1       6.758  28.651  57.299  1.00  0.00     0.032 A 
BRANCH  13  16
HETATM   16  O   UNL     1       9.990  30.146  58.357  1.00  0.00    -0.356 OA
HETATM   17  C   UNL     1       9.890  31.542  58.614  1.00  0.00     0.210 C 
ENDBRANCH  13  16
ENDBRANCH   7  10
ENDBRANCH   4   6
ENDBRANCH   1   4
BRANCH   1  18
HETATM   18  C   UNL     1       5.952  27.482  51.534  1.00  0.00     0.165 C 
BRANCH  18  19
HETATM   19  C   UNL     1       5.341  27.442  50.153  1.00  0.00    -0.040 A 
HETATM   20  C   UNL     1       5.460  28.542  49.290  1.00  0.00     0.009 A 
HETATM   21  C   UNL     1       4.861  28.525  48.031  1.00  0.00     0.001 A 
HETATM   22  C   UNL     1       4.145  27.405  47.615  1.00  0.00     0.000 A 
HETATM   23  C   UNL     1       4.034  26.298  48.455  1.00  0.00     0.001 A 
HETATM   24  C   UNL     1       4.631  26.314  49.717  1.00  0.00     0.009 A 
ENDBRANCH  18  19
ENDBRANCH   1  18
BRANCH   2  25
HETATM   25  C   UNL     1       6.427  24.706  52.528  1.00  0.00     0.250 C 
BRANCH  25  26
HETATM   26  N   UNL     1       7.274  24.119  53.540  1.00  0.00    -0.263 N 
HETATM   27  N   UNL     1       7.703  24.911  54.545  1.00  0.00     0.006 NA
HETATM   28  N   UNL     1       8.443  24.169  55.356  1.00  0.00    -0.158 NA
HETATM   29  C   UNL     1       8.473  22.898  54.856  1.00  0.00     0.102 A 
HETATM   30  C   UNL     1       7.724  22.833  53.683  1.00  0.00     0.079 A 
HETATM   31  C   UNL     1       9.118  21.750  55.336  1.00  0.00     0.035 A 
HETATM   32  C   UNL     1       7.574  21.651  52.950  1.00  0.00     0.033 A 
HETATM   33  C   UNL     1       8.236  20.516  53.437  1.00  0.00     0.002 A 
HETATM   34  C   UNL     1       8.995  20.561  54.608  1.00  0.00     0.002 A 
ENDBRANCH  25  26
ENDBRANCH   2  25
TORSDOF 8
ENDMDL
MODEL 5
REMARK VINA RESULT:      -9.9      1.936      8.271
REMARK  8 active torsions:
REMARK  status: ('A' for Active; 'I' for Inactive)
REMARK    1  A    between atoms: C_2  and  N_3 
REMARK    2  A    between atoms: C_2  and  C_23 
REMARK       I    between atoms: N_3  and  C_4 
REMARK    3  A    between atoms: N_3  and  C_16 
REMARK    4  A    between atoms: C_4  and  C_5 
REMARK    5  A    between atoms: C_5  and  N_6 
REMARK    6  A    between atoms: C_16  and  C_17 
REMARK       I    between atoms: C_23  and  N_24 
REMARK    7  A    between atoms: N_24  and  C_25 
REMARK    8  A    between atoms: C_28  and  O_29 
ROOT
HETATM    1  N   UNL     1       6.376  26.069  54.258  1.00  0.00    -0.333 N 
HETATM    2  C   UNL     1       6.445  26.849  55.414  1.00  0.00     0.240 C 
HETATM    3  O   UNL     1       5.436  27.393  55.874  1.00  0.00    -0.271 OA
ENDROOT
BRANCH   1   4
HETATM    4  C   UNL     1       5.143  26.217  53.434  1.00  0.00     0.176 C 
HETATM    5  C   UNL     1       4.609  24.866  52.950  1.00  0.00     0.042 C 
BRANCH   4   6
HETATM    6  C   UNL     1       5.257  27.247  52.279  1.00  0.00     0.244 C 
HETATM    7  N   UNL     1       4.546  26.868  51.150  1.00  0.00    -0.325 N 
HETATM    8  H   UNL     1       4.104  25.959  51.194  1.00  0.00     0.169 HD
HETATM    9  O   UNL     1       6.045  28.190  52.340  1.00  0.00    -0.271 OA
BRANCH   7  10
HETATM   10  C   UNL     1       4.394  27.594  49.954  1.00  0.00     0.035 A 
HETATM   11  C   UNL     1       3.616  28.754  49.996  1.00  0.00     0.032 A 
HETATM   12  C   UNL     1       3.454  29.541  48.850  1.00  0.00     0.039 A 
HETATM   13  C   UNL     1       4.080  29.192  47.653  1.00  0.00     0.068 A 
HETATM   14  C   UNL     1       4.848  28.031  47.604  1.00  0.00     0.039 A 
HETATM   15  C   UNL     1       5.003  27.237  48.750  1.00  0.00     0.032 A 
BRANCH  13  16
HETATM   16  O   UNL     1       3.862  30.053  46.613  1.00  0.00    -0.356 OA
HETATM   17  C   UNL     1       2.517  30.469  46.406  1.00  0.00     0.210 C 
ENDBRANCH  13  16
ENDBRANCH   7  10
ENDBRANCH   4   6
ENDBRANCH   1   4
BRANCH   1  18
HETATM   18  C   UNL     1       7.553  25.485  53.596  1.00  0.00     0.165 C 
BRANCH  18  19
HETATM   19  C   UNL     1       7.702  24.005  53.862  1.00  0.00    -0.040 A 
HETATM   20  C   UNL     1       7.925  23.110  52.805  1.00  0.00     0.009 A 
HETATM   21  C   UNL     1       8.020  21.739  53.044  1.00  0.00     0.001 A 
HETATM   22  C   UNL     1       7.907  21.248  54.342  1.00  0.00     0.000 A 
HETATM   23  C   UNL     1       7.704  22.127  55.404  1.00  0.00     0.001 A 
HETATM   24  C   UNL     1       7.605  23.499  55.167  1.00  0.00     0.009 A 
ENDBRANCH  18  19
ENDBRANCH   1  18
BRANCH   2  25
HETATM   25  C   UNL     1       7.764  27.083  56.110  1.00  0.00     0.250 C 
BRANCH  25  26
HETATM   26  N   UNL     1       7.813  28.279  56.917  1.00  0.00    -0.263 N 
HETATM   27  N   UNL     1       6.688  28.658  57.559  1.00  0.00     0.006 NA
HETATM   28  N   UNL     1       6.965  29.758  58.244  1.00  0.00    -0.158 NA
HETATM   29  C   UNL     1       8.279  30.068  58.032  1.00  0.00     0.102 A 
HETATM   30  C   UNL     1       8.855  29.128  57.181  1.00  0.00     0.079 A 
HETATM   31  C   UNL     1       9.050  31.131  58.522  1.00  0.00     0.035 A 
HETATM   32  C   UNL     1      10.196  29.191  56.788  1.00  0.00     0.033 A 
HETATM   33  C   UNL     1      10.949  30.267  57.276  1.00  0.00     0.002 A 
HETATM   34  C   UNL     1      10.389  31.222  58.128  1.00  0.00     0.002 A 
ENDBRANCH  25  26
ENDBRANCH   2  25
TORSDOF 8
ENDMDL
MODEL 6
REMARK VINA RESULT:      -9.8      1.983      6.027
REMARK  8 active torsions:
REMARK  status: ('A' for Active; 'I' for Inactive)
REMARK    1  A    between atoms: C_2  and  N_3 
REMARK    2  A    between atoms: C_2  and  C_23 
REMARK       I    between atoms: N_3  and  C_4 
REMARK    3  A    between atoms: N_3  and  C_16 
REMARK    4  A    between atoms: C_4  and  C_5 
REMARK    5  A    between atoms: C_5  and  N_6 
REMARK    6  A    between atoms: C_16  and  C_17 
REMARK       I    between atoms: C_23  and  N_24 
REMARK    7  A    between atoms: N_24  and  C_25 
REMARK    8  A    between atoms: C_28  and  O_29 
ROOT
HETATM    1  N   UNL     1       5.830  27.304  54.332  1.00  0.00    -0.333 N 
HETATM    2  C   UNL     1       6.212  26.103  54.932  1.00  0.00     0.240 C 
HETATM    3  O   UNL     1       5.596  25.654  55.904  1.00  0.00    -0.271 OA
ENDROOT
BRANCH   1   4
HETATM    4  C   UNL     1       4.903  28.169  55.117  1.00  0.00     0.176 C 
HETATM    5  C   UNL     1       3.664  28.565  54.310  1.00  0.00     0.042 C 
BRANCH   4   6
HETATM    6  C   UNL     1       5.577  29.394  55.790  1.00  0.00     0.244 C 
HETATM    7  N   UNL     1       6.242  29.062  56.962  1.00  0.00    -0.325 N 
HETATM    8  H   UNL     1       6.154  28.099  57.260  1.00  0.00     0.169 HD
HETATM    9  O   UNL     1       5.368  30.538  55.390  1.00  0.00    -0.271 OA
BRANCH   7  10
HETATM   10  C   UNL     1       6.999  29.919  57.784  1.00  0.00     0.035 A 
HETATM   11  C   UNL     1       8.367  29.660  57.902  1.00  0.00     0.032 A 
HETATM   12  C   UNL     1       9.182  30.493  58.675  1.00  0.00     0.039 A 
HETATM   13  C   UNL     1       8.649  31.606  59.326  1.00  0.00     0.068 A 
HETATM   14  C   UNL     1       7.283  31.861  59.220  1.00  0.00     0.039 A 
HETATM   15  C   UNL     1       6.464  31.021  58.452  1.00  0.00     0.032 A 
BRANCH  13  16
HETATM   16  O   UNL     1       9.551  32.353  60.031  1.00  0.00    -0.356 OA
HETATM   17  C   UNL     1       9.772  31.969  61.383  1.00  0.00     0.210 C 
ENDBRANCH  13  16
ENDBRANCH   7  10
ENDBRANCH   4   6
ENDBRANCH   1   4
BRANCH   1  18
HETATM   18  C   UNL     1       6.583  27.950  53.245  1.00  0.00     0.165 C 
BRANCH  18  19
HETATM   19  C   UNL     1       5.891  27.843  51.907  1.00  0.00    -0.040 A 
HETATM   20  C   UNL     1       5.537  26.589  51.386  1.00  0.00     0.009 A 
HETATM   21  C   UNL     1       4.936  26.485  50.132  1.00  0.00     0.001 A 
HETATM   22  C   UNL     1       4.672  27.632  49.388  1.00  0.00     0.000 A 
HETATM   23  C   UNL     1       5.001  28.886  49.900  1.00  0.00     0.001 A 
HETATM   24  C   UNL     1       5.605  28.992  51.155  1.00  0.00     0.009 A 
ENDBRANCH  18  19
ENDBRANCH   1  18
BRANCH   2  25
HETATM   25  C   UNL     1       7.416  25.340  54.434  1.00  0.00     0.250 C 
BRANCH  25  26
HETATM   26  N   UNL     1       7.853  24.274  55.304  1.00  0.00    -0.263 N 
HETATM   27  N   UNL     1       8.230  24.594  56.560  1.00  0.00     0.006 NA
HETATM   28  N   UNL     1       8.572  23.472  57.176  1.00  0.00    -0.158 NA
HETATM   29  C   UNL     1       8.403  22.439  56.298  1.00  0.00     0.102 A 
HETATM   30  C   UNL     1       7.936  22.925  55.080  1.00  0.00     0.079 A 
HETATM   31  C   UNL     1       8.631  21.065  56.461  1.00  0.00     0.035 A 
HETATM   32  C   UNL     1       7.670  22.090  53.989  1.00  0.00     0.033 A 
HETATM   33  C   UNL     1       7.915  20.722  54.164  1.00  0.00     0.002 A 
HETATM   34  C   UNL     1       8.387  20.215  55.377  1.00  0.00     0.002 A 
ENDBRANCH  25  26
ENDBRANCH   2  25
TORSDOF 8
ENDMDL
MODEL 7
REMARK VINA RESULT:      -9.7      3.030      6.657
REMARK  8 active torsions:
REMARK  status: ('A' for Active; 'I' for Inactive)
REMARK    1  A    between atoms: C_2  and  N_3 
REMARK    2  A    between atoms: C_2  and  C_23 
REMARK       I    between atoms: N_3  and  C_4 
REMARK    3  A    between atoms: N_3  and  C_16 
REMARK    4  A    between atoms: C_4  and  C_5 
REMARK    5  A    between atoms: C_5  and  N_6 
REMARK    6  A    between atoms: C_16  and  C_17 
REMARK       I    between atoms: C_23  and  N_24 
REMARK    7  A    between atoms: N_24  and  C_25 
REMARK    8  A    between atoms: C_28  and  O_29 
ROOT
HETATM    1  N   UNL     1       6.161  24.931  54.811  1.00  0.00    -0.333 N 
HETATM    2  C   UNL     1       5.728  25.401  56.052  1.00  0.00     0.240 C 
HETATM    3  O   UNL     1       4.556  25.748  56.226  1.00  0.00    -0.271 OA
ENDROOT
BRANCH   1   4
HETATM    4  C   UNL     1       5.263  25.201  53.652  1.00  0.00     0.176 C 
HETATM    5  C   UNL     1       5.514  24.234  52.492  1.00  0.00     0.042 C 
BRANCH   4   6
HETATM    6  C   UNL     1       5.238  26.680  53.185  1.00  0.00     0.244 C 
HETATM    7  N   UNL     1       4.005  27.283  53.381  1.00  0.00    -0.325 N 
HETATM    8  H   UNL     1       3.273  26.682  53.736  1.00  0.00     0.169 HD
HETATM    9  O   UNL     1       6.176  27.166  52.554  1.00  0.00    -0.271 OA
BRANCH   7  10
HETATM   10  C   UNL     1       3.660  28.623  53.120  1.00  0.00     0.035 A 
HETATM   11  C   UNL     1       3.815  29.545  54.158  1.00  0.00     0.032 A 
HETATM   12  C   UNL     1       3.524  30.898  53.955  1.00  0.00     0.039 A 
HETATM   13  C   UNL     1       3.092  31.353  52.709  1.00  0.00     0.068 A 
HETATM   14  C   UNL     1       2.927  30.436  51.673  1.00  0.00     0.039 A 
HETATM   15  C   UNL     1       3.209  29.078  51.880  1.00  0.00     0.032 A 
BRANCH  13  16
HETATM   16  O   UNL     1       2.862  32.699  52.631  1.00  0.00    -0.356 OA
HETATM   17  C   UNL     1       3.387  33.494  53.688  1.00  0.00     0.210 C 
ENDBRANCH  13  16
ENDBRANCH   7  10
ENDBRANCH   4   6
ENDBRANCH   1   4
BRANCH   1  18
HETATM   18  C   UNL     1       7.563  24.606  54.504  1.00  0.00     0.165 C 
BRANCH  18  19
HETATM   19  C   UNL     1       7.833  23.120  54.498  1.00  0.00    -0.040 A 
HETATM   20  C   UNL     1       8.345  22.494  53.351  1.00  0.00     0.009 A 
HETATM   21  C   UNL     1       8.556  21.116  53.328  1.00  0.00     0.001 A 
HETATM   22  C   UNL     1       8.268  20.347  54.453  1.00  0.00     0.000 A 
HETATM   23  C   UNL     1       7.775  20.958  55.605  1.00  0.00     0.001 A 
HETATM   24  C   UNL     1       7.561  22.337  55.630  1.00  0.00     0.009 A 
ENDBRANCH  18  19
ENDBRANCH   1  18
BRANCH   2  25
HETATM   25  C   UNL     1       6.693  25.537  57.205  1.00  0.00     0.250 C 
BRANCH  25  26
HETATM   26  N   UNL     1       7.286  26.847  57.340  1.00  0.00    -0.263 N 
HETATM   27  N   UNL     1       8.633  26.932  57.377  1.00  0.00     0.006 NA
HETATM   28  N   UNL     1       8.953  28.213  57.487  1.00  0.00    -0.158 NA
HETATM   29  C   UNL     1       7.795  28.938  57.514  1.00  0.00     0.102 A 
HETATM   30  C   UNL     1       6.699  28.082  57.418  1.00  0.00     0.079 A 
HETATM   31  C   UNL     1       7.593  30.320  57.625  1.00  0.00     0.035 A 
HETATM   32  C   UNL     1       5.380  28.547  57.418  1.00  0.00     0.033 A 
HETATM   33  C   UNL     1       5.195  29.930  57.542  1.00  0.00     0.002 A 
HETATM   34  C   UNL     1       6.280  30.804  57.644  1.00  0.00     0.002 A 
ENDBRANCH  25  26
ENDBRANCH   2  25
TORSDOF 8
ENDMDL
MODEL 8
REMARK VINA RESULT:      -9.7      5.162     10.682
REMARK  8 active torsions:
REMARK  status: ('A' for Active; 'I' for Inactive)
REMARK    1  A    between atoms: C_2  and  N_3 
REMARK    2  A    between atoms: C_2  and  C_23 
REMARK       I    between atoms: N_3  and  C_4 
REMARK    3  A    between atoms: N_3  and  C_16 
REMARK    4  A    between atoms: C_4  and  C_5 
REMARK    5  A    between atoms: C_5  and  N_6 
REMARK    6  A    between atoms: C_16  and  C_17 
REMARK       I    between atoms: C_23  and  N_24 
REMARK    7  A    between atoms: N_24  and  C_25 
REMARK    8  A    between atoms: C_28  and  O_29 
ROOT
HETATM    1  N   UNL     1       5.492  32.389  60.987  1.00  0.00    -0.333 N 
HETATM    2  C   UNL     1       6.627  32.456  60.177  1.00  0.00     0.240 C 
HETATM    3  O   UNL     1       6.588  33.007  59.072  1.00  0.00    -0.271 OA
ENDROOT
BRANCH   1   4
HETATM    4  C   UNL     1       4.190  32.684  60.325  1.00  0.00     0.176 C 
HETATM    5  C   UNL     1       3.108  33.080  61.333  1.00  0.00     0.042 C 
BRANCH   4   6
HETATM    6  C   UNL     1       3.700  31.585  59.344  1.00  0.00     0.244 C 
HETATM    7  N   UNL     1       4.339  31.642  58.114  1.00  0.00    -0.325 N 
HETATM    8  H   UNL     1       4.982  32.413  57.988  1.00  0.00     0.169 HD
HETATM    9  O   UNL     1       2.728  30.880  59.610  1.00  0.00    -0.271 OA
BRANCH   7  10
HETATM   10  C   UNL     1       4.172  30.765  57.026  1.00  0.00     0.035 A 
HETATM   11  C   UNL     1       3.570  31.273  55.872  1.00  0.00     0.032 A 
HETATM   12  C   UNL     1       3.407  30.465  54.742  1.00  0.00     0.039 A 
HETATM   13  C   UNL     1       3.857  29.144  54.741  1.00  0.00     0.068 A 
HETATM   14  C   UNL     1       4.448  28.630  55.893  1.00  0.00     0.039 A 
HETATM   15  C   UNL     1       4.604  29.438  57.029  1.00  0.00     0.032 A 
BRANCH  13  16
HETATM   16  O   UNL     1       3.659  28.465  53.571  1.00  0.00    -0.356 OA
HETATM   17  C   UNL     1       4.529  28.791  52.493  1.00  0.00     0.210 C 
ENDBRANCH  13  16
ENDBRANCH   7  10
ENDBRANCH   4   6
ENDBRANCH   1   4
BRANCH   1  18
HETATM   18  C   UNL     1       5.440  31.655  62.261  1.00  0.00     0.165 C 
BRANCH  18  19
HETATM   19  C   UNL     1       5.840  32.503  63.445  1.00  0.00    -0.040 A 
HETATM   20  C   UNL     1       4.864  33.058  64.286  1.00  0.00     0.009 A 
HETATM   21  C   UNL     1       5.229  33.876  65.354  1.00  0.00     0.001 A 
HETATM   22  C   UNL     1       6.573  34.140  65.603  1.00  0.00     0.000 A 
HETATM   23  C   UNL     1       7.555  33.581  64.787  1.00  0.00     0.001 A 
HETATM   24  C   UNL     1       7.192  32.764  63.715  1.00  0.00     0.009 A 
ENDBRANCH  18  19
ENDBRANCH   1  18
BRANCH   2  25
HETATM   25  C   UNL     1       7.924  31.818  60.612  1.00  0.00     0.250 C 
BRANCH  25  26
HETATM   26  N   UNL     1       8.828  31.497  59.531  1.00  0.00    -0.263 N 
HETATM   27  N   UNL     1       9.866  32.330  59.304  1.00  0.00     0.006 NA
HETATM   28  N   UNL     1      10.563  31.838  58.290  1.00  0.00    -0.158 NA
HETATM   29  C   UNL     1       9.957  30.682  57.883  1.00  0.00     0.102 A 
HETATM   30  C   UNL     1       8.834  30.434  58.668  1.00  0.00     0.079 A 
HETATM   31  C   UNL     1      10.298  29.796  56.851  1.00  0.00     0.035 A 
HETATM   32  C   UNL     1       8.016  29.315  58.478  1.00  0.00     0.033 A 
HETATM   33  C   UNL     1       8.364  28.446  57.436  1.00  0.00     0.002 A 
HETATM   34  C   UNL     1       9.484  28.680  56.634  1.00  0.00     0.002 A 
ENDBRANCH  25  26
ENDBRANCH   2  25
TORSDOF 8
ENDMDL
MODEL 9
REMARK VINA RESULT:      -9.7      3.538      7.484
REMARK  8 active torsions:
REMARK  status: ('A' for Active; 'I' for Inactive)
REMARK    1  A    between atoms: C_2  and  N_3 
REMARK    2  A    between atoms: C_2  and  C_23 
REMARK       I    between atoms: N_3  and  C_4 
REMARK    3  A    between atoms: N_3  and  C_16 
REMARK    4  A    between atoms: C_4  and  C_5 
REMARK    5  A    between atoms: C_5  and  N_6 
REMARK    6  A    between atoms: C_16  and  C_17 
REMARK       I    between atoms: C_23  and  N_24 
REMARK    7  A    between atoms: N_24  and  C_25 
REMARK    8  A    between atoms: C_28  and  O_29 
ROOT
HETATM    1  N   UNL     1       7.024  29.727  57.525  1.00  0.00    -0.333 N 
HETATM    2  C   UNL     1       7.128  28.336  57.497  1.00  0.00     0.240 C 
HETATM    3  O   UNL     1       8.001  27.751  58.146  1.00  0.00    -0.271 OA
ENDROOT
BRANCH   1   4
HETATM    4  C   UNL     1       8.199  30.467  58.067  1.00  0.00     0.176 C 
HETATM    5  C   UNL     1       9.526  29.867  57.592  1.00  0.00     0.042 C 
BRANCH   4   6
HETATM    6  C   UNL     1       8.173  30.684  59.603  1.00  0.00     0.244 C 
HETATM    7  N   UNL     1       7.644  31.916  59.961  1.00  0.00    -0.325 N 
HETATM    8  H   UNL     1       7.406  32.531  59.194  1.00  0.00     0.169 HD
HETATM    9  O   UNL     1       8.733  29.901  60.368  1.00  0.00    -0.271 OA
BRANCH   7  10
HETATM   10  C   UNL     1       7.426  32.404  61.263  1.00  0.00     0.035 A 
HETATM   11  C   UNL     1       6.225  33.074  61.510  1.00  0.00     0.032 A 
HETATM   12  C   UNL     1       5.931  33.554  62.791  1.00  0.00     0.039 A 
HETATM   13  C   UNL     1       6.822  33.356  63.846  1.00  0.00     0.068 A 
HETATM   14  C   UNL     1       8.025  32.698  63.602  1.00  0.00     0.039 A 
HETATM   15  C   UNL     1       8.324  32.226  62.316  1.00  0.00     0.032 A 
BRANCH  13  16
HETATM   16  O   UNL     1       6.411  33.852  65.053  1.00  0.00    -0.356 OA
HETATM   17  C   UNL     1       5.029  33.706  65.360  1.00  0.00     0.210 C 
ENDBRANCH  13  16
ENDBRANCH   7  10
ENDBRANCH   4   6
ENDBRANCH   1   4
BRANCH   1  18
HETATM   18  C   UNL     1       6.082  30.493  56.693  1.00  0.00     0.165 C 
BRANCH  18  19
HETATM   19  C   UNL     1       5.225  31.441  57.498  1.00  0.00    -0.040 A 
HETATM   20  C   UNL     1       4.418  30.962  58.541  1.00  0.00     0.009 A 
HETATM   21  C   UNL     1       3.594  31.829  59.258  1.00  0.00     0.001 A 
HETATM   22  C   UNL     1       3.574  33.187  58.949  1.00  0.00     0.000 A 
HETATM   23  C   UNL     1       4.384  33.680  57.927  1.00  0.00     0.001 A 
HETATM   24  C   UNL     1       5.207  32.813  57.207  1.00  0.00     0.009 A 
ENDBRANCH  18  19
ENDBRANCH   1  18
BRANCH   2  25
HETATM   25  C   UNL     1       6.201  27.509  56.639  1.00  0.00     0.250 C 
BRANCH  25  26
HETATM   26  N   UNL     1       6.775  27.066  55.390  1.00  0.00    -0.263 N 
HETATM   27  N   UNL     1       7.208  28.005  54.522  1.00  0.00     0.006 NA
HETATM   28  N   UNL     1       7.704  27.378  53.465  1.00  0.00    -0.158 NA
HETATM   29  C   UNL     1       7.585  26.033  53.676  1.00  0.00     0.102 A 
HETATM   30  C   UNL     1       6.990  25.800  54.914  1.00  0.00     0.079 A 
HETATM   31  C   UNL     1       7.952  24.952  52.863  1.00  0.00     0.035 A 
HETATM   32  C   UNL     1       6.743  24.511  55.398  1.00  0.00     0.033 A 
HETATM   33  C   UNL     1       7.104  23.442  54.567  1.00  0.00     0.002 A 
HETATM   34  C   UNL     1       7.698  23.655  53.321  1.00  0.00     0.002 A 
ENDBRANCH  25  26
ENDBRANCH   2  25
TORSDOF 8
ENDMDL
MODEL 10
REMARK VINA RESULT:      -9.6      2.250      8.573
REMARK  8 active torsions:
REMARK  status: ('A' for Active; 'I' for Inactive)
REMARK    1  A    between atoms: C_2  and  N_3 
REMARK    2  A    between atoms: C_2  and  C_23 
REMARK       I    between atoms: N_3  and  C_4 
REMARK    3  A    between atoms: N_3  and  C_16 
REMARK    4  A    between atoms: C_4  and  C_5 
REMARK    5  A    between atoms: C_5  and  N_6 
REMARK    6  A    between atoms: C_16  and  C_17 
REMARK       I    between atoms: C_23  and  N_24 
REMARK    7  A    between atoms: N_24  and  C_25 
REMARK    8  A    between atoms: C_28  and  O_29 
ROOT
HETATM    1  N   UNL     1       5.722  27.404  55.628  1.00  0.00    -0.333 N 
HETATM    2  C   UNL     1       5.862  28.750  55.971  1.00  0.00     0.240 C 
HETATM    3  O   UNL     1       6.066  29.608  55.106  1.00  0.00    -0.271 OA
ENDROOT
BRANCH   1   4
HETATM    4  C   UNL     1       6.174  27.020  54.260  1.00  0.00     0.176 C 
HETATM    5  C   UNL     1       7.520  27.656  53.900  1.00  0.00     0.042 C 
BRANCH   4   6
HETATM    6  C   UNL     1       5.113  27.228  53.147  1.00  0.00     0.244 C 
HETATM    7  N   UNL     1       5.672  27.287  51.879  1.00  0.00    -0.325 N 
HETATM    8  H   UNL     1       6.683  27.253  51.842  1.00  0.00     0.169 HD
HETATM    9  O   UNL     1       3.942  27.486  53.421  1.00  0.00    -0.271 OA
BRANCH   7  10
HETATM   10  C   UNL     1       4.992  27.412  50.653  1.00  0.00     0.035 A 
HETATM   11  C   UNL     1       4.727  26.240  49.938  1.00  0.00     0.032 A 
HETATM   12  C   UNL     1       4.024  26.290  48.730  1.00  0.00     0.039 A 
HETATM   13  C   UNL     1       3.560  27.506  48.227  1.00  0.00     0.068 A 
HETATM   14  C   UNL     1       3.831  28.677  48.931  1.00  0.00     0.039 A 
HETATM   15  C   UNL     1       4.544  28.628  50.137  1.00  0.00     0.032 A 
BRANCH  13  16
HETATM   16  O   UNL     1       2.868  27.420  47.050  1.00  0.00    -0.356 OA
HETATM   17  C   UNL     1       1.449  27.361  47.152  1.00  0.00     0.210 C 
ENDBRANCH  13  16
ENDBRANCH   7  10
ENDBRANCH   4   6
ENDBRANCH   1   4
BRANCH   1  18
HETATM   18  C   UNL     1       5.588  26.319  56.613  1.00  0.00     0.165 C 
BRANCH  18  19
HETATM   19  C   UNL     1       6.733  25.335  56.562  1.00  0.00    -0.040 A 
HETATM   20  C   UNL     1       6.654  24.192  55.751  1.00  0.00     0.009 A 
HETATM   21  C   UNL     1       7.691  23.260  55.734  1.00  0.00     0.001 A 
HETATM   22  C   UNL     1       8.824  23.463  56.518  1.00  0.00     0.000 A 
HETATM   23  C   UNL     1       8.924  24.603  57.315  1.00  0.00     0.001 A 
HETATM   24  C   UNL     1       7.886  25.536  57.335  1.00  0.00     0.009 A 
ENDBRANCH  18  19
ENDBRANCH   1  18
BRANCH   2  25
HETATM   25  C   UNL     1       5.810  29.187  57.415  1.00  0.00     0.250 C 
BRANCH  25  26
HETATM   26  N   UNL     1       6.905  30.035  57.825  1.00  0.00    -0.263 N 
HETATM   27  N   UNL     1       6.619  31.126  58.568  1.00  0.00     0.006 NA
HETATM   28  N   UNL     1       7.761  31.739  58.840  1.00  0.00    -0.158 NA
HETATM   29  C   UNL     1       8.773  31.023  58.266  1.00  0.00     0.102 A 
HETATM   30  C   UNL     1       8.252  29.913  57.605  1.00  0.00     0.079 A 
HETATM   31  C   UNL     1      10.156  31.254  58.257  1.00  0.00     0.035 A 
HETATM   32  C   UNL     1       9.058  28.994  56.925  1.00  0.00     0.033 A 
HETATM   33  C   UNL     1      10.436  29.247  56.916  1.00  0.00     0.002 A 
HETATM   34  C   UNL     1      10.979  30.356  57.568  1.00  0.00     0.002 A 
ENDBRANCH  25  26
ENDBRANCH   2  25
TORSDOF 8
ENDMDL
