MODEL 1
REMARK VINA RESULT:     -11.0      0.000      0.000
REMARK  7 active torsions:
REMARK  status: ('A' for Active; 'I' for Inactive)
REMARK    1  A    between atoms: C_6  and  N_7 
REMARK    2  A    between atoms: C_10  and  C_11 
REMARK       I    between atoms: C_11  and  N_12 
REMARK    3  A    between atoms: N_12  and  C_13 
REMARK    4  A    between atoms: C_16  and  C_17 
REMARK    5  A    between atoms: C_17  and  N_18 
REMARK    6  A    between atoms: C_21  and  C_22 
REMARK       I    between atoms: C_22  and  N_23 
REMARK    7  A    between atoms: C_31  and  C_32 
ROOT
HETATM    1  C   UNL     1       5.971  32.105  62.686  1.00  0.00     0.278 C 
HETATM    2  N   UNL     1       6.474  33.159  63.429  1.00  0.00    -0.322 N 
HETATM    3  O   UNL     1       5.087  31.333  63.032  1.00  0.00    -0.265 OA
HETATM    4  H   UNL     1       7.174  33.723  62.956  1.00  0.00     0.169 HD
ENDROOT
BRANCH   2   5
HETATM    5  C   UNL     1       6.099  33.547  64.729  1.00  0.00     0.035 A 
HETATM    6  C   UNL     1       4.776  33.706  65.141  1.00  0.00     0.030 A 
HETATM    7  C   UNL     1       4.477  34.104  66.448  1.00  0.00     0.011 A 
HETATM    8  C   UNL     1       5.497  34.346  67.375  1.00  0.00    -0.032 A 
HETATM    9  C   UNL     1       6.827  34.183  66.966  1.00  0.00     0.011 A 
HETATM   10  C   UNL     1       7.121  33.783  65.656  1.00  0.00     0.030 A 
BRANCH   8  11
HETATM   11  C   UNL     1       5.157  34.776  68.778  1.00  0.00     0.273 C 
BRANCH  11  12
HETATM   12  N   UNL     1       6.121  34.253  69.818  1.00  0.00    -0.066 N 
HETATM   13  H   UNL     1       7.070  34.354  69.402  1.00  0.00     0.280 HD
HETATM   14  C   UNL     1       6.162  35.100  71.072  1.00  0.00     0.249 C 
HETATM   15  C   UNL     1       7.262  34.615  72.017  1.00  0.00     0.103 C 
HETATM   16  C   UNL     1       7.111  33.122  72.321  1.00  0.00     0.017 C 
HETATM   17  C   UNL     1       6.989  32.282  71.047  1.00  0.00     0.029 C 
HETATM   18  C   UNL     1       5.903  32.795  70.111  1.00  0.00     0.235 C 
BRANCH  15  19
HETATM   19  C   UNL     1       8.615  34.892  71.388  1.00  0.00     0.221 C 
HETATM   20  N   UNL     1       9.450  35.701  72.088  1.00  0.00    -0.370 N 
HETATM   21  H   UNL     1       9.186  36.212  72.922  1.00  0.00     0.159 HD
HETATM   22  H   UNL     1      10.361  35.909  71.692  1.00  0.00     0.159 HD
HETATM   23  O   UNL     1       8.962  34.340  70.347  1.00  0.00    -0.273 OA
ENDBRANCH  15  19
ENDBRANCH  11  12
ENDBRANCH   8  11
ENDBRANCH   2   5
BRANCH   1  24
HETATM   24  C   UNL     1       6.585  32.002  61.367  1.00  0.00     0.175 C 
HETATM   25  N   UNL     1       5.975  32.448  60.228  1.00  0.00    -0.152 NA
HETATM   26  N   UNL     1       6.782  32.195  59.211  1.00  0.00     0.011 NA
HETATM   27  N   UNL     1       7.851  31.480  59.666  1.00  0.00    -0.231 N 
HETATM   28  C   UNL     1       7.831  31.498  61.043  1.00  0.00     0.174 C 
BRANCH  27  29
HETATM   29  C   UNL     1       8.709  30.836  58.730  1.00  0.00     0.058 A 
HETATM   30  C   UNL     1       8.324  29.591  58.204  1.00  0.00     0.073 A 
HETATM   31  C   UNL     1       9.151  28.938  57.296  1.00  0.00     0.118 A 
HETATM   32  C   UNL     1      10.369  29.484  56.910  1.00  0.00     0.042 A 
HETATM   33  F   UNL     1       8.767  27.762  56.785  1.00  0.00    -0.206 F 
HETATM   34  C   UNL     1      10.771  30.703  57.448  1.00  0.00     0.005 A 
HETATM   35  C   UNL     1       9.949  31.377  58.361  1.00  0.00     0.031 A 
ENDBRANCH  27  29
BRANCH  28  36
HETATM   36  C   UNL     1       8.941  31.120  61.911  1.00  0.00     0.436 C 
HETATM   37  F   UNL     1       8.563  30.986  63.207  1.00  0.00    -0.165 F 
HETATM   38  F   UNL     1       9.476  29.922  61.573  1.00  0.00    -0.165 F 
HETATM   39  F   UNL     1       9.938  32.036  61.881  1.00  0.00    -0.165 F 
ENDBRANCH  28  36
ENDBRANCH   1  24
TORSDOF 7
ENDMDL
MODEL 2
REMARK VINA RESULT:     -10.5      4.317     12.283
REMARK  7 active torsions:
REMARK  status: ('A' for Active; 'I' for Inactive)
REMARK    1  A    between atoms: C_6  and  N_7 
REMARK    2  A    between atoms: C_10  and  C_11 
REMARK       I    between atoms: C_11  and  N_12 
REMARK    3  A    between atoms: N_12  and  C_13 
REMARK    4  A    between atoms: C_16  and  C_17 
REMARK    5  A    between atoms: C_17  and  N_18 
REMARK    6  A    between atoms: C_21  and  C_22 
REMARK       I    between atoms: C_22  and  N_23 
REMARK    7  A    between atoms: C_31  and  C_32 
ROOT
HETATM    1  C   UNL     1       7.123  31.334  59.044  1.00  0.00     0.278 C 
HETATM    2  N   UNL     1       6.479  30.225  58.524  1.00  0.00    -0.322 N 
HETATM    3  O   UNL     1       8.072  31.921  58.543  1.00  0.00    -0.265 OA
HETATM    4  H   UNL     1       5.677  29.903  59.058  1.00  0.00     0.169 HD
ENDROOT
BRANCH   2   5
HETATM    5  C   UNL     1       6.788  29.532  57.338  1.00  0.00     0.035 A 
HETATM    6  C   UNL     1       7.957  28.796  57.151  1.00  0.00     0.030 A 
HETATM    7  C   UNL     1       8.204  28.140  55.940  1.00  0.00     0.011 A 
HETATM    8  C   UNL     1       7.281  28.203  54.890  1.00  0.00    -0.032 A 
HETATM    9  C   UNL     1       6.104  28.939  55.076  1.00  0.00     0.011 A 
HETATM   10  C   UNL     1       5.861  29.593  56.291  1.00  0.00     0.030 A 
BRANCH   8  11
HETATM   11  C   UNL     1       7.563  27.492  53.592  1.00  0.00     0.273 C 
BRANCH  11  12
HETATM   12  N   UNL     1       7.637  25.989  53.734  1.00  0.00    -0.066 N 
HETATM   13  H   UNL     1       8.431  25.804  54.381  1.00  0.00     0.280 HD
HETATM   14  C   UNL     1       6.431  25.396  54.429  1.00  0.00     0.249 C 
HETATM   15  C   UNL     1       6.633  23.901  54.682  1.00  0.00     0.103 C 
HETATM   16  C   UNL     1       6.987  23.165  53.387  1.00  0.00     0.017 C 
HETATM   17  C   UNL     1       8.157  23.821  52.650  1.00  0.00     0.029 C 
HETATM   18  C   UNL     1       7.944  25.312  52.428  1.00  0.00     0.235 C 
BRANCH  15  19
HETATM   19  C   UNL     1       7.732  23.716  55.713  1.00  0.00     0.221 C 
HETATM   20  N   UNL     1       8.021  22.437  56.062  1.00  0.00    -0.370 N 
HETATM   21  H   UNL     1       7.481  21.630  55.775  1.00  0.00     0.159 HD
HETATM   22  H   UNL     1       8.748  22.280  56.753  1.00  0.00     0.159 HD
HETATM   23  O   UNL     1       8.380  24.671  56.136  1.00  0.00    -0.273 OA
ENDBRANCH  15  19
ENDBRANCH  11  12
ENDBRANCH   8  11
ENDBRANCH   2   5
BRANCH   1  24
HETATM   24  C   UNL     1       6.525  31.798  60.291  1.00  0.00     0.175 C 
HETATM   25  N   UNL     1       5.262  32.317  60.360  1.00  0.00    -0.152 NA
HETATM   26  N   UNL     1       5.032  32.654  61.618  1.00  0.00     0.011 NA
HETATM   27  N   UNL     1       6.175  32.472  62.339  1.00  0.00    -0.231 N 
HETATM   28  C   UNL     1       7.072  31.774  61.561  1.00  0.00     0.174 C 
BRANCH  27  29
HETATM   29  C   UNL     1       6.275  33.033  63.643  1.00  0.00     0.058 A 
HETATM   30  C   UNL     1       5.108  33.161  64.416  1.00  0.00     0.073 A 
HETATM   31  C   UNL     1       5.180  33.717  65.690  1.00  0.00     0.118 A 
HETATM   32  C   UNL     1       6.385  34.169  66.211  1.00  0.00     0.042 A 
HETATM   33  F   UNL     1       4.066  33.816  66.426  1.00  0.00    -0.206 F 
HETATM   34  C   UNL     1       7.540  34.072  65.441  1.00  0.00     0.005 A 
HETATM   35  C   UNL     1       7.488  33.512  64.158  1.00  0.00     0.031 A 
ENDBRANCH  27  29
BRANCH  28  36
HETATM   36  C   UNL     1       8.281  31.116  62.045  1.00  0.00     0.436 C 
HETATM   37  F   UNL     1       8.761  30.201  61.166  1.00  0.00    -0.165 F 
HETATM   38  F   UNL     1       9.300  31.988  62.240  1.00  0.00    -0.165 F 
HETATM   39  F   UNL     1       8.067  30.468  63.215  1.00  0.00    -0.165 F 
ENDBRANCH  28  36
ENDBRANCH   1  24
TORSDOF 7
ENDMDL
MODEL 3
REMARK VINA RESULT:     -10.2      5.671      9.433
REMARK  7 active torsions:
REMARK  status: ('A' for Active; 'I' for Inactive)
REMARK    1  A    between atoms: C_6  and  N_7 
REMARK    2  A    between atoms: C_10  and  C_11 
REMARK       I    between atoms: C_11  and  N_12 
REMARK    3  A    between atoms: N_12  and  C_13 
REMARK    4  A    between atoms: C_16  and  C_17 
REMARK    5  A    between atoms: C_17  and  N_18 
REMARK    6  A    between atoms: C_21  and  C_22 
REMARK       I    between atoms: C_22  and  N_23 
REMARK    7  A    between atoms: C_31  and  C_32 
ROOT
HETATM    1  C   UNL     1       5.740  26.684  56.394  1.00  0.00     0.278 C 
HETATM    2  N   UNL     1       6.321  27.898  56.073  1.00  0.00    -0.322 N 
HETATM    3  O   UNL     1       4.956  26.477  57.311  1.00  0.00    -0.265 OA
HETATM    4  H   UNL     1       6.911  27.887  55.246  1.00  0.00     0.169 HD
ENDROOT
BRANCH   2   5
HETATM    5  C   UNL     1       6.156  29.130  56.735  1.00  0.00     0.035 A 
HETATM    6  C   UNL     1       7.032  29.613  57.706  1.00  0.00     0.030 A 
HETATM    7  C   UNL     1       6.800  30.843  58.331  1.00  0.00     0.011 A 
HETATM    8  C   UNL     1       5.686  31.620  57.993  1.00  0.00    -0.032 A 
HETATM    9  C   UNL     1       4.807  31.139  57.015  1.00  0.00     0.011 A 
HETATM   10  C   UNL     1       5.044  29.907  56.392  1.00  0.00     0.030 A 
BRANCH   8  11
HETATM   11  C   UNL     1       5.451  32.941  58.676  1.00  0.00     0.273 C 
BRANCH  11  12
HETATM   12  N   UNL     1       5.026  32.803  60.121  1.00  0.00    -0.066 N 
HETATM   13  H   UNL     1       5.015  31.781  60.317  1.00  0.00     0.280 HD
HETATM   14  C   UNL     1       6.037  33.369  61.095  1.00  0.00     0.249 C 
HETATM   15  C   UNL     1       5.628  33.063  62.537  1.00  0.00     0.103 C 
HETATM   16  C   UNL     1       4.203  33.545  62.822  1.00  0.00     0.017 C 
HETATM   17  C   UNL     1       3.201  33.033  61.784  1.00  0.00     0.029 C 
HETATM   18  C   UNL     1       3.638  33.329  60.355  1.00  0.00     0.235 C 
BRANCH  15  19
HETATM   19  C   UNL     1       5.739  31.568  62.777  1.00  0.00     0.221 C 
HETATM   20  N   UNL     1       6.881  30.972  62.351  1.00  0.00    -0.370 N 
HETATM   21  H   UNL     1       7.590  31.430  61.790  1.00  0.00     0.159 HD
HETATM   22  H   UNL     1       6.984  29.973  62.492  1.00  0.00     0.159 HD
HETATM   23  O   UNL     1       4.878  30.955  63.403  1.00  0.00    -0.273 OA
ENDBRANCH  15  19
ENDBRANCH  11  12
ENDBRANCH   8  11
ENDBRANCH   2   5
BRANCH   1  24
HETATM   24  C   UNL     1       6.128  25.615  55.481  1.00  0.00     0.175 C 
HETATM   25  N   UNL     1       5.486  25.382  54.296  1.00  0.00    -0.152 NA
HETATM   26  N   UNL     1       6.067  24.343  53.720  1.00  0.00     0.011 NA
HETATM   27  N   UNL     1       6.995  23.827  54.575  1.00  0.00    -0.231 N 
HETATM   28  C   UNL     1       7.168  24.715  55.614  1.00  0.00     0.174 C 
BRANCH  27  29
HETATM   29  C   UNL     1       7.546  22.541  54.314  1.00  0.00     0.058 A 
HETATM   30  C   UNL     1       7.685  21.635  55.378  1.00  0.00     0.073 A 
HETATM   31  C   UNL     1       8.231  20.376  55.149  1.00  0.00     0.118 A 
HETATM   32  C   UNL     1       8.663  19.999  53.884  1.00  0.00     0.042 A 
HETATM   33  F   UNL     1       8.341  19.512  56.166  1.00  0.00    -0.206 F 
HETATM   34  C   UNL     1       8.556  20.901  52.830  1.00  0.00     0.005 A 
HETATM   35  C   UNL     1       8.005  22.171  53.041  1.00  0.00     0.031 A 
ENDBRANCH  27  29
BRANCH  28  36
HETATM   36  C   UNL     1       8.271  24.695  56.570  1.00  0.00     0.436 C 
HETATM   37  F   UNL     1       9.400  24.154  56.048  1.00  0.00    -0.165 F 
HETATM   38  F   UNL     1       8.627  25.939  56.973  1.00  0.00    -0.165 F 
HETATM   39  F   UNL     1       7.964  23.979  57.678  1.00  0.00    -0.165 F 
ENDBRANCH  28  36
ENDBRANCH   1  24
TORSDOF 7
ENDMDL
MODEL 4
REMARK VINA RESULT:     -10.2      4.659     12.432
REMARK  7 active torsions:
REMARK  status: ('A' for Active; 'I' for Inactive)
REMARK    1  A    between atoms: C_6  and  N_7 
REMARK    2  A    between atoms: C_10  and  C_11 
REMARK       I    between atoms: C_11  and  N_12 
REMARK    3  A    between atoms: N_12  and  C_13 
REMARK    4  A    between atoms: C_16  and  C_17 
REMARK    5  A    between atoms: C_17  and  N_18 
REMARK    6  A    between atoms: C_21  and  C_22 
REMARK       I    between atoms: C_22  and  N_23 
REMARK    7  A    between atoms: C_31  and  C_32 
ROOT
HETATM    1  C   UNL     1       8.098  30.814  59.105  1.00  0.00     0.278 C 
HETATM    2  N   UNL     1       7.054  29.934  58.883  1.00  0.00    -0.322 N 
HETATM    3  O   UNL     1       8.974  31.115  58.304  1.00  0.00    -0.265 OA
HETATM    4  H   UNL     1       6.395  29.846  59.652  1.00  0.00     0.169 HD
ENDROOT
BRANCH   2   5
HETATM    5  C   UNL     1       6.793  29.190  57.717  1.00  0.00     0.035 A 
HETATM    6  C   UNL     1       7.776  28.531  56.980  1.00  0.00     0.030 A 
HETATM    7  C   UNL     1       7.445  27.817  55.823  1.00  0.00     0.011 A 
HETATM    8  C   UNL     1       6.119  27.744  55.381  1.00  0.00    -0.032 A 
HETATM    9  C   UNL     1       5.129  28.402  56.121  1.00  0.00     0.011 A 
HETATM   10  C   UNL     1       5.465  29.115  57.279  1.00  0.00     0.030 A 
BRANCH   8  11
HETATM   11  C   UNL     1       5.781  26.973  54.132  1.00  0.00     0.273 C 
BRANCH  11  12
HETATM   12  N   UNL     1       6.678  25.779  53.900  1.00  0.00    -0.066 N 
HETATM   13  H   UNL     1       7.524  25.943  54.484  1.00  0.00     0.280 HD
HETATM   14  C   UNL     1       6.096  24.485  54.427  1.00  0.00     0.249 C 
HETATM   15  C   UNL     1       7.110  23.347  54.306  1.00  0.00     0.103 C 
HETATM   16  C   UNL     1       7.627  23.218  52.871  1.00  0.00     0.017 C 
HETATM   17  C   UNL     1       8.140  24.551  52.319  1.00  0.00     0.029 C 
HETATM   18  C   UNL     1       7.123  25.674  52.469  1.00  0.00     0.235 C 
BRANCH  15  19
HETATM   19  C   UNL     1       8.261  23.603  55.261  1.00  0.00     0.221 C 
HETATM   20  N   UNL     1       9.312  22.749  55.182  1.00  0.00    -0.370 N 
HETATM   21  H   UNL     1       9.321  21.904  54.623  1.00  0.00     0.159 HD
HETATM   22  H   UNL     1      10.096  22.891  55.811  1.00  0.00     0.159 HD
HETATM   23  O   UNL     1       8.273  24.585  56.001  1.00  0.00    -0.273 OA
ENDBRANCH  15  19
ENDBRANCH  11  12
ENDBRANCH   8  11
ENDBRANCH   2   5
BRANCH   1  24
HETATM   24  C   UNL     1       8.053  31.420  60.431  1.00  0.00     0.175 C 
HETATM   25  N   UNL     1       9.065  31.290  61.341  1.00  0.00    -0.152 NA
HETATM   26  N   UNL     1       8.708  31.938  62.437  1.00  0.00     0.011 NA
HETATM   27  N   UNL     1       7.427  32.380  62.290  1.00  0.00    -0.231 N 
HETATM   28  C   UNL     1       7.059  32.214  60.973  1.00  0.00     0.174 C 
BRANCH  27  29
HETATM   29  C   UNL     1       6.714  32.847  63.430  1.00  0.00     0.058 A 
HETATM   30  C   UNL     1       7.441  33.329  64.532  1.00  0.00     0.073 A 
HETATM   31  C   UNL     1       6.766  33.781  65.662  1.00  0.00     0.118 A 
HETATM   32  C   UNL     1       5.379  33.746  65.734  1.00  0.00     0.042 A 
HETATM   33  F   UNL     1       7.466  34.257  66.699  1.00  0.00    -0.206 F 
HETATM   34  C   UNL     1       4.653  33.243  64.658  1.00  0.00     0.005 A 
HETATM   35  C   UNL     1       5.315  32.788  63.511  1.00  0.00     0.031 A 
ENDBRANCH  27  29
BRANCH  28  36
HETATM   36  C   UNL     1       5.899  32.827  60.334  1.00  0.00     0.436 C 
HETATM   37  F   UNL     1       5.623  34.058  60.833  1.00  0.00    -0.165 F 
HETATM   38  F   UNL     1       6.084  33.017  59.004  1.00  0.00    -0.165 F 
HETATM   39  F   UNL     1       4.783  32.077  60.489  1.00  0.00    -0.165 F 
ENDBRANCH  28  36
ENDBRANCH   1  24
TORSDOF 7
ENDMDL
MODEL 5
REMARK VINA RESULT:     -10.1      5.620      8.718
REMARK  7 active torsions:
REMARK  status: ('A' for Active; 'I' for Inactive)
REMARK    1  A    between atoms: C_6  and  N_7 
REMARK    2  A    between atoms: C_10  and  C_11 
REMARK       I    between atoms: C_11  and  N_12 
REMARK    3  A    between atoms: N_12  and  C_13 
REMARK    4  A    between atoms: C_16  and  C_17 
REMARK    5  A    between atoms: C_17  and  N_18 
REMARK    6  A    between atoms: C_21  and  C_22 
REMARK       I    between atoms: C_22  and  N_23 
REMARK    7  A    between atoms: C_31  and  C_32 
ROOT
HETATM    1  C   UNL     1       7.212  28.555  56.606  1.00  0.00     0.278 C 
HETATM    2  N   UNL     1       6.352  28.864  57.645  1.00  0.00    -0.322 N 
HETATM    3  O   UNL     1       7.736  29.351  55.839  1.00  0.00    -0.265 OA
HETATM    4  H   UNL     1       6.054  28.071  58.207  1.00  0.00     0.169 HD
ENDROOT
BRANCH   2   5
HETATM    5  C   UNL     1       5.886  30.137  58.022  1.00  0.00     0.035 A 
HETATM    6  C   UNL     1       6.683  31.108  58.628  1.00  0.00     0.030 A 
HETATM    7  C   UNL     1       6.150  32.351  58.985  1.00  0.00     0.011 A 
HETATM    8  C   UNL     1       4.805  32.651  58.739  1.00  0.00    -0.032 A 
HETATM    9  C   UNL     1       4.003  31.680  58.127  1.00  0.00     0.011 A 
HETATM   10  C   UNL     1       4.542  30.437  57.770  1.00  0.00     0.030 A 
BRANCH   8  11
HETATM   11  C   UNL     1       4.247  33.994  59.132  1.00  0.00     0.273 C 
BRANCH  11  12
HETATM   12  N   UNL     1       3.884  34.090  60.596  1.00  0.00    -0.066 N 
HETATM   13  H   UNL     1       3.974  33.124  60.974  1.00  0.00     0.280 HD
HETATM   14  C   UNL     1       4.871  34.908  61.401  1.00  0.00     0.249 C 
HETATM   15  C   UNL     1       4.540  34.839  62.894  1.00  0.00     0.103 C 
HETATM   16  C   UNL     1       3.087  35.243  63.156  1.00  0.00     0.017 C 
HETATM   17  C   UNL     1       2.102  34.467  62.278  1.00  0.00     0.029 C 
HETATM   18  C   UNL     1       2.463  34.531  60.800  1.00  0.00     0.235 C 
BRANCH  15  19
HETATM   19  C   UNL     1       4.795  33.429  63.394  1.00  0.00     0.221 C 
HETATM   20  N   UNL     1       4.564  33.206  64.712  1.00  0.00    -0.370 N 
HETATM   21  H   UNL     1       4.354  33.933  65.387  1.00  0.00     0.159 HD
HETATM   22  H   UNL     1       4.729  32.274  65.079  1.00  0.00     0.159 HD
HETATM   23  O   UNL     1       5.107  32.523  62.624  1.00  0.00    -0.273 OA
ENDBRANCH  15  19
ENDBRANCH  11  12
ENDBRANCH   8  11
ENDBRANCH   2   5
BRANCH   1  24
HETATM   24  C   UNL     1       7.490  27.126  56.512  1.00  0.00     0.175 C 
HETATM   25  N   UNL     1       8.384  26.489  57.327  1.00  0.00    -0.152 NA
HETATM   26  N   UNL     1       8.415  25.214  56.975  1.00  0.00     0.011 NA
HETATM   27  N   UNL     1       7.643  25.046  55.863  1.00  0.00    -0.231 N 
HETATM   28  C   UNL     1       6.919  26.200  55.659  1.00  0.00     0.174 C 
BRANCH  27  29
HETATM   29  C   UNL     1       7.743  23.836  55.121  1.00  0.00     0.058 A 
HETATM   30  C   UNL     1       7.638  22.612  55.804  1.00  0.00     0.073 A 
HETATM   31  C   UNL     1       7.743  21.416  55.101  1.00  0.00     0.118 A 
HETATM   32  C   UNL     1       7.972  21.405  53.731  1.00  0.00     0.042 A 
HETATM   33  F   UNL     1       7.621  20.256  55.757  1.00  0.00    -0.206 F 
HETATM   34  C   UNL     1       8.106  22.612  53.051  1.00  0.00     0.005 A 
HETATM   35  C   UNL     1       7.999  23.826  53.742  1.00  0.00     0.031 A 
ENDBRANCH  27  29
BRANCH  28  36
HETATM   36  C   UNL     1       5.766  26.330  54.774  1.00  0.00     0.436 C 
HETATM   37  F   UNL     1       5.073  25.170  54.651  1.00  0.00    -0.165 F 
HETATM   38  F   UNL     1       4.865  27.234  55.231  1.00  0.00    -0.165 F 
HETATM   39  F   UNL     1       6.129  26.709  53.526  1.00  0.00    -0.165 F 
ENDBRANCH  28  36
ENDBRANCH   1  24
TORSDOF 7
ENDMDL
MODEL 6
REMARK VINA RESULT:     -10.0      4.454     12.595
REMARK  7 active torsions:
REMARK  status: ('A' for Active; 'I' for Inactive)
REMARK    1  A    between atoms: C_6  and  N_7 
REMARK    2  A    between atoms: C_10  and  C_11 
REMARK       I    between atoms: C_11  and  N_12 
REMARK    3  A    between atoms: N_12  and  C_13 
REMARK    4  A    between atoms: C_16  and  C_17 
REMARK    5  A    between atoms: C_17  and  N_18 
REMARK    6  A    between atoms: C_21  and  C_22 
REMARK       I    between atoms: C_22  and  N_23 
REMARK    7  A    between atoms: C_31  and  C_32 
ROOT
HETATM    1  C   UNL     1       7.108  31.642  59.425  1.00  0.00     0.278 C 
HETATM    2  N   UNL     1       6.598  30.465  58.908  1.00  0.00    -0.322 N 
HETATM    3  O   UNL     1       7.980  32.337  58.921  1.00  0.00    -0.265 OA
HETATM    4  H   UNL     1       5.841  30.051  59.445  1.00  0.00     0.169 HD
ENDROOT
BRANCH   2   5
HETATM    5  C   UNL     1       6.983  29.812  57.721  1.00  0.00     0.035 A 
HETATM    6  C   UNL     1       8.268  29.327  57.484  1.00  0.00     0.030 A 
HETATM    7  C   UNL     1       8.583  28.697  56.275  1.00  0.00     0.011 A 
HETATM    8  C   UNL     1       7.614  28.534  55.278  1.00  0.00    -0.032 A 
HETATM    9  C   UNL     1       6.321  29.017  55.515  1.00  0.00     0.011 A 
HETATM   10  C   UNL     1       6.011  29.646  56.727  1.00  0.00     0.030 A 
BRANCH   8  11
HETATM   11  C   UNL     1       7.971  27.854  53.982  1.00  0.00     0.273 C 
BRANCH  11  12
HETATM   12  N   UNL     1       7.270  26.530  53.784  1.00  0.00    -0.066 N 
HETATM   13  H   UNL     1       6.251  26.741  53.810  1.00  0.00     0.280 HD
HETATM   14  C   UNL     1       7.502  25.933  52.413  1.00  0.00     0.249 C 
HETATM   15  C   UNL     1       6.647  24.679  52.217  1.00  0.00     0.103 C 
HETATM   16  C   UNL     1       6.879  23.670  53.345  1.00  0.00     0.017 C 
HETATM   17  C   UNL     1       6.721  24.304  54.730  1.00  0.00     0.029 C 
HETATM   18  C   UNL     1       7.564  25.561  54.895  1.00  0.00     0.235 C 
BRANCH  15  19
HETATM   19  C   UNL     1       5.185  25.080  52.159  1.00  0.00     0.221 C 
HETATM   20  N   UNL     1       4.852  26.014  51.232  1.00  0.00    -0.370 N 
HETATM   21  H   UNL     1       5.523  26.531  50.675  1.00  0.00     0.159 HD
HETATM   22  H   UNL     1       3.882  26.307  51.171  1.00  0.00     0.159 HD
HETATM   23  O   UNL     1       4.339  24.522  52.855  1.00  0.00    -0.273 OA
ENDBRANCH  15  19
ENDBRANCH  11  12
ENDBRANCH   8  11
ENDBRANCH   2   5
BRANCH   1  24
HETATM   24  C   UNL     1       6.464  32.034  60.674  1.00  0.00     0.175 C 
HETATM   25  N   UNL     1       5.166  32.461  60.737  1.00  0.00    -0.152 NA
HETATM   26  N   UNL     1       4.897  32.751  61.999  1.00  0.00     0.011 NA
HETATM   27  N   UNL     1       6.042  32.634  62.731  1.00  0.00    -0.231 N 
HETATM   28  C   UNL     1       6.996  32.019  61.950  1.00  0.00     0.174 C 
BRANCH  27  29
HETATM   29  C   UNL     1       6.085  33.170  64.049  1.00  0.00     0.058 A 
HETATM   30  C   UNL     1       4.880  33.336  64.752  1.00  0.00     0.073 A 
HETATM   31  C   UNL     1       4.897  33.868  66.038  1.00  0.00     0.118 A 
HETATM   32  C   UNL     1       6.086  34.262  66.638  1.00  0.00     0.042 A 
HETATM   33  F   UNL     1       3.746  34.002  66.708  1.00  0.00    -0.206 F 
HETATM   34  C   UNL     1       7.281  34.128  65.937  1.00  0.00     0.005 A 
HETATM   35  C   UNL     1       7.284  33.591  64.643  1.00  0.00     0.031 A 
ENDBRANCH  27  29
BRANCH  28  36
HETATM   36  C   UNL     1       8.242  31.438  62.437  1.00  0.00     0.436 C 
HETATM   37  F   UNL     1       8.101  30.852  63.652  1.00  0.00    -0.165 F 
HETATM   38  F   UNL     1       8.706  30.458  61.623  1.00  0.00    -0.165 F 
HETATM   39  F   UNL     1       9.219  32.368  62.555  1.00  0.00    -0.165 F 
ENDBRANCH  28  36
ENDBRANCH   1  24
TORSDOF 7
ENDMDL
MODEL 7
REMARK VINA RESULT:      -9.6      5.337      9.096
REMARK  7 active torsions:
REMARK  status: ('A' for Active; 'I' for Inactive)
REMARK    1  A    between atoms: C_6  and  N_7 
REMARK    2  A    between atoms: C_10  and  C_11 
REMARK       I    between atoms: C_11  and  N_12 
REMARK    3  A    between atoms: N_12  and  C_13 
REMARK    4  A    between atoms: C_16  and  C_17 
REMARK    5  A    between atoms: C_17  and  N_18 
REMARK    6  A    between atoms: C_21  and  C_22 
REMARK       I    between atoms: C_22  and  N_23 
REMARK    7  A    between atoms: C_31  and  C_32 
ROOT
HETATM    1  C   UNL     1       7.297  28.001  55.301  1.00  0.00     0.278 C 
HETATM    2  N   UNL     1       6.176  28.015  56.111  1.00  0.00    -0.322 N 
HETATM    3  O   UNL     1       8.046  28.944  55.084  1.00  0.00    -0.265 OA
HETATM    4  H   UNL     1       5.704  27.120  56.209  1.00  0.00     0.169 HD
ENDROOT
BRANCH   2   5
HETATM    5  C   UNL     1       5.653  29.106  56.831  1.00  0.00     0.035 A 
HETATM    6  C   UNL     1       4.323  29.517  56.759  1.00  0.00     0.030 A 
HETATM    7  C   UNL     1       3.873  30.618  57.496  1.00  0.00     0.011 A 
HETATM    8  C   UNL     1       4.747  31.329  58.328  1.00  0.00    -0.032 A 
HETATM    9  C   UNL     1       6.082  30.915  58.405  1.00  0.00     0.011 A 
HETATM   10  C   UNL     1       6.527  29.812  57.666  1.00  0.00     0.030 A 
BRANCH   8  11
HETATM   11  C   UNL     1       4.246  32.512  59.113  1.00  0.00     0.273 C 
BRANCH  11  12
HETATM   12  N   UNL     1       4.796  32.578  60.519  1.00  0.00    -0.066 N 
HETATM   13  H   UNL     1       5.639  31.967  60.523  1.00  0.00     0.280 HD
HETATM   14  C   UNL     1       5.317  33.949  60.891  1.00  0.00     0.249 C 
HETATM   15  C   UNL     1       6.000  33.915  62.260  1.00  0.00     0.103 C 
HETATM   16  C   UNL     1       5.071  33.329  63.327  1.00  0.00     0.017 C 
HETATM   17  C   UNL     1       4.485  31.979  62.905  1.00  0.00     0.029 C 
HETATM   18  C   UNL     1       3.830  32.031  61.531  1.00  0.00     0.235 C 
BRANCH  15  19
HETATM   19  C   UNL     1       7.273  33.095  62.159  1.00  0.00     0.221 C 
HETATM   20  N   UNL     1       7.877  32.774  63.332  1.00  0.00    -0.370 N 
HETATM   21  H   UNL     1       7.604  33.142  64.235  1.00  0.00     0.159 HD
HETATM   22  H   UNL     1       8.733  32.230  63.298  1.00  0.00     0.159 HD
HETATM   23  O   UNL     1       7.678  32.672  61.079  1.00  0.00    -0.273 OA
ENDBRANCH  15  19
ENDBRANCH  11  12
ENDBRANCH   8  11
ENDBRANCH   2   5
BRANCH   1  24
HETATM   24  C   UNL     1       7.554  26.689  54.717  1.00  0.00     0.175 C 
HETATM   25  N   UNL     1       7.477  26.446  53.374  1.00  0.00    -0.152 NA
HETATM   26  N   UNL     1       7.748  25.167  53.178  1.00  0.00     0.011 NA
HETATM   27  N   UNL     1       7.878  24.554  54.389  1.00  0.00    -0.231 N 
HETATM   28  C   UNL     1       7.930  25.526  55.364  1.00  0.00     0.174 C 
BRANCH  27  29
HETATM   29  C   UNL     1       7.880  23.132  54.456  1.00  0.00     0.058 A 
HETATM   30  C   UNL     1       8.166  22.400  53.291  1.00  0.00     0.073 A 
HETATM   31  C   UNL     1       8.163  21.009  53.329  1.00  0.00     0.118 A 
HETATM   32  C   UNL     1       7.862  20.323  54.498  1.00  0.00     0.042 A 
HETATM   33  F   UNL     1       8.457  20.321  52.219  1.00  0.00    -0.206 F 
HETATM   34  C   UNL     1       7.549  21.039  55.649  1.00  0.00     0.005 A 
HETATM   35  C   UNL     1       7.551  22.440  55.630  1.00  0.00     0.031 A 
ENDBRANCH  27  29
BRANCH  28  36
HETATM   36  C   UNL     1       8.364  25.321  56.742  1.00  0.00     0.436 C 
HETATM   37  F   UNL     1       9.414  24.467  56.833  1.00  0.00    -0.165 F 
HETATM   38  F   UNL     1       8.789  26.468  57.325  1.00  0.00    -0.165 F 
HETATM   39  F   UNL     1       7.372  24.814  57.512  1.00  0.00    -0.165 F 
ENDBRANCH  28  36
ENDBRANCH   1  24
TORSDOF 7
ENDMDL
MODEL 8
REMARK VINA RESULT:      -9.6      5.059     11.971
REMARK  7 active torsions:
REMARK  status: ('A' for Active; 'I' for Inactive)
REMARK    1  A    between atoms: C_6  and  N_7 
REMARK    2  A    between atoms: C_10  and  C_11 
REMARK       I    between atoms: C_11  and  N_12 
REMARK    3  A    between atoms: N_12  and  C_13 
REMARK    4  A    between atoms: C_16  and  C_17 
REMARK    5  A    between atoms: C_17  and  N_18 
REMARK    6  A    between atoms: C_21  and  C_22 
REMARK       I    between atoms: C_22  and  N_23 
REMARK    7  A    between atoms: C_31  and  C_32 
ROOT
HETATM    1  C   UNL     1       5.175  32.228  58.623  1.00  0.00     0.278 C 
HETATM    2  N   UNL     1       5.004  30.862  58.495  1.00  0.00    -0.322 N 
HETATM    3  O   UNL     1       5.736  32.966  57.824  1.00  0.00    -0.265 OA
HETATM    4  H   UNL     1       4.469  30.423  59.239  1.00  0.00     0.169 HD
ENDROOT
BRANCH   2   5
HETATM    5  C   UNL     1       5.451  30.037  57.445  1.00  0.00     0.035 A 
HETATM    6  C   UNL     1       6.778  29.644  57.277  1.00  0.00     0.030 A 
HETATM    7  C   UNL     1       7.153  28.829  56.204  1.00  0.00     0.011 A 
HETATM    8  C   UNL     1       6.204  28.386  55.275  1.00  0.00    -0.032 A 
HETATM    9  C   UNL     1       4.870  28.775  55.443  1.00  0.00     0.011 A 
HETATM   10  C   UNL     1       4.499  29.590  56.521  1.00  0.00     0.030 A 
BRANCH   8  11
HETATM   11  C   UNL     1       6.625  27.511  54.124  1.00  0.00     0.273 C 
BRANCH  11  12
HETATM   12  N   UNL     1       7.111  26.145  54.552  1.00  0.00    -0.066 N 
HETATM   13  H   UNL     1       7.925  26.316  55.178  1.00  0.00     0.280 HD
HETATM   14  C   UNL     1       6.114  25.404  55.417  1.00  0.00     0.249 C 
HETATM   15  C   UNL     1       6.720  24.102  55.947  1.00  0.00     0.103 C 
HETATM   16  C   UNL     1       7.263  23.241  54.803  1.00  0.00     0.017 C 
HETATM   17  C   UNL     1       8.207  24.023  53.887  1.00  0.00     0.029 C 
HETATM   18  C   UNL     1       7.592  25.324  53.390  1.00  0.00     0.235 C 
BRANCH  15  19
HETATM   19  C   UNL     1       7.828  24.435  56.930  1.00  0.00     0.221 C 
HETATM   20  N   UNL     1       8.411  23.383  57.558  1.00  0.00    -0.370 N 
HETATM   21  H   UNL     1       8.080  22.427  57.501  1.00  0.00     0.159 HD
HETATM   22  H   UNL     1       9.153  23.572  58.225  1.00  0.00     0.159 HD
HETATM   23  O   UNL     1       8.229  25.587  57.077  1.00  0.00    -0.273 OA
ENDBRANCH  15  19
ENDBRANCH  11  12
ENDBRANCH   8  11
ENDBRANCH   2   5
BRANCH   1  24
HETATM   24  C   UNL     1       4.570  32.760  59.839  1.00  0.00     0.175 C 
HETATM   25  N   UNL     1       3.235  33.038  59.943  1.00  0.00    -0.152 NA
HETATM   26  N   UNL     1       3.014  33.516  61.156  1.00  0.00     0.011 NA
HETATM   27  N   UNL     1       4.210  33.665  61.794  1.00  0.00    -0.231 N 
HETATM   28  C   UNL     1       5.182  33.035  61.048  1.00  0.00     0.174 C 
BRANCH  27  29
HETATM   29  C   UNL     1       4.271  34.429  62.993  1.00  0.00     0.058 A 
HETATM   30  C   UNL     1       4.707  35.763  62.924  1.00  0.00     0.073 A 
HETATM   31  C   UNL     1       4.784  36.527  64.085  1.00  0.00     0.118 A 
HETATM   32  C   UNL     1       4.456  35.989  65.323  1.00  0.00     0.042 A 
HETATM   33  F   UNL     1       5.181  37.803  64.006  1.00  0.00    -0.206 F 
HETATM   34  C   UNL     1       4.051  34.660  65.404  1.00  0.00     0.005 A 
HETATM   35  C   UNL     1       3.963  33.878  64.246  1.00  0.00     0.031 A 
ENDBRANCH  27  29
BRANCH  28  36
HETATM   36  C   UNL     1       6.523  32.699  61.515  1.00  0.00     0.436 C 
HETATM   37  F   UNL     1       7.266  33.799  61.792  1.00  0.00    -0.165 F 
HETATM   38  F   UNL     1       6.504  31.985  62.667  1.00  0.00    -0.165 F 
HETATM   39  F   UNL     1       7.209  31.977  60.597  1.00  0.00    -0.165 F 
ENDBRANCH  28  36
ENDBRANCH   1  24
TORSDOF 7
ENDMDL
MODEL 9
REMARK VINA RESULT:      -9.5      5.213     12.785
REMARK  7 active torsions:
REMARK  status: ('A' for Active; 'I' for Inactive)
REMARK    1  A    between atoms: C_6  and  N_7 
REMARK    2  A    between atoms: C_10  and  C_11 
REMARK       I    between atoms: C_11  and  N_12 
REMARK    3  A    between atoms: N_12  and  C_13 
REMARK    4  A    between atoms: C_16  and  C_17 
REMARK    5  A    between atoms: C_17  and  N_18 
REMARK    6  A    between atoms: C_21  and  C_22 
REMARK       I    between atoms: C_22  and  N_23 
REMARK    7  A    between atoms: C_31  and  C_32 
ROOT
HETATM    1  C   UNL     1       6.687  31.879  59.055  1.00  0.00     0.278 C 
HETATM    2  N   UNL     1       5.935  30.865  58.489  1.00  0.00    -0.322 N 
HETATM    3  O   UNL     1       7.887  32.062  58.902  1.00  0.00    -0.265 OA
HETATM    4  H   UNL     1       4.940  30.902  58.693  1.00  0.00     0.169 HD
ENDROOT
BRANCH   2   5
HETATM    5  C   UNL     1       6.386  29.831  57.647  1.00  0.00     0.035 A 
HETATM    6  C   UNL     1       7.362  28.904  58.011  1.00  0.00     0.030 A 
HETATM    7  C   UNL     1       7.770  27.906  57.119  1.00  0.00     0.011 A 
HETATM    8  C   UNL     1       7.204  27.813  55.842  1.00  0.00    -0.032 A 
HETATM    9  C   UNL     1       6.221  28.740  55.476  1.00  0.00     0.011 A 
HETATM   10  C   UNL     1       5.816  29.736  56.373  1.00  0.00     0.030 A 
BRANCH   8  11
HETATM   11  C   UNL     1       7.656  26.734  54.893  1.00  0.00     0.273 C 
BRANCH  11  12
HETATM   12  N   UNL     1       6.606  26.347  53.878  1.00  0.00    -0.066 N 
HETATM   13  H   UNL     1       6.031  27.201  53.724  1.00  0.00     0.280 HD
HETATM   14  C   UNL     1       7.184  26.026  52.516  1.00  0.00     0.249 C 
HETATM   15  C   UNL     1       6.068  25.795  51.495  1.00  0.00     0.103 C 
HETATM   16  C   UNL     1       5.084  24.729  51.983  1.00  0.00     0.017 C 
HETATM   17  C   UNL     1       4.567  25.021  53.394  1.00  0.00     0.029 C 
HETATM   18  C   UNL     1       5.694  25.268  54.389  1.00  0.00     0.235 C 
BRANCH  15  19
HETATM   19  C   UNL     1       5.346  27.107  51.246  1.00  0.00     0.221 C 
HETATM   20  N   UNL     1       4.262  27.052  50.431  1.00  0.00    -0.370 N 
HETATM   21  H   UNL     1       3.987  26.234  49.899  1.00  0.00     0.159 HD
HETATM   22  H   UNL     1       3.759  27.913  50.240  1.00  0.00     0.159 HD
HETATM   23  O   UNL     1       5.675  28.140  51.824  1.00  0.00    -0.273 OA
ENDBRANCH  15  19
ENDBRANCH  11  12
ENDBRANCH   8  11
ENDBRANCH   2   5
BRANCH   1  24
HETATM   24  C   UNL     1       5.886  32.787  59.868  1.00  0.00     0.175 C 
HETATM   25  N   UNL     1       4.789  33.444  59.385  1.00  0.00    -0.152 NA
HETATM   26  N   UNL     1       4.303  34.193  60.361  1.00  0.00     0.011 NA
HETATM   27  N   UNL     1       5.146  34.122  61.430  1.00  0.00    -0.231 N 
HETATM   28  C   UNL     1       6.053  33.111  61.202  1.00  0.00     0.174 C 
BRANCH  27  29
HETATM   29  C   UNL     1       5.005  35.059  62.493  1.00  0.00     0.058 A 
HETATM   30  C   UNL     1       5.872  36.163  62.541  1.00  0.00     0.073 A 
HETATM   31  C   UNL     1       5.761  37.087  63.576  1.00  0.00     0.118 A 
HETATM   32  C   UNL     1       4.816  36.929  64.582  1.00  0.00     0.042 A 
HETATM   33  F   UNL     1       6.578  38.147  63.602  1.00  0.00    -0.206 F 
HETATM   34  C   UNL     1       3.973  35.822  64.558  1.00  0.00     0.005 A 
HETATM   35  C   UNL     1       4.068  34.885  63.521  1.00  0.00     0.031 A 
ENDBRANCH  27  29
BRANCH  28  36
HETATM   36  C   UNL     1       6.922  32.510  62.208  1.00  0.00     0.436 C 
HETATM   37  F   UNL     1       8.232  32.796  62.000  1.00  0.00    -0.165 F 
HETATM   38  F   UNL     1       6.655  32.962  63.458  1.00  0.00    -0.165 F 
HETATM   39  F   UNL     1       6.809  31.161  62.229  1.00  0.00    -0.165 F 
ENDBRANCH  28  36
ENDBRANCH   1  24
TORSDOF 7
ENDMDL
MODEL 10
REMARK VINA RESULT:      -9.5      7.308     10.410
REMARK  7 active torsions:
REMARK  status: ('A' for Active; 'I' for Inactive)
REMARK    1  A    between atoms: C_6  and  N_7 
REMARK    2  A    between atoms: C_10  and  C_11 
REMARK       I    between atoms: C_11  and  N_12 
REMARK    3  A    between atoms: N_12  and  C_13 
REMARK    4  A    between atoms: C_16  and  C_17 
REMARK    5  A    between atoms: C_17  and  N_18 
REMARK    6  A    between atoms: C_21  and  C_22 
REMARK       I    between atoms: C_22  and  N_23 
REMARK    7  A    between atoms: C_31  and  C_32 
ROOT
HETATM    1  C   UNL     1       5.455  27.042  55.881  1.00  0.00     0.278 C 
HETATM    2  N   UNL     1       5.533  28.182  55.102  1.00  0.00    -0.322 N 
HETATM    3  O   UNL     1       5.036  26.976  57.029  1.00  0.00    -0.265 OA
HETATM    4  H   UNL     1       5.864  28.033  54.153  1.00  0.00     0.169 HD
ENDROOT
BRANCH   2   5
HETATM    5  C   UNL     1       5.173  29.494  55.465  1.00  0.00     0.035 A 
HETATM    6  C   UNL     1       5.943  30.308  56.294  1.00  0.00     0.030 A 
HETATM    7  C   UNL     1       5.519  31.601  56.622  1.00  0.00     0.011 A 
HETATM    8  C   UNL     1       4.315  32.109  56.120  1.00  0.00    -0.032 A 
HETATM    9  C   UNL     1       3.542  31.295  55.283  1.00  0.00     0.011 A 
HETATM   10  C   UNL     1       3.971  30.002  54.958  1.00  0.00     0.030 A 
BRANCH   8  11
HETATM   11  C   UNL     1       3.873  33.502  56.484  1.00  0.00     0.273 C 
BRANCH  11  12
HETATM   12  N   UNL     1       3.494  33.652  57.939  1.00  0.00    -0.066 N 
HETATM   13  H   UNL     1       2.912  32.820  58.168  1.00  0.00     0.280 HD
HETATM   14  C   UNL     1       4.679  33.557  58.876  1.00  0.00     0.249 C 
HETATM   15  C   UNL     1       4.216  33.559  60.335  1.00  0.00     0.103 C 
HETATM   16  C   UNL     1       3.327  34.769  60.631  1.00  0.00     0.017 C 
HETATM   17  C   UNL     1       2.178  34.901  59.628  1.00  0.00     0.029 C 
HETATM   18  C   UNL     1       2.658  34.876  58.184  1.00  0.00     0.235 C 
BRANCH  15  19
HETATM   19  C   UNL     1       3.468  32.270  60.619  1.00  0.00     0.221 C 
HETATM   20  N   UNL     1       3.145  32.034  61.916  1.00  0.00    -0.370 N 
HETATM   21  H   UNL     1       3.470  32.592  62.697  1.00  0.00     0.159 HD
HETATM   22  H   UNL     1       2.648  31.178  62.140  1.00  0.00     0.159 HD
HETATM   23  O   UNL     1       3.099  31.529  59.710  1.00  0.00    -0.273 OA
ENDBRANCH  15  19
ENDBRANCH  11  12
ENDBRANCH   8  11
ENDBRANCH   2   5
BRANCH   1  24
HETATM   24  C   UNL     1       5.903  25.846  55.176  1.00  0.00     0.175 C 
HETATM   25  N   UNL     1       5.329  25.411  54.014  1.00  0.00    -0.152 NA
HETATM   26  N   UNL     1       5.952  24.304  53.645  1.00  0.00     0.011 NA
HETATM   27  N   UNL     1       6.839  23.953  54.619  1.00  0.00    -0.231 N 
HETATM   28  C   UNL     1       6.946  25.000  55.507  1.00  0.00     0.174 C 
BRANCH  27  29
HETATM   29  C   UNL     1       7.418  22.653  54.600  1.00  0.00     0.058 A 
HETATM   30  C   UNL     1       7.738  22.072  53.361  1.00  0.00     0.073 A 
HETATM   31  C   UNL     1       8.295  20.798  53.317  1.00  0.00     0.118 A 
HETATM   32  C   UNL     1       8.525  20.073  54.479  1.00  0.00     0.042 A 
HETATM   33  F   UNL     1       8.616  20.262  52.133  1.00  0.00    -0.206 F 
HETATM   34  C   UNL     1       8.184  20.628  55.709  1.00  0.00     0.005 A 
HETATM   35  C   UNL     1       7.626  21.911  55.772  1.00  0.00     0.031 A 
ENDBRANCH  27  29
BRANCH  28  36
HETATM   36  C   UNL     1       7.995  25.158  56.508  1.00  0.00     0.436 C 
HETATM   37  F   UNL     1       7.626  24.687  57.726  1.00  0.00    -0.165 F 
HETATM   38  F   UNL     1       9.120  24.472  56.190  1.00  0.00    -0.165 F 
HETATM   39  F   UNL     1       8.341  26.457  56.675  1.00  0.00    -0.165 F 
ENDBRANCH  28  36
ENDBRANCH   1  24
TORSDOF 7
ENDMDL
