MODEL 1
REMARK VINA RESULT:      -8.7      0.000      0.000
REMARK  2 active torsions:
REMARK  status: ('A' for Active; 'I' for Inactive)
REMARK    1  A    between atoms: C_8  and  N_9 
REMARK       I    between atoms: N_9  and  C_10 
REMARK       I    between atoms: C_10  and  N_11 
REMARK    2  A    between atoms: N_11  and  C_12 
ROOT
HETATM    1  C   UNL     1       8.657  21.401  53.724  1.00  0.00     0.044 A 
HETATM    2  C   UNL     1       8.807  21.575  55.090  1.00  0.00     0.117 A 
HETATM    3  F   UNL     1       9.578  20.727  55.783  1.00  0.00    -0.206 F 
HETATM    4  C   UNL     1       8.147  22.600  55.754  1.00  0.00     0.067 A 
HETATM    5  C   UNL     1       7.319  23.487  55.046  1.00  0.00     0.074 A 
HETATM    6  C   UNL     1       6.563  24.424  55.825  1.00  0.00     0.102 C 
HETATM    7  N   UNL     1       5.933  25.161  56.465  1.00  0.00    -0.191 NA
HETATM    8  C   UNL     1       7.181  23.345  53.648  1.00  0.00     0.057 A 
HETATM    9  C   UNL     1       7.842  22.279  53.007  1.00  0.00     0.034 A 
ENDROOT
BRANCH   8  10
HETATM   10  N   UNL     1       6.370  24.146  52.803  1.00  0.00    -0.308 N 
HETATM   11  C   UNL     1       6.724  25.312  52.176  1.00  0.00     0.321 C 
HETATM   12  N   UNL     1       5.624  25.957  51.661  1.00  0.00    -0.336 N 
HETATM   13  O   UNL     1       7.851  25.773  52.054  1.00  0.00    -0.247 OA
HETATM   14  H   UNL     1       4.733  25.680  52.056  1.00  0.00     0.164 HD
HETATM   15  H   UNL     1       5.587  23.672  52.369  1.00  0.00     0.170 HD
BRANCH  12  16
HETATM   16  C   UNL     1       5.669  27.242  50.958  1.00  0.00     0.118 C 
HETATM   17  C   UNL     1       4.766  27.382  49.717  1.00  0.00     0.210 C 
HETATM   18  N   UNL     1       3.469  27.868  50.297  1.00  0.00    -0.065 N 
HETATM   19  C   UNL     1       4.500  26.162  48.850  1.00  0.00     0.035 C 
HETATM   20  H   UNL     1       3.062  27.071  50.842  1.00  0.00     0.280 HD
HETATM   21  C   UNL     1       2.471  28.291  49.275  1.00  0.00     0.235 C 
HETATM   22  C   UNL     1       3.862  28.885  51.325  1.00  0.00     0.237 C 
HETATM   23  C   UNL     1       2.198  27.124  48.334  1.00  0.00     0.028 C 
HETATM   24  C   UNL     1       3.477  26.504  47.762  1.00  0.00     0.004 C 
HETATM   25  C   UNL     1       5.221  28.413  51.849  1.00  0.00     0.055 C 
ENDBRANCH  12  16
ENDBRANCH   8  10
TORSDOF 2
ENDMDL
MODEL 2
REMARK VINA RESULT:      -8.5      1.220      1.453
REMARK  2 active torsions:
REMARK  status: ('A' for Active; 'I' for Inactive)
REMARK    1  A    between atoms: C_8  and  N_9 
REMARK       I    between atoms: N_9  and  C_10 
REMARK       I    between atoms: C_10  and  N_11 
REMARK    2  A    between atoms: N_11  and  C_12 
ROOT
HETATM    1  C   UNL     1       7.992  22.766  53.280  1.00  0.00     0.044 A 
HETATM    2  C   UNL     1       8.299  22.799  54.630  1.00  0.00     0.117 A 
HETATM    3  F   UNL     1       9.257  21.997  55.109  1.00  0.00    -0.206 F 
HETATM    4  C   UNL     1       7.607  23.634  55.497  1.00  0.00     0.067 A 
HETATM    5  C   UNL     1       6.585  24.469  55.014  1.00  0.00     0.074 A 
HETATM    6  C   UNL     1       5.825  25.190  55.995  1.00  0.00     0.102 C 
HETATM    7  N   UNL     1       5.197  25.748  56.796  1.00  0.00    -0.191 NA
HETATM    8  C   UNL     1       6.282  24.473  53.635  1.00  0.00     0.057 A 
HETATM    9  C   UNL     1       6.983  23.596  52.785  1.00  0.00     0.034 A 
ENDROOT
BRANCH   8  10
HETATM   10  N   UNL     1       5.270  25.242  53.005  1.00  0.00    -0.308 N 
HETATM   11  C   UNL     1       5.443  26.273  52.118  1.00  0.00     0.321 C 
HETATM   12  N   UNL     1       4.270  26.961  51.917  1.00  0.00    -0.336 N 
HETATM   13  O   UNL     1       6.477  26.589  51.544  1.00  0.00    -0.247 OA
HETATM   14  H   UNL     1       3.564  26.835  52.632  1.00  0.00     0.164 HD
HETATM   15  H   UNL     1       4.359  24.804  52.946  1.00  0.00     0.170 HD
BRANCH  12  16
HETATM   16  C   UNL     1       4.135  28.133  51.047  1.00  0.00     0.118 C 
HETATM   17  C   UNL     1       3.678  27.868  49.598  1.00  0.00     0.210 C 
HETATM   18  N   UNL     1       2.180  27.907  49.705  1.00  0.00    -0.065 N 
HETATM   19  C   UNL     1       4.096  26.578  48.912  1.00  0.00     0.035 C 
HETATM   20  H   UNL     1       1.891  27.056  50.242  1.00  0.00     0.280 HD
HETATM   21  C   UNL     1       1.480  27.889  48.389  1.00  0.00     0.235 C 
HETATM   22  C   UNL     1       1.887  29.063  50.613  1.00  0.00     0.237 C 
HETATM   23  C   UNL     1       1.900  26.641  47.621  1.00  0.00     0.028 C 
HETATM   24  C   UNL     1       3.421  26.470  47.540  1.00  0.00     0.004 C 
HETATM   25  C   UNL     1       3.084  29.130  51.566  1.00  0.00     0.055 C 
ENDBRANCH  12  16
ENDBRANCH   8  10
TORSDOF 2
ENDMDL
MODEL 3
REMARK VINA RESULT:      -8.3      5.739      8.170
REMARK  2 active torsions:
REMARK  status: ('A' for Active; 'I' for Inactive)
REMARK    1  A    between atoms: C_8  and  N_9 
REMARK       I    between atoms: N_9  and  C_10 
REMARK       I    between atoms: C_10  and  N_11 
REMARK    2  A    between atoms: N_11  and  C_12 
ROOT
HETATM    1  C   UNL     1       7.282  31.472  59.360  1.00  0.00     0.044 A 
HETATM    2  C   UNL     1       8.527  32.015  59.634  1.00  0.00     0.117 A 
HETATM    3  F   UNL     1       8.619  33.077  60.445  1.00  0.00    -0.206 F 
HETATM    4  C   UNL     1       9.676  31.491  59.058  1.00  0.00     0.067 A 
HETATM    5  C   UNL     1       9.594  30.388  58.190  1.00  0.00     0.074 A 
HETATM    6  C   UNL     1      10.806  30.001  57.526  1.00  0.00     0.102 C 
HETATM    7  N   UNL     1      11.784  29.711  56.972  1.00  0.00    -0.191 NA
HETATM    8  C   UNL     1       8.338  29.801  57.926  1.00  0.00     0.057 A 
HETATM    9  C   UNL     1       7.188  30.373  58.504  1.00  0.00     0.034 A 
ENDROOT
BRANCH   8  10
HETATM   10  N   UNL     1       8.095  28.703  57.061  1.00  0.00    -0.308 N 
HETATM   11  C   UNL     1       7.697  27.440  57.416  1.00  0.00     0.321 C 
HETATM   12  N   UNL     1       7.817  26.563  56.363  1.00  0.00    -0.336 N 
HETATM   13  O   UNL     1       7.276  27.076  58.506  1.00  0.00    -0.247 OA
HETATM   14  H   UNL     1       8.437  26.861  55.618  1.00  0.00     0.164 HD
HETATM   15  H   UNL     1       7.885  28.940  56.099  1.00  0.00     0.170 HD
BRANCH  12  16
HETATM   16  C   UNL     1       7.498  25.135  56.432  1.00  0.00     0.118 C 
HETATM   17  C   UNL     1       7.052  24.462  55.119  1.00  0.00     0.210 C 
HETATM   18  N   UNL     1       8.351  24.032  54.502  1.00  0.00    -0.065 N 
HETATM   19  C   UNL     1       6.260  25.270  54.103  1.00  0.00     0.035 C 
HETATM   20  H   UNL     1       8.851  24.903  54.206  1.00  0.00     0.280 HD
HETATM   21  C   UNL     1       8.192  23.157  53.307  1.00  0.00     0.235 C 
HETATM   22  C   UNL     1       9.158  23.485  55.641  1.00  0.00     0.237 C 
HETATM   23  C   UNL     1       7.355  23.889  52.264  1.00  0.00     0.028 C 
HETATM   24  C   UNL     1       6.045  24.445  52.829  1.00  0.00     0.004 C 
HETATM   25  C   UNL     1       8.705  24.285  56.866  1.00  0.00     0.055 C 
ENDBRANCH  12  16
ENDBRANCH   8  10
TORSDOF 2
ENDMDL
MODEL 4
REMARK VINA RESULT:      -8.2      1.802      2.678
REMARK  2 active torsions:
REMARK  status: ('A' for Active; 'I' for Inactive)
REMARK    1  A    between atoms: C_8  and  N_9 
REMARK       I    between atoms: N_9  and  C_10 
REMARK       I    between atoms: C_10  and  N_11 
REMARK    2  A    between atoms: N_11  and  C_12 
ROOT
HETATM    1  C   UNL     1       8.161  22.100  53.647  1.00  0.00     0.044 A 
HETATM    2  C   UNL     1       8.298  22.461  54.977  1.00  0.00     0.117 A 
HETATM    3  F   UNL     1       8.634  21.532  55.882  1.00  0.00    -0.206 F 
HETATM    4  C   UNL     1       8.066  23.766  55.389  1.00  0.00     0.067 A 
HETATM    5  C   UNL     1       7.694  24.749  54.456  1.00  0.00     0.074 A 
HETATM    6  C   UNL     1       7.332  26.033  54.983  1.00  0.00     0.102 C 
HETATM    7  N   UNL     1       7.015  27.062  55.420  1.00  0.00    -0.191 NA
HETATM    8  C   UNL     1       7.582  24.406  53.091  1.00  0.00     0.057 A 
HETATM    9  C   UNL     1       7.798  23.068  52.709  1.00  0.00     0.034 A 
ENDROOT
BRANCH   8  10
HETATM   10  N   UNL     1       7.199  25.279  52.040  1.00  0.00    -0.308 N 
HETATM   11  C   UNL     1       5.932  25.707  51.738  1.00  0.00     0.321 C 
HETATM   12  N   UNL     1       5.892  26.321  50.508  1.00  0.00    -0.336 N 
HETATM   13  O   UNL     1       4.928  25.592  52.429  1.00  0.00    -0.247 OA
HETATM   14  H   UNL     1       6.668  26.111  49.891  1.00  0.00     0.164 HD
HETATM   15  H   UNL     1       7.929  25.886  51.686  1.00  0.00     0.170 HD
BRANCH  12  16
HETATM   16  C   UNL     1       4.678  26.862  49.890  1.00  0.00     0.118 C 
HETATM   17  C   UNL     1       4.536  28.397  49.874  1.00  0.00     0.210 C 
HETATM   18  N   UNL     1       5.229  28.787  48.600  1.00  0.00    -0.065 N 
HETATM   19  C   UNL     1       5.111  29.208  51.024  1.00  0.00     0.035 C 
HETATM   20  H   UNL     1       6.251  28.609  48.743  1.00  0.00     0.280 HD
HETATM   21  C   UNL     1       5.052  30.219  48.230  1.00  0.00     0.235 C 
HETATM   22  C   UNL     1       4.791  27.766  47.594  1.00  0.00     0.237 C 
HETATM   23  C   UNL     1       5.561  31.093  49.371  1.00  0.00     0.028 C 
HETATM   24  C   UNL     1       4.972  30.706  50.731  1.00  0.00     0.004 C 
HETATM   25  C   UNL     1       4.562  26.486  48.403  1.00  0.00     0.055 C 
ENDBRANCH  12  16
ENDBRANCH   8  10
TORSDOF 2
ENDMDL
MODEL 5
REMARK VINA RESULT:      -8.2      3.014      4.576
REMARK  2 active torsions:
REMARK  status: ('A' for Active; 'I' for Inactive)
REMARK    1  A    between atoms: C_8  and  N_9 
REMARK       I    between atoms: N_9  and  C_10 
REMARK       I    between atoms: C_10  and  N_11 
REMARK    2  A    between atoms: N_11  and  C_12 
ROOT
HETATM    1  C   UNL     1       8.063  21.600  53.254  1.00  0.00     0.044 A 
HETATM    2  C   UNL     1       8.750  21.135  54.363  1.00  0.00     0.117 A 
HETATM    3  F   UNL     1       9.162  19.862  54.398  1.00  0.00    -0.206 F 
HETATM    4  C   UNL     1       8.991  21.964  55.450  1.00  0.00     0.067 A 
HETATM    5  C   UNL     1       8.548  23.297  55.438  1.00  0.00     0.074 A 
HETATM    6  C   UNL     1       8.710  24.041  56.654  1.00  0.00     0.102 C 
HETATM    7  N   UNL     1       8.819  24.627  57.651  1.00  0.00    -0.191 NA
HETATM    8  C   UNL     1       7.876  23.798  54.301  1.00  0.00     0.057 A 
HETATM    9  C   UNL     1       7.622  22.925  53.226  1.00  0.00     0.034 A 
ENDROOT
BRANCH   8  10
HETATM   10  N   UNL     1       7.355  25.108  54.150  1.00  0.00    -0.308 N 
HETATM   11  C   UNL     1       6.123  25.562  54.547  1.00  0.00     0.321 C 
HETATM   12  N   UNL     1       5.848  26.796  54.007  1.00  0.00    -0.336 N 
HETATM   13  O   UNL     1       5.329  24.994  55.284  1.00  0.00    -0.247 OA
HETATM   14  H   UNL     1       6.400  27.050  53.196  1.00  0.00     0.164 HD
HETATM   15  H   UNL     1       8.042  25.844  54.037  1.00  0.00     0.170 HD
BRANCH  12  16
HETATM   16  C   UNL     1       4.600  27.535  54.221  1.00  0.00     0.118 C 
HETATM   17  C   UNL     1       4.600  28.578  55.356  1.00  0.00     0.210 C 
HETATM   18  N   UNL     1       5.093  29.821  54.672  1.00  0.00    -0.065 N 
HETATM   19  C   UNL     1       5.440  28.325  56.597  1.00  0.00     0.035 C 
HETATM   20  H   UNL     1       6.104  29.663  54.446  1.00  0.00     0.280 HD
HETATM   21  C   UNL     1       4.988  31.052  55.505  1.00  0.00     0.235 C 
HETATM   22  C   UNL     1       4.394  29.837  53.346  1.00  0.00     0.237 C 
HETATM   23  C   UNL     1       5.767  30.843  56.799  1.00  0.00     0.028 C 
HETATM   24  C   UNL     1       5.392  29.546  57.522  1.00  0.00     0.004 C 
HETATM   25  C   UNL     1       4.191  28.361  52.988  1.00  0.00     0.055 C 
ENDBRANCH  12  16
ENDBRANCH   8  10
TORSDOF 2
ENDMDL
MODEL 6
REMARK VINA RESULT:      -8.0      3.621      7.960
REMARK  2 active torsions:
REMARK  status: ('A' for Active; 'I' for Inactive)
REMARK    1  A    between atoms: C_8  and  N_9 
REMARK       I    between atoms: N_9  and  C_10 
REMARK       I    between atoms: C_10  and  N_11 
REMARK    2  A    between atoms: N_11  and  C_12 
ROOT
HETATM    1  C   UNL     1       3.747  29.795  55.976  1.00  0.00     0.044 A 
HETATM    2  C   UNL     1       3.434  30.396  54.768  1.00  0.00     0.117 A 
HETATM    3  F   UNL     1       2.802  31.576  54.762  1.00  0.00    -0.206 F 
HETATM    4  C   UNL     1       3.741  29.777  53.564  1.00  0.00     0.067 A 
HETATM    5  C   UNL     1       4.386  28.529  53.552  1.00  0.00     0.074 A 
HETATM    6  C   UNL     1       4.537  27.894  52.274  1.00  0.00     0.102 C 
HETATM    7  N   UNL     1       4.630  27.374  51.240  1.00  0.00    -0.191 NA
HETATM    8  C   UNL     1       4.743  27.918  54.774  1.00  0.00     0.057 A 
HETATM    9  C   UNL     1       4.394  28.557  55.979  1.00  0.00     0.034 A 
ENDROOT
BRANCH   8  10
HETATM   10  N   UNL     1       5.377  26.657  54.922  1.00  0.00    -0.308 N 
HETATM   11  C   UNL     1       6.639  26.310  54.516  1.00  0.00     0.321 C 
HETATM   12  N   UNL     1       6.828  24.950  54.575  1.00  0.00    -0.336 N 
HETATM   13  O   UNL     1       7.528  27.064  54.141  1.00  0.00    -0.247 OA
HETATM   14  H   UNL     1       5.981  24.394  54.600  1.00  0.00     0.164 HD
HETATM   15  H   UNL     1       5.010  26.066  55.658  1.00  0.00     0.170 HD
BRANCH  12  16
HETATM   16  C   UNL     1       8.062  24.265  54.180  1.00  0.00     0.118 C 
HETATM   17  C   UNL     1       8.445  23.010  54.989  1.00  0.00     0.210 C 
HETATM   18  N   UNL     1       7.728  21.908  54.263  1.00  0.00    -0.065 N 
HETATM   19  C   UNL     1       8.095  22.944  56.467  1.00  0.00     0.035 C 
HETATM   20  H   UNL     1       6.705  22.044  54.438  1.00  0.00     0.280 HD
HETATM   21  C   UNL     1       8.102  20.540  54.719  1.00  0.00     0.235 C 
HETATM   22  C   UNL     1       7.921  22.215  52.808  1.00  0.00     0.237 C 
HETATM   23  C   UNL     1       7.827  20.424  56.214  1.00  0.00     0.028 C 
HETATM   24  C   UNL     1       8.447  21.562  57.029  1.00  0.00     0.004 C 
HETATM   25  C   UNL     1       8.004  23.743  52.734  1.00  0.00     0.055 C 
ENDBRANCH  12  16
ENDBRANCH   8  10
TORSDOF 2
ENDMDL
MODEL 7
REMARK VINA RESULT:      -8.0      1.963      2.907
REMARK  2 active torsions:
REMARK  status: ('A' for Active; 'I' for Inactive)
REMARK    1  A    between atoms: C_8  and  N_9 
REMARK       I    between atoms: N_9  and  C_10 
REMARK       I    between atoms: C_10  and  N_11 
REMARK    2  A    between atoms: N_11  and  C_12 
ROOT
HETATM    1  C   UNL     1       6.576  25.917  57.086  1.00  0.00     0.044 A 
HETATM    2  C   UNL     1       7.532  24.919  56.995  1.00  0.00     0.117 A 
HETATM    3  F   UNL     1       8.303  24.646  58.054  1.00  0.00    -0.206 F 
HETATM    4  C   UNL     1       7.720  24.219  55.811  1.00  0.00     0.067 A 
HETATM    5  C   UNL     1       6.932  24.506  54.684  1.00  0.00     0.074 A 
HETATM    6  C   UNL     1       7.287  23.841  53.463  1.00  0.00     0.102 C 
HETATM    7  N   UNL     1       7.597  23.318  52.474  1.00  0.00    -0.191 NA
HETATM    8  C   UNL     1       5.930  25.497  54.769  1.00  0.00     0.057 A 
HETATM    9  C   UNL     1       5.782  26.209  55.975  1.00  0.00     0.034 A 
ENDROOT
BRANCH   8  10
HETATM   10  N   UNL     1       5.073  25.911  53.716  1.00  0.00    -0.308 N 
HETATM   11  C   UNL     1       5.286  26.932  52.826  1.00  0.00     0.321 C 
HETATM   12  N   UNL     1       4.144  27.226  52.120  1.00  0.00    -0.336 N 
HETATM   13  O   UNL     1       6.332  27.540  52.635  1.00  0.00    -0.247 OA
HETATM   14  H   UNL     1       3.279  26.901  52.537  1.00  0.00     0.164 HD
HETATM   15  H   UNL     1       4.416  25.214  53.386  1.00  0.00     0.170 HD
BRANCH  12  16
HETATM   16  C   UNL     1       4.040  28.287  51.114  1.00  0.00     0.118 C 
HETATM   17  C   UNL     1       3.758  27.840  49.666  1.00  0.00     0.210 C 
HETATM   18  N   UNL     1       2.258  27.792  49.614  1.00  0.00    -0.065 N 
HETATM   19  C   UNL     1       4.318  26.514  49.175  1.00  0.00     0.035 C 
HETATM   20  H   UNL     1       1.958  26.986  50.211  1.00  0.00     0.280 HD
HETATM   21  C   UNL     1       1.707  27.588  48.244  1.00  0.00     0.235 C 
HETATM   22  C   UNL     1       1.806  29.016  50.352  1.00  0.00     0.237 C 
HETATM   23  C   UNL     1       2.275  26.295  47.669  1.00  0.00     0.028 C 
HETATM   24  C   UNL     1       3.802  26.217  47.763  1.00  0.00     0.004 C 
HETATM   25  C   UNL     1       2.887  29.262  51.408  1.00  0.00     0.055 C 
ENDBRANCH  12  16
ENDBRANCH   8  10
TORSDOF 2
ENDMDL
MODEL 8
REMARK VINA RESULT:      -8.0      3.138      7.748
REMARK  2 active torsions:
REMARK  status: ('A' for Active; 'I' for Inactive)
REMARK    1  A    between atoms: C_8  and  N_9 
REMARK       I    between atoms: N_9  and  C_10 
REMARK       I    between atoms: C_10  and  N_11 
REMARK    2  A    between atoms: N_11  and  C_12 
ROOT
HETATM    1  C   UNL     1       4.480  27.142  49.316  1.00  0.00     0.044 A 
HETATM    2  C   UNL     1       4.534  28.443  49.788  1.00  0.00     0.117 A 
HETATM    3  F   UNL     1       4.164  29.451  48.989  1.00  0.00    -0.206 F 
HETATM    4  C   UNL     1       4.993  28.717  51.070  1.00  0.00     0.067 A 
HETATM    5  C   UNL     1       5.403  27.672  51.915  1.00  0.00     0.074 A 
HETATM    6  C   UNL     1       5.998  28.050  53.165  1.00  0.00     0.102 C 
HETATM    7  N   UNL     1       6.502  28.364  54.162  1.00  0.00    -0.191 NA
HETATM    8  C   UNL     1       5.323  26.337  51.462  1.00  0.00     0.057 A 
HETATM    9  C   UNL     1       4.879  26.094  50.147  1.00  0.00     0.034 A 
ENDROOT
BRANCH   8  10
HETATM   10  N   UNL     1       5.717  25.184  52.188  1.00  0.00    -0.308 N 
HETATM   11  C   UNL     1       6.992  24.718  52.377  1.00  0.00     0.321 C 
HETATM   12  N   UNL     1       6.988  23.444  52.895  1.00  0.00    -0.336 N 
HETATM   13  O   UNL     1       8.037  25.309  52.141  1.00  0.00    -0.247 OA
HETATM   14  H   UNL     1       6.122  22.930  52.778  1.00  0.00     0.164 HD
HETATM   15  H   UNL     1       5.057  24.857  52.883  1.00  0.00     0.170 HD
BRANCH  12  16
HETATM   16  C   UNL     1       8.193  22.662  53.184  1.00  0.00     0.118 C 
HETATM   17  C   UNL     1       8.673  22.648  54.649  1.00  0.00     0.210 C 
HETATM   18  N   UNL     1       7.913  21.497  55.242  1.00  0.00    -0.065 N 
HETATM   19  C   UNL     1       8.463  23.883  55.511  1.00  0.00     0.035 C 
HETATM   20  H   UNL     1       6.908  21.787  55.287  1.00  0.00     0.280 HD
HETATM   21  C   UNL     1       8.354  21.126  56.616  1.00  0.00     0.235 C 
HETATM   22  C   UNL     1       7.964  20.422  54.199  1.00  0.00     0.237 C 
HETATM   23  C   UNL     1       8.220  22.343  57.525  1.00  0.00     0.028 C 
HETATM   24  C   UNL     1       8.892  23.595  56.953  1.00  0.00     0.004 C 
HETATM   25  C   UNL     1       8.011  21.168  52.863  1.00  0.00     0.055 C 
ENDBRANCH  12  16
ENDBRANCH   8  10
TORSDOF 2
ENDMDL
MODEL 9
REMARK VINA RESULT:      -7.9      3.312      7.705
REMARK  2 active torsions:
REMARK  status: ('A' for Active; 'I' for Inactive)
REMARK    1  A    between atoms: C_8  and  N_9 
REMARK       I    between atoms: N_9  and  C_10 
REMARK       I    between atoms: C_10  and  N_11 
REMARK    2  A    between atoms: N_11  and  C_12 
ROOT
HETATM    1  C   UNL     1       3.559  26.195  47.945  1.00  0.00     0.044 A 
HETATM    2  C   UNL     1       3.358  27.535  47.655  1.00  0.00     0.117 A 
HETATM    3  F   UNL     1       2.602  27.877  46.604  1.00  0.00    -0.206 F 
HETATM    4  C   UNL     1       3.953  28.527  48.423  1.00  0.00     0.067 A 
HETATM    5  C   UNL     1       4.764  28.185  49.519  1.00  0.00     0.074 A 
HETATM    6  C   UNL     1       5.455  29.261  50.169  1.00  0.00     0.102 C 
HETATM    7  N   UNL     1       6.032  30.134  50.673  1.00  0.00    -0.191 NA
HETATM    8  C   UNL     1       4.952  26.825  49.848  1.00  0.00     0.057 A 
HETATM    9  C   UNL     1       4.358  25.842  49.034  1.00  0.00     0.034 A 
ENDROOT
BRANCH   8  10
HETATM   10  N   UNL     1       5.755  26.326  50.906  1.00  0.00    -0.308 N 
HETATM   11  C   UNL     1       5.350  25.544  51.957  1.00  0.00     0.321 C 
HETATM   12  N   UNL     1       6.320  25.471  52.929  1.00  0.00    -0.336 N 
HETATM   13  O   UNL     1       4.281  24.960  52.075  1.00  0.00    -0.247 OA
HETATM   14  H   UNL     1       7.022  26.201  52.899  1.00  0.00     0.164 HD
HETATM   15  H   UNL     1       6.747  26.264  50.713  1.00  0.00     0.170 HD
BRANCH  12  16
HETATM   16  C   UNL     1       6.179  24.735  54.188  1.00  0.00     0.118 C 
HETATM   17  C   UNL     1       7.013  23.446  54.333  1.00  0.00     0.210 C 
HETATM   18  N   UNL     1       8.312  23.947  54.895  1.00  0.00    -0.065 N 
HETATM   19  C   UNL     1       7.295  22.602  53.100  1.00  0.00     0.035 C 
HETATM   20  H   UNL     1       8.783  24.493  54.135  1.00  0.00     0.280 HD
HETATM   21  C   UNL     1       9.238  22.865  55.334  1.00  0.00     0.235 C 
HETATM   22  C   UNL     1       7.922  24.964  55.924  1.00  0.00     0.237 C 
HETATM   23  C   UNL     1       9.520  21.944  54.152  1.00  0.00     0.028 C 
HETATM   24  C   UNL     1       8.246  21.454  53.456  1.00  0.00     0.004 C 
HETATM   25  C   UNL     1       6.614  25.569  55.406  1.00  0.00     0.055 C 
ENDBRANCH  12  16
ENDBRANCH   8  10
TORSDOF 2
ENDMDL
MODEL 10
REMARK VINA RESULT:      -7.9      8.632     10.546
REMARK  2 active torsions:
REMARK  status: ('A' for Active; 'I' for Inactive)
REMARK    1  A    between atoms: C_8  and  N_9 
REMARK       I    between atoms: N_9  and  C_10 
REMARK       I    between atoms: C_10  and  N_11 
REMARK    2  A    between atoms: N_11  and  C_12 
ROOT
HETATM    1  C   UNL     1       6.205  34.143  63.406  1.00  0.00     0.044 A 
HETATM    2  C   UNL     1       7.304  33.749  64.151  1.00  0.00     0.117 A 
HETATM    3  F   UNL     1       7.663  34.462  65.226  1.00  0.00    -0.206 F 
HETATM    4  C   UNL     1       8.054  32.640  63.783  1.00  0.00     0.067 A 
HETATM    5  C   UNL     1       7.701  31.891  62.647  1.00  0.00     0.074 A 
HETATM    6  C   UNL     1       8.609  30.852  62.254  1.00  0.00     0.102 C 
HETATM    7  N   UNL     1       9.362  30.030  61.927  1.00  0.00    -0.191 NA
HETATM    8  C   UNL     1       6.564  32.259  61.895  1.00  0.00     0.057 A 
HETATM    9  C   UNL     1       5.840  33.404  62.279  1.00  0.00     0.034 A 
ENDROOT
BRANCH   8  10
HETATM   10  N   UNL     1       6.097  31.616  60.720  1.00  0.00    -0.308 N 
HETATM   11  C   UNL     1       6.583  31.761  59.447  1.00  0.00     0.321 C 
HETATM   12  N   UNL     1       5.733  31.205  58.520  1.00  0.00    -0.336 N 
HETATM   13  O   UNL     1       7.630  32.300  59.112  1.00  0.00    -0.247 OA
HETATM   14  H   UNL     1       4.782  31.058  58.836  1.00  0.00     0.164 HD
HETATM   15  H   UNL     1       5.587  30.753  60.865  1.00  0.00     0.170 HD
BRANCH  12  16
HETATM   16  C   UNL     1       5.959  31.221  57.072  1.00  0.00     0.118 C 
HETATM   17  C   UNL     1       6.313  29.873  56.413  1.00  0.00     0.210 C 
HETATM   18  N   UNL     1       4.966  29.293  56.089  1.00  0.00    -0.065 N 
HETATM   19  C   UNL     1       7.122  28.853  57.198  1.00  0.00     0.035 C 
HETATM   20  H   UNL     1       4.516  29.040  57.000  1.00  0.00     0.280 HD
HETATM   21  C   UNL     1       5.025  28.067  55.243  1.00  0.00     0.235 C 
HETATM   22  C   UNL     1       4.165  30.444  55.561  1.00  0.00     0.237 C 
HETATM   23  C   UNL     1       5.873  27.016  55.951  1.00  0.00     0.028 C 
HETATM   24  C   UNL     1       7.237  27.549  56.401  1.00  0.00     0.004 C 
HETATM   25  C   UNL     1       4.713  31.674  56.291  1.00  0.00     0.055 C 
ENDBRANCH  12  16
ENDBRANCH   8  10
TORSDOF 2
ENDMDL
