MODEL 1
REMARK VINA RESULT:     -11.2      0.000      0.000
REMARK  4 active torsions:
REMARK  status: ('A' for Active; 'I' for Inactive)
REMARK    1  A    between atoms: C_2  and  C_5 
REMARK    2  A    between atoms: C_8  and  C_11 
REMARK    3  A    between atoms: C_17  and  C_18 
REMARK    4  A    between atoms: C_24  and  C_30 
ROOT
HETATM    1  C   UNL     1       6.925  27.982  54.382  1.00  0.00     0.091 A 
HETATM    2  N   UNL     1       8.126  28.475  54.666  1.00  0.00    -0.345 N 
HETATM    3  H   UNL     1       8.876  28.473  53.975  1.00  0.00     0.167 HD
HETATM    4  C   UNL     1       8.387  28.991  55.910  1.00  0.00     0.049 A 
HETATM    5  C   UNL     1       9.642  29.530  56.192  1.00  0.00     0.031 A 
HETATM    6  C   UNL     1       9.906  30.106  57.447  1.00  0.00     0.014 A 
HETATM    7  C   UNL     1       8.920  30.155  58.444  1.00  0.00    -0.022 A 
HETATM    8  C   UNL     1       7.667  29.598  58.174  1.00  0.00     0.031 A 
HETATM    9  C   UNL     1       7.424  29.026  56.921  1.00  0.00     0.059 A 
HETATM   10  C   UNL     1       6.127  28.443  56.604  1.00  0.00     0.259 A 
HETATM   11  O   UNL     1       5.165  28.357  57.335  1.00  0.00    -0.267 OA
HETATM   12  N   UNL     1       5.963  27.941  55.284  1.00  0.00    -0.312 N 
HETATM   13  H   UNL     1       5.048  27.542  55.121  1.00  0.00     0.170 HD
ENDROOT
BRANCH   1  14
HETATM   14  C   UNL     1       6.671  27.472  52.995  1.00  0.00     0.089 C 
HETATM   15  C   UNL     1       5.823  26.191  52.963  1.00  0.00     0.057 C 
HETATM   16  C   UNL     1       5.254  26.165  51.537  1.00  0.00     0.242 C 
HETATM   17  N   UNL     1       5.074  27.614  51.181  1.00  0.00    -0.074 N 
HETATM   18  H   UNL     1       5.357  27.771  50.198  1.00  0.00     0.277 HD
HETATM   19  H   UNL     1       4.071  27.866  51.195  1.00  0.00     0.277 HD
HETATM   20  C   UNL     1       5.873  28.457  52.132  1.00  0.00     0.245 C 
BRANCH  15  21
HETATM   21  C   UNL     1       6.598  24.946  53.319  1.00  0.00    -0.051 A 
HETATM   22  C   UNL     1       7.433  24.297  52.394  1.00  0.00     0.008 A 
HETATM   23  C   UNL     1       8.101  23.118  52.736  1.00  0.00     0.017 A 
HETATM   24  C   UNL     1       7.958  22.558  54.010  1.00  0.00     0.047 A 
HETATM   25  C   UNL     1       7.144  23.216  54.943  1.00  0.00     0.017 A 
HETATM   26  C   UNL     1       6.471  24.394  54.603  1.00  0.00     0.008 A 
BRANCH  24  27
HETATM   27  C   UNL     1       8.660  21.269  54.388  1.00  0.00     0.417 C 
HETATM   28  F   UNL     1       7.834  20.368  54.982  1.00  0.00    -0.166 F 
HETATM   29  F   UNL     1       9.688  21.476  55.249  1.00  0.00    -0.166 F 
HETATM   30  F   UNL     1       9.185  20.646  53.300  1.00  0.00    -0.166 F 
ENDBRANCH  24  27
ENDBRANCH  15  21
ENDBRANCH   1  14
BRANCH   7  31
HETATM   31  C   UNL     1       9.170  30.787  59.728  1.00  0.00     0.010 A 
HETATM   32  C   UNL     1       8.838  30.371  61.039  1.00  0.00     0.152 A 
HETATM   33  N   UNL     1       9.251  31.228  61.971  1.00  0.00    -0.187 NA
HETATM   34  N   UNL     1       9.852  32.200  61.271  1.00  0.00    -0.289 N 
HETATM   35  H   UNL     1      10.258  32.982  61.780  1.00  0.00     0.188 HD
HETATM   36  C   UNL     1       9.830  31.982  59.921  1.00  0.00     0.123 A 
ENDBRANCH   7  31
TORSDOF 4
ENDMDL
MODEL 2
REMARK VINA RESULT:     -10.4      4.572      8.595
REMARK  4 active torsions:
REMARK  status: ('A' for Active; 'I' for Inactive)
REMARK    1  A    between atoms: C_2  and  C_5 
REMARK    2  A    between atoms: C_8  and  C_11 
REMARK    3  A    between atoms: C_17  and  C_18 
REMARK    4  A    between atoms: C_24  and  C_30 
ROOT
HETATM    1  C   UNL     1       5.717  27.939  56.564  1.00  0.00     0.091 A 
HETATM    2  N   UNL     1       5.438  27.234  55.472  1.00  0.00    -0.345 N 
HETATM    3  H   UNL     1       4.802  27.590  54.759  1.00  0.00     0.167 HD
HETATM    4  C   UNL     1       5.997  25.994  55.286  1.00  0.00     0.049 A 
HETATM    5  C   UNL     1       5.720  25.272  54.125  1.00  0.00     0.031 A 
HETATM    6  C   UNL     1       6.324  24.023  53.901  1.00  0.00     0.014 A 
HETATM    7  C   UNL     1       7.218  23.472  54.832  1.00  0.00    -0.022 A 
HETATM    8  C   UNL     1       7.484  24.182  56.006  1.00  0.00     0.031 A 
HETATM    9  C   UNL     1       6.870  25.422  56.213  1.00  0.00     0.059 A 
HETATM   10  C   UNL     1       7.130  26.191  57.423  1.00  0.00     0.259 A 
HETATM   11  O   UNL     1       7.838  25.875  58.354  1.00  0.00    -0.267 OA
HETATM   12  N   UNL     1       6.504  27.464  57.511  1.00  0.00    -0.312 N 
HETATM   13  H   UNL     1       6.712  27.952  58.373  1.00  0.00     0.170 HD
ENDROOT
BRANCH   1  14
HETATM   14  C   UNL     1       5.121  29.307  56.703  1.00  0.00     0.089 C 
HETATM   15  C   UNL     1       6.152  30.437  56.565  1.00  0.00     0.057 C 
HETATM   16  C   UNL     1       5.303  31.665  56.203  1.00  0.00     0.242 C 
HETATM   17  N   UNL     1       4.166  31.106  55.395  1.00  0.00    -0.074 N 
HETATM   18  H   UNL     1       3.284  31.581  55.656  1.00  0.00     0.277 HD
HETATM   19  H   UNL     1       4.287  31.340  54.394  1.00  0.00     0.277 HD
HETATM   20  C   UNL     1       4.088  29.624  55.615  1.00  0.00     0.245 C 
BRANCH  15  21
HETATM   21  C   UNL     1       6.996  30.638  57.800  1.00  0.00    -0.051 A 
HETATM   22  C   UNL     1       8.298  30.120  57.906  1.00  0.00     0.008 A 
HETATM   23  C   UNL     1       9.039  30.280  59.080  1.00  0.00     0.017 A 
HETATM   24  C   UNL     1       8.504  30.965  60.177  1.00  0.00     0.047 A 
HETATM   25  C   UNL     1       7.215  31.504  60.065  1.00  0.00     0.017 A 
HETATM   26  C   UNL     1       6.469  31.343  58.893  1.00  0.00     0.008 A 
BRANCH  24  27
HETATM   27  C   UNL     1       9.289  31.128  61.463  1.00  0.00     0.417 C 
HETATM   28  F   UNL     1      10.288  32.043  61.364  1.00  0.00    -0.166 F 
HETATM   29  F   UNL     1       9.868  29.966  61.863  1.00  0.00    -0.166 F 
HETATM   30  F   UNL     1       8.495  31.538  62.487  1.00  0.00    -0.166 F 
ENDBRANCH  24  27
ENDBRANCH  15  21
ENDBRANCH   1  14
BRANCH   7  31
HETATM   31  C   UNL     1       7.881  22.203  54.588  1.00  0.00     0.010 A 
HETATM   32  C   UNL     1       7.971  21.423  53.411  1.00  0.00     0.152 A 
HETATM   33  N   UNL     1       8.685  20.311  53.584  1.00  0.00    -0.187 NA
HETATM   34  N   UNL     1       9.059  20.365  54.870  1.00  0.00    -0.289 N 
HETATM   35  H   UNL     1       9.628  19.607  55.239  1.00  0.00     0.188 HD
HETATM   36  C   UNL     1       8.602  21.481  55.515  1.00  0.00     0.123 A 
ENDBRANCH   7  31
TORSDOF 4
ENDMDL
MODEL 3
REMARK VINA RESULT:     -10.4      1.568      2.170
REMARK  4 active torsions:
REMARK  status: ('A' for Active; 'I' for Inactive)
REMARK    1  A    between atoms: C_2  and  C_5 
REMARK    2  A    between atoms: C_8  and  C_11 
REMARK    3  A    between atoms: C_17  and  C_18 
REMARK    4  A    between atoms: C_24  and  C_30 
ROOT
HETATM    1  C   UNL     1       6.952  27.737  53.954  1.00  0.00     0.091 A 
HETATM    2  N   UNL     1       6.044  28.098  54.854  1.00  0.00    -0.345 N 
HETATM    3  H   UNL     1       5.073  27.800  54.775  1.00  0.00     0.167 HD
HETATM    4  C   UNL     1       6.398  28.897  55.913  1.00  0.00     0.049 A 
HETATM    5  C   UNL     1       5.444  29.250  56.868  1.00  0.00     0.031 A 
HETATM    6  C   UNL     1       5.805  30.027  57.982  1.00  0.00     0.014 A 
HETATM    7  C   UNL     1       7.125  30.466  58.164  1.00  0.00    -0.022 A 
HETATM    8  C   UNL     1       8.080  30.132  57.200  1.00  0.00     0.031 A 
HETATM    9  C   UNL     1       7.702  29.361  56.096  1.00  0.00     0.059 A 
HETATM   10  C   UNL     1       8.673  28.989  55.076  1.00  0.00     0.259 A 
HETATM   11  O   UNL     1       9.844  29.296  55.035  1.00  0.00    -0.267 OA
HETATM   12  N   UNL     1       8.202  28.155  54.026  1.00  0.00    -0.312 N 
HETATM   13  H   UNL     1       8.915  27.934  53.342  1.00  0.00     0.170 HD
ENDROOT
BRANCH   1  14
HETATM   14  C   UNL     1       6.533  26.825  52.840  1.00  0.00     0.089 C 
HETATM   15  C   UNL     1       5.648  25.661  53.307  1.00  0.00     0.057 C 
HETATM   16  C   UNL     1       4.926  25.213  52.027  1.00  0.00     0.242 C 
HETATM   17  N   UNL     1       4.754  26.479  51.236  1.00  0.00    -0.074 N 
HETATM   18  H   UNL     1       4.933  26.293  50.233  1.00  0.00     0.277 HD
HETATM   19  H   UNL     1       3.766  26.786  51.259  1.00  0.00     0.277 HD
HETATM   20  C   UNL     1       5.677  27.530  51.781  1.00  0.00     0.245 C 
BRANCH  15  21
HETATM   21  C   UNL     1       6.418  24.548  53.977  1.00  0.00    -0.051 A 
HETATM   22  C   UNL     1       7.051  23.532  53.242  1.00  0.00     0.008 A 
HETATM   23  C   UNL     1       7.717  22.487  53.891  1.00  0.00     0.017 A 
HETATM   24  C   UNL     1       7.771  22.432  55.288  1.00  0.00     0.047 A 
HETATM   25  C   UNL     1       7.161  23.458  56.024  1.00  0.00     0.017 A 
HETATM   26  C   UNL     1       6.492  24.502  55.378  1.00  0.00     0.008 A 
BRANCH  24  27
HETATM   27  C   UNL     1       8.472  21.295  56.004  1.00  0.00     0.417 C 
HETATM   28  F   UNL     1       8.468  21.435  57.356  1.00  0.00    -0.166 F 
HETATM   29  F   UNL     1       9.772  21.176  55.633  1.00  0.00    -0.166 F 
HETATM   30  F   UNL     1       7.883  20.098  55.743  1.00  0.00    -0.166 F 
ENDBRANCH  24  27
ENDBRANCH  15  21
ENDBRANCH   1  14
BRANCH   7  31
HETATM   31  C   UNL     1       7.515  31.231  59.335  1.00  0.00     0.010 A 
HETATM   32  C   UNL     1       8.740  31.269  60.043  1.00  0.00     0.152 A 
HETATM   33  N   UNL     1       8.713  32.116  61.073  1.00  0.00    -0.187 NA
HETATM   34  N   UNL     1       7.476  32.630  61.035  1.00  0.00    -0.289 N 
HETATM   35  H   UNL     1       7.217  33.317  61.738  1.00  0.00     0.188 HD
HETATM   36  C   UNL     1       6.718  32.131  60.011  1.00  0.00     0.123 A 
ENDBRANCH   7  31
TORSDOF 4
ENDMDL
MODEL 4
REMARK VINA RESULT:     -10.3      4.650      8.607
REMARK  4 active torsions:
REMARK  status: ('A' for Active; 'I' for Inactive)
REMARK    1  A    between atoms: C_2  and  C_5 
REMARK    2  A    between atoms: C_8  and  C_11 
REMARK    3  A    between atoms: C_17  and  C_18 
REMARK    4  A    between atoms: C_24  and  C_30 
ROOT
HETATM    1  C   UNL     1       5.493  29.019  56.374  1.00  0.00     0.091 A 
HETATM    2  N   UNL     1       5.439  27.828  56.961  1.00  0.00    -0.345 N 
HETATM    3  H   UNL     1       4.937  27.691  57.837  1.00  0.00     0.167 HD
HETATM    4  C   UNL     1       6.074  26.749  56.398  1.00  0.00     0.049 A 
HETATM    5  C   UNL     1       5.991  25.496  57.006  1.00  0.00     0.031 A 
HETATM    6  C   UNL     1       6.596  24.375  56.414  1.00  0.00     0.014 A 
HETATM    7  C   UNL     1       7.296  24.482  55.203  1.00  0.00    -0.022 A 
HETATM    8  C   UNL     1       7.400  25.739  54.600  1.00  0.00     0.031 A 
HETATM    9  C   UNL     1       6.795  26.844  55.206  1.00  0.00     0.059 A 
HETATM   10  C   UNL     1       6.878  28.167  54.600  1.00  0.00     0.259 A 
HETATM   11  O   UNL     1       7.460  28.471  53.583  1.00  0.00    -0.267 OA
HETATM   12  N   UNL     1       6.179  29.213  55.263  1.00  0.00    -0.312 N 
HETATM   13  H   UNL     1       6.276  30.110  54.805  1.00  0.00     0.170 HD
ENDROOT
BRANCH   1  14
HETATM   14  C   UNL     1       4.746  30.159  56.998  1.00  0.00     0.089 C 
HETATM   15  C   UNL     1       5.593  31.430  57.157  1.00  0.00     0.057 C 
HETATM   16  C   UNL     1       4.551  32.551  57.283  1.00  0.00     0.242 C 
HETATM   17  N   UNL     1       3.405  32.091  56.427  1.00  0.00    -0.074 N 
HETATM   18  H   UNL     1       2.507  32.308  56.897  1.00  0.00     0.277 HD
HETATM   19  H   UNL     1       3.366  32.641  55.551  1.00  0.00     0.277 HD
HETATM   20  C   UNL     1       3.550  30.622  56.157  1.00  0.00     0.245 C 
BRANCH  15  21
HETATM   21  C   UNL     1       6.553  31.374  58.321  1.00  0.00    -0.051 A 
HETATM   22  C   UNL     1       7.622  30.463  58.362  1.00  0.00     0.008 A 
HETATM   23  C   UNL     1       8.467  30.400  59.474  1.00  0.00     0.017 A 
HETATM   24  C   UNL     1       8.271  31.247  60.571  1.00  0.00     0.047 A 
HETATM   25  C   UNL     1       7.220  32.173  60.522  1.00  0.00     0.017 A 
HETATM   26  C   UNL     1       6.370  32.236  59.413  1.00  0.00     0.008 A 
BRANCH  24  27
HETATM   27  C   UNL     1       9.166  31.175  61.791  1.00  0.00     0.417 C 
HETATM   28  F   UNL     1       8.524  31.506  62.942  1.00  0.00    -0.166 F 
HETATM   29  F   UNL     1      10.236  32.006  61.694  1.00  0.00    -0.166 F 
HETATM   30  F   UNL     1       9.663  29.924  61.977  1.00  0.00    -0.166 F 
ENDBRANCH  24  27
ENDBRANCH  15  21
ENDBRANCH   1  14
BRANCH   7  31
HETATM   31  C   UNL     1       7.887  23.321  54.562  1.00  0.00     0.010 A 
HETATM   32  C   UNL     1       7.548  22.664  53.356  1.00  0.00     0.152 A 
HETATM   33  N   UNL     1       8.341  21.625  53.094  1.00  0.00    -0.187 NA
HETATM   34  N   UNL     1       9.196  21.606  54.126  1.00  0.00    -0.289 N 
HETATM   35  H   UNL     1       9.913  20.885  54.146  1.00  0.00     0.188 HD
HETATM   36  C   UNL     1       8.965  22.602  55.034  1.00  0.00     0.123 A 
ENDBRANCH   7  31
TORSDOF 4
ENDMDL
MODEL 5
REMARK VINA RESULT:     -10.1      5.058      8.029
REMARK  4 active torsions:
REMARK  status: ('A' for Active; 'I' for Inactive)
REMARK    1  A    between atoms: C_2  and  C_5 
REMARK    2  A    between atoms: C_8  and  C_11 
REMARK    3  A    between atoms: C_17  and  C_18 
REMARK    4  A    between atoms: C_24  and  C_30 
ROOT
HETATM    1  C   UNL     1       5.608  27.619  54.347  1.00  0.00     0.091 A 
HETATM    2  N   UNL     1       6.348  27.026  53.415  1.00  0.00    -0.345 N 
HETATM    3  H   UNL     1       6.627  27.520  52.568  1.00  0.00     0.167 HD
HETATM    4  C   UNL     1       6.745  25.722  53.571  1.00  0.00     0.049 A 
HETATM    5  C   UNL     1       7.543  25.116  52.601  1.00  0.00     0.031 A 
HETATM    6  C   UNL     1       7.996  23.797  52.773  1.00  0.00     0.014 A 
HETATM    7  C   UNL     1       7.662  23.058  53.917  1.00  0.00    -0.022 A 
HETATM    8  C   UNL     1       6.846  23.653  54.884  1.00  0.00     0.031 A 
HETATM    9  C   UNL     1       6.401  24.966  54.693  1.00  0.00     0.059 A 
HETATM   10  C   UNL     1       5.556  25.619  55.683  1.00  0.00     0.259 A 
HETATM   11  O   UNL     1       5.133  25.142  56.714  1.00  0.00    -0.267 OA
HETATM   12  N   UNL     1       5.206  26.972  55.425  1.00  0.00    -0.312 N 
HETATM   13  H   UNL     1       4.613  27.374  56.140  1.00  0.00     0.170 HD
ENDROOT
BRANCH   1  14
HETATM   14  C   UNL     1       5.237  29.059  54.157  1.00  0.00     0.089 C 
HETATM   15  C   UNL     1       3.995  29.257  53.276  1.00  0.00     0.057 C 
HETATM   16  C   UNL     1       3.501  30.662  53.651  1.00  0.00     0.242 C 
HETATM   17  N   UNL     1       3.854  30.805  55.104  1.00  0.00    -0.074 N 
HETATM   18  H   UNL     1       4.207  31.761  55.287  1.00  0.00     0.277 HD
HETATM   19  H   UNL     1       3.004  30.738  55.690  1.00  0.00     0.277 HD
HETATM   20  C   UNL     1       4.866  29.758  55.470  1.00  0.00     0.245 C 
BRANCH  15  21
HETATM   21  C   UNL     1       4.270  29.095  51.800  1.00  0.00    -0.051 A 
HETATM   22  C   UNL     1       5.077  29.999  51.089  1.00  0.00     0.008 A 
HETATM   23  C   UNL     1       5.276  29.853  49.713  1.00  0.00     0.017 A 
HETATM   24  C   UNL     1       4.679  28.799  49.012  1.00  0.00     0.047 A 
HETATM   25  C   UNL     1       3.893  27.881  49.724  1.00  0.00     0.017 A 
HETATM   26  C   UNL     1       3.690  28.027  51.100  1.00  0.00     0.008 A 
BRANCH  24  27
HETATM   27  C   UNL     1       4.869  28.640  47.517  1.00  0.00     0.417 C 
HETATM   28  F   UNL     1       3.849  27.971  46.920  1.00  0.00    -0.166 F 
HETATM   29  F   UNL     1       6.005  27.961  47.212  1.00  0.00    -0.166 F 
HETATM   30  F   UNL     1       4.956  29.843  46.891  1.00  0.00    -0.166 F 
ENDBRANCH  24  27
ENDBRANCH  15  21
ENDBRANCH   1  14
BRANCH   7  31
HETATM   31  C   UNL     1       8.162  21.710  54.124  1.00  0.00     0.010 A 
HETATM   32  C   UNL     1       8.547  20.718  53.191  1.00  0.00     0.152 A 
HETATM   33  N   UNL     1       8.968  19.597  53.776  1.00  0.00    -0.187 NA
HETATM   34  N   UNL     1       8.860  19.857  55.086  1.00  0.00    -0.289 N 
HETATM   35  H   UNL     1       9.133  19.133  55.746  1.00  0.00     0.188 HD
HETATM   36  C   UNL     1       8.381  21.112  55.347  1.00  0.00     0.123 A 
ENDBRANCH   7  31
TORSDOF 4
ENDMDL
MODEL 6
REMARK VINA RESULT:     -10.1      3.123      7.556
REMARK  4 active torsions:
REMARK  status: ('A' for Active; 'I' for Inactive)
REMARK    1  A    between atoms: C_2  and  C_5 
REMARK    2  A    between atoms: C_8  and  C_11 
REMARK    3  A    between atoms: C_17  and  C_18 
REMARK    4  A    between atoms: C_24  and  C_30 
ROOT
HETATM    1  C   UNL     1       5.548  27.071  54.694  1.00  0.00     0.091 A 
HETATM    2  N   UNL     1       5.771  26.368  53.588  1.00  0.00    -0.345 N 
HETATM    3  H   UNL     1       6.370  25.543  53.597  1.00  0.00     0.167 HD
HETATM    4  C   UNL     1       5.203  26.749  52.399  1.00  0.00     0.049 A 
HETATM    5  C   UNL     1       5.421  25.991  51.248  1.00  0.00     0.031 A 
HETATM    6  C   UNL     1       4.806  26.344  50.035  1.00  0.00     0.014 A 
HETATM    7  C   UNL     1       3.960  27.460  49.947  1.00  0.00    -0.022 A 
HETATM    8  C   UNL     1       3.754  28.235  51.092  1.00  0.00     0.031 A 
HETATM    9  C   UNL     1       4.378  27.870  52.290  1.00  0.00     0.059 A 
HETATM   10  C   UNL     1       4.179  28.652  53.503  1.00  0.00     0.259 A 
HETATM   11  O   UNL     1       3.519  29.660  53.625  1.00  0.00    -0.267 OA
HETATM   12  N   UNL     1       4.810  28.165  54.681  1.00  0.00    -0.312 N 
HETATM   13  H   UNL     1       4.645  28.748  55.492  1.00  0.00     0.170 HD
ENDROOT
BRANCH   1  14
HETATM   14  C   UNL     1       6.150  26.591  55.980  1.00  0.00     0.089 C 
HETATM   15  C   UNL     1       7.588  26.075  55.825  1.00  0.00     0.057 C 
HETATM   16  C   UNL     1       8.162  26.158  57.247  1.00  0.00     0.242 C 
HETATM   17  N   UNL     1       7.479  27.350  57.856  1.00  0.00    -0.074 N 
HETATM   18  H   UNL     1       7.227  27.146  58.839  1.00  0.00     0.277 HD
HETATM   19  H   UNL     1       8.138  28.145  57.927  1.00  0.00     0.277 HD
HETATM   20  C   UNL     1       6.273  27.700  57.033  1.00  0.00     0.245 C 
BRANCH  15  21
HETATM   21  C   UNL     1       7.671  24.692  55.227  1.00  0.00    -0.051 A 
HETATM   22  C   UNL     1       7.384  23.538  55.976  1.00  0.00     0.008 A 
HETATM   23  C   UNL     1       7.517  22.266  55.411  1.00  0.00     0.017 A 
HETATM   24  C   UNL     1       7.934  22.113  54.084  1.00  0.00     0.047 A 
HETATM   25  C   UNL     1       8.197  23.263  53.327  1.00  0.00     0.017 A 
HETATM   26  C   UNL     1       8.069  24.537  53.891  1.00  0.00     0.008 A 
BRANCH  24  27
HETATM   27  C   UNL     1       8.101  20.740  53.465  1.00  0.00     0.417 C 
HETATM   28  F   UNL     1       9.183  20.653  52.648  1.00  0.00    -0.166 F 
HETATM   29  F   UNL     1       7.026  20.377  52.719  1.00  0.00    -0.166 F 
HETATM   30  F   UNL     1       8.259  19.777  54.412  1.00  0.00    -0.166 F 
ENDBRANCH  24  27
ENDBRANCH  15  21
ENDBRANCH   1  14
BRANCH   7  31
HETATM   31  C   UNL     1       3.285  27.806  48.709  1.00  0.00     0.010 A 
HETATM   32  C   UNL     1       2.284  27.118  47.983  1.00  0.00     0.152 A 
HETATM   33  N   UNL     1       1.905  27.770  46.884  1.00  0.00    -0.187 NA
HETATM   34  N   UNL     1       2.656  28.880  46.893  1.00  0.00    -0.289 N 
HETATM   35  H   UNL     1       2.538  29.548  46.136  1.00  0.00     0.188 HD
HETATM   36  C   UNL     1       3.500  28.948  47.967  1.00  0.00     0.123 A 
ENDBRANCH   7  31
TORSDOF 4
ENDMDL
MODEL 7
REMARK VINA RESULT:     -10.0      4.541      8.307
REMARK  4 active torsions:
REMARK  status: ('A' for Active; 'I' for Inactive)
REMARK    1  A    between atoms: C_2  and  C_5 
REMARK    2  A    between atoms: C_8  and  C_11 
REMARK    3  A    between atoms: C_17  and  C_18 
REMARK    4  A    between atoms: C_24  and  C_30 
ROOT
HETATM    1  C   UNL     1       4.822  27.318  55.042  1.00  0.00     0.091 A 
HETATM    2  N   UNL     1       5.230  26.721  53.927  1.00  0.00    -0.345 N 
HETATM    3  H   UNL     1       5.086  27.150  53.014  1.00  0.00     0.167 HD
HETATM    4  C   UNL     1       5.849  25.497  53.983  1.00  0.00     0.049 A 
HETATM    5  C   UNL     1       6.297  24.889  52.810  1.00  0.00     0.031 A 
HETATM    6  C   UNL     1       6.975  23.660  52.859  1.00  0.00     0.014 A 
HETATM    7  C   UNL     1       7.220  23.013  54.080  1.00  0.00    -0.022 A 
HETATM    8  C   UNL     1       6.755  23.608  55.256  1.00  0.00     0.031 A 
HETATM    9  C   UNL     1       6.079  24.831  55.188  1.00  0.00     0.059 A 
HETATM   10  C   UNL     1       5.587  25.481  56.395  1.00  0.00     0.259 A 
HETATM   11  O   UNL     1       5.667  25.071  57.532  1.00  0.00    -0.267 OA
HETATM   12  N   UNL     1       4.965  26.748  56.224  1.00  0.00    -0.312 N 
HETATM   13  H   UNL     1       4.637  27.151  57.092  1.00  0.00     0.170 HD
ENDROOT
BRANCH   1  14
HETATM   14  C   UNL     1       4.193  28.675  54.939  1.00  0.00     0.089 C 
HETATM   15  C   UNL     1       5.214  29.807  54.752  1.00  0.00     0.057 C 
HETATM   16  C   UNL     1       4.386  30.951  54.149  1.00  0.00     0.242 C 
HETATM   17  N   UNL     1       3.345  30.258  53.315  1.00  0.00    -0.074 N 
HETATM   18  H   UNL     1       2.433  30.736  53.423  1.00  0.00     0.277 HD
HETATM   19  H   UNL     1       3.563  30.361  52.309  1.00  0.00     0.277 HD
HETATM   20  C   UNL     1       3.269  28.815  53.723  1.00  0.00     0.245 C 
BRANCH  15  21
HETATM   21  C   UNL     1       5.926  30.193  56.026  1.00  0.00    -0.051 A 
HETATM   22  C   UNL     1       7.138  29.598  56.412  1.00  0.00     0.008 A 
HETATM   23  C   UNL     1       7.752  29.940  57.621  1.00  0.00     0.017 A 
HETATM   24  C   UNL     1       7.174  30.888  58.473  1.00  0.00     0.047 A 
HETATM   25  C   UNL     1       5.977  31.501  58.079  1.00  0.00     0.017 A 
HETATM   26  C   UNL     1       5.359  31.159  56.872  1.00  0.00     0.008 A 
BRANCH  24  27
HETATM   27  C   UNL     1       7.817  31.253  59.796  1.00  0.00     0.417 C 
HETATM   28  F   UNL     1       6.911  31.559  60.762  1.00  0.00    -0.166 F 
HETATM   29  F   UNL     1       8.642  32.326  59.689  1.00  0.00    -0.166 F 
HETATM   30  F   UNL     1       8.569  30.233  60.288  1.00  0.00    -0.166 F 
ENDBRANCH  24  27
ENDBRANCH  15  21
ENDBRANCH   1  14
BRANCH   7  31
HETATM   31  C   UNL     1       7.959  21.765  54.144  1.00  0.00     0.010 A 
HETATM   32  C   UNL     1       8.318  20.855  53.121  1.00  0.00     0.152 A 
HETATM   33  N   UNL     1       9.014  19.815  53.579  1.00  0.00    -0.187 NA
HETATM   34  N   UNL     1       9.110  20.046  54.896  1.00  0.00    -0.289 N 
HETATM   35  H   UNL     1       9.612  19.373  55.469  1.00  0.00     0.188 HD
HETATM   36  C   UNL     1       8.493  21.203  55.284  1.00  0.00     0.123 A 
ENDBRANCH   7  31
TORSDOF 4
ENDMDL
MODEL 8
REMARK VINA RESULT:     -10.0      4.494      8.195
REMARK  4 active torsions:
REMARK  status: ('A' for Active; 'I' for Inactive)
REMARK    1  A    between atoms: C_2  and  C_5 
REMARK    2  A    between atoms: C_8  and  C_11 
REMARK    3  A    between atoms: C_17  and  C_18 
REMARK    4  A    between atoms: C_24  and  C_30 
ROOT
HETATM    1  C   UNL     1       4.911  27.283  54.072  1.00  0.00     0.091 A 
HETATM    2  N   UNL     1       5.274  26.593  55.149  1.00  0.00    -0.345 N 
HETATM    3  H   UNL     1       5.047  26.917  56.087  1.00  0.00     0.167 HD
HETATM    4  C   UNL     1       5.980  25.423  55.016  1.00  0.00     0.049 A 
HETATM    5  C   UNL     1       6.335  24.691  56.149  1.00  0.00     0.031 A 
HETATM    6  C   UNL     1       7.015  23.468  56.023  1.00  0.00     0.014 A 
HETATM    7  C   UNL     1       7.354  22.951  54.763  1.00  0.00    -0.022 A 
HETATM    8  C   UNL     1       7.018  23.690  53.625  1.00  0.00     0.031 A 
HETATM    9  C   UNL     1       6.345  24.908  53.770  1.00  0.00     0.059 A 
HETATM   10  C   UNL     1       5.974  25.700  52.605  1.00  0.00     0.259 A 
HETATM   11  O   UNL     1       6.205  25.446  51.443  1.00  0.00    -0.267 OA
HETATM   12  N   UNL     1       5.241  26.892  52.856  1.00  0.00    -0.312 N 
HETATM   13  H   UNL     1       5.016  27.406  52.014  1.00  0.00     0.170 HD
ENDROOT
BRANCH   1  14
HETATM   14  C   UNL     1       4.101  28.530  54.262  1.00  0.00     0.089 C 
HETATM   15  C   UNL     1       4.948  29.810  54.280  1.00  0.00     0.057 C 
HETATM   16  C   UNL     1       3.941  30.920  53.943  1.00  0.00     0.242 C 
HETATM   17  N   UNL     1       2.959  30.262  53.015  1.00  0.00    -0.074 N 
HETATM   18  H   UNL     1       1.998  30.574  53.243  1.00  0.00     0.277 HD
HETATM   19  H   UNL     1       3.104  30.591  52.045  1.00  0.00     0.277 HD
HETATM   20  C   UNL     1       3.101  28.772  53.125  1.00  0.00     0.245 C 
BRANCH  15  21
HETATM   21  C   UNL     1       5.671  30.037  55.586  1.00  0.00    -0.051 A 
HETATM   22  C   UNL     1       5.107  30.793  56.628  1.00  0.00     0.008 A 
HETATM   23  C   UNL     1       5.819  31.028  57.808  1.00  0.00     0.017 A 
HETATM   24  C   UNL     1       7.108  30.511  57.981  1.00  0.00     0.047 A 
HETATM   25  C   UNL     1       7.663  29.737  56.953  1.00  0.00     0.017 A 
HETATM   26  C   UNL     1       6.955  29.503  55.770  1.00  0.00     0.008 A 
BRANCH  24  27
HETATM   27  C   UNL     1       7.899  30.775  59.247  1.00  0.00     0.417 C 
HETATM   28  F   UNL     1       8.861  31.722  59.085  1.00  0.00    -0.166 F 
HETATM   29  F   UNL     1       8.528  29.662  59.702  1.00  0.00    -0.166 F 
HETATM   30  F   UNL     1       7.100  31.211  60.257  1.00  0.00    -0.166 F 
ENDBRANCH  24  27
ENDBRANCH  15  21
ENDBRANCH   1  14
BRANCH   7  31
HETATM   31  C   UNL     1       8.017  21.667  54.622  1.00  0.00     0.010 A 
HETATM   32  C   UNL     1       8.240  20.868  53.476  1.00  0.00     0.152 A 
HETATM   33  N   UNL     1       8.904  19.745  53.753  1.00  0.00    -0.187 NA
HETATM   34  N   UNL     1       9.113  19.813  55.075  1.00  0.00    -0.289 N 
HETATM   35  H   UNL     1       9.615  19.051  55.524  1.00  0.00     0.188 HD
HETATM   36  C   UNL     1       8.600  20.947  55.643  1.00  0.00     0.123 A 
ENDBRANCH   7  31
TORSDOF 4
ENDMDL
MODEL 9
REMARK VINA RESULT:      -9.5      3.404      7.270
REMARK  4 active torsions:
REMARK  status: ('A' for Active; 'I' for Inactive)
REMARK    1  A    between atoms: C_2  and  C_5 
REMARK    2  A    between atoms: C_8  and  C_11 
REMARK    3  A    between atoms: C_17  and  C_18 
REMARK    4  A    between atoms: C_24  and  C_30 
ROOT
HETATM    1  C   UNL     1       5.446  26.928  54.198  1.00  0.00     0.091 A 
HETATM    2  N   UNL     1       5.135  28.202  53.983  1.00  0.00    -0.345 N 
HETATM    3  H   UNL     1       5.180  28.892  54.732  1.00  0.00     0.167 HD
HETATM    4  C   UNL     1       4.730  28.615  52.738  1.00  0.00     0.049 A 
HETATM    5  C   UNL     1       4.429  29.959  52.515  1.00  0.00     0.031 A 
HETATM    6  C   UNL     1       4.061  30.403  51.233  1.00  0.00     0.014 A 
HETATM    7  C   UNL     1       3.987  29.514  50.150  1.00  0.00    -0.022 A 
HETATM    8  C   UNL     1       4.267  28.163  50.373  1.00  0.00     0.031 A 
HETATM    9  C   UNL     1       4.628  27.739  51.656  1.00  0.00     0.059 A 
HETATM   10  C   UNL     1       4.934  26.339  51.922  1.00  0.00     0.259 A 
HETATM   11  O   UNL     1       4.894  25.419  51.136  1.00  0.00    -0.267 OA
HETATM   12  N   UNL     1       5.347  26.021  53.245  1.00  0.00    -0.312 N 
HETATM   13  H   UNL     1       5.540  25.036  53.376  1.00  0.00     0.170 HD
ENDROOT
BRANCH   1  14
HETATM   14  C   UNL     1       5.929  26.529  55.561  1.00  0.00     0.089 C 
HETATM   15  C   UNL     1       7.406  26.113  55.586  1.00  0.00     0.057 C 
HETATM   16  C   UNL     1       7.807  26.276  57.060  1.00  0.00     0.242 C 
HETATM   17  N   UNL     1       6.981  27.434  57.544  1.00  0.00    -0.074 N 
HETATM   18  H   UNL     1       6.633  27.241  58.500  1.00  0.00     0.277 HD
HETATM   19  H   UNL     1       7.572  28.275  57.660  1.00  0.00     0.277 HD
HETATM   20  C   UNL     1       5.856  27.673  56.579  1.00  0.00     0.245 C 
BRANCH  15  21
HETATM   21  C   UNL     1       7.651  24.722  55.053  1.00  0.00    -0.051 A 
HETATM   22  C   UNL     1       8.058  24.493  53.727  1.00  0.00     0.008 A 
HETATM   23  C   UNL     1       8.231  23.192  53.245  1.00  0.00     0.017 A 
HETATM   24  C   UNL     1       8.007  22.087  54.074  1.00  0.00     0.047 A 
HETATM   25  C   UNL     1       7.624  22.313  55.403  1.00  0.00     0.017 A 
HETATM   26  C   UNL     1       7.447  23.613  55.888  1.00  0.00     0.008 A 
BRANCH  24  27
HETATM   27  C   UNL     1       8.170  20.671  53.559  1.00  0.00     0.417 C 
HETATM   28  F   UNL     1       8.255  19.750  54.554  1.00  0.00    -0.166 F 
HETATM   29  F   UNL     1       9.288  20.524  52.802  1.00  0.00    -0.166 F 
HETATM   30  F   UNL     1       7.122  20.296  52.779  1.00  0.00    -0.166 F 
ENDBRANCH  24  27
ENDBRANCH  15  21
ENDBRANCH   1  14
BRANCH   7  31
HETATM   31  C   UNL     1       3.650  29.972  48.814  1.00  0.00     0.010 A 
HETATM   32  C   UNL     1       3.462  29.247  47.613  1.00  0.00     0.152 A 
HETATM   33  N   UNL     1       3.149  30.032  46.582  1.00  0.00    -0.187 NA
HETATM   34  N   UNL     1       3.131  31.264  47.109  1.00  0.00    -0.289 N 
HETATM   35  H   UNL     1       2.908  32.047  46.500  1.00  0.00     0.188 HD
HETATM   36  C   UNL     1       3.425  31.281  48.445  1.00  0.00     0.123 A 
ENDBRANCH   7  31
TORSDOF 4
ENDMDL
MODEL 10
REMARK VINA RESULT:      -9.0      4.661      6.690
REMARK  4 active torsions:
REMARK  status: ('A' for Active; 'I' for Inactive)
REMARK    1  A    between atoms: C_2  and  C_5 
REMARK    2  A    between atoms: C_8  and  C_11 
REMARK    3  A    between atoms: C_17  and  C_18 
REMARK    4  A    between atoms: C_24  and  C_30 
ROOT
HETATM    1  C   UNL     1       8.045  30.980  59.468  1.00  0.00     0.091 A 
HETATM    2  N   UNL     1       7.147  31.665  58.766  1.00  0.00    -0.345 N 
HETATM    3  H   UNL     1       7.240  31.781  57.758  1.00  0.00     0.167 HD
HETATM    4  C   UNL     1       6.073  32.244  59.394  1.00  0.00     0.049 A 
HETATM    5  C   UNL     1       5.122  32.939  58.647  1.00  0.00     0.031 A 
HETATM    6  C   UNL     1       3.992  33.496  59.271  1.00  0.00     0.014 A 
HETATM    7  C   UNL     1       3.791  33.368  60.653  1.00  0.00    -0.022 A 
HETATM    8  C   UNL     1       4.751  32.691  61.410  1.00  0.00     0.031 A 
HETATM    9  C   UNL     1       5.870  32.147  60.772  1.00  0.00     0.059 A 
HETATM   10  C   UNL     1       6.887  31.429  61.529  1.00  0.00     0.259 A 
HETATM   11  O   UNL     1       6.912  31.242  62.726  1.00  0.00    -0.267 OA
HETATM   12  N   UNL     1       7.954  30.863  60.780  1.00  0.00    -0.312 N 
HETATM   13  H   UNL     1       8.634  30.383  61.355  1.00  0.00     0.170 HD
ENDROOT
BRANCH   1  14
HETATM   14  C   UNL     1       9.176  30.324  58.736  1.00  0.00     0.089 C 
HETATM   15  C   UNL     1       8.847  29.997  57.273  1.00  0.00     0.057 C 
HETATM   16  C   UNL     1      10.225  29.859  56.609  1.00  0.00     0.242 C 
HETATM   17  N   UNL     1      11.094  30.835  57.351  1.00  0.00    -0.074 N 
HETATM   18  H   UNL     1      12.029  30.419  57.514  1.00  0.00     0.277 HD
HETATM   19  H   UNL     1      11.290  31.663  56.762  1.00  0.00     0.277 HD
HETATM   20  C   UNL     1      10.422  31.213  58.639  1.00  0.00     0.245 C 
BRANCH  15  21
HETATM   21  C   UNL     1       7.981  28.771  57.108  1.00  0.00    -0.051 A 
HETATM   22  C   UNL     1       6.585  28.858  56.971  1.00  0.00     0.008 A 
HETATM   23  C   UNL     1       5.802  27.704  56.869  1.00  0.00     0.017 A 
HETATM   24  C   UNL     1       6.391  26.435  56.895  1.00  0.00     0.047 A 
HETATM   25  C   UNL     1       7.786  26.346  57.007  1.00  0.00     0.017 A 
HETATM   26  C   UNL     1       8.572  27.498  57.113  1.00  0.00     0.008 A 
BRANCH  24  27
HETATM   27  C   UNL     1       5.553  25.176  56.806  1.00  0.00     0.417 C 
HETATM   28  F   UNL     1       4.995  24.994  55.580  1.00  0.00    -0.166 F 
HETATM   29  F   UNL     1       4.530  25.174  57.699  1.00  0.00    -0.166 F 
HETATM   30  F   UNL     1       6.290  24.062  57.058  1.00  0.00    -0.166 F 
ENDBRANCH  24  27
ENDBRANCH  15  21
ENDBRANCH   1  14
BRANCH   7  31
HETATM   31  C   UNL     1       2.605  33.902  61.300  1.00  0.00     0.010 A 
HETATM   32  C   UNL     1       1.438  34.481  60.748  1.00  0.00     0.152 A 
HETATM   33  N   UNL     1       0.555  34.846  61.677  1.00  0.00    -0.187 NA
HETATM   34  N   UNL     1       1.144  34.504  62.832  1.00  0.00    -0.289 N 
HETATM   35  H   UNL     1       0.647  34.688  63.700  1.00  0.00     0.188 HD
HETATM   36  C   UNL     1       2.375  33.934  62.659  1.00  0.00     0.123 A 
ENDBRANCH   7  31
TORSDOF 4
ENDMDL
