MODEL 1
REMARK VINA RESULT:      -9.8      0.000      0.000
REMARK  8 active torsions:
REMARK  status: ('A' for Active; 'I' for Inactive)
REMARK    1  A    between atoms: C_3  and  O_4 
REMARK    2  A    between atoms: C_11  and  C_12 
REMARK    3  A    between atoms: C_12  and  C_13 
REMARK    4  A    between atoms: C_13  and  S_14 
REMARK    5  A    between atoms: S_14  and  C_15 
REMARK    6  A    between atoms: N_16  and  C_17 
REMARK    7  A    between atoms: C_18  and  O_19 
REMARK    8  A    between atoms: C_25  and  N_26 
ROOT
HETATM    1  C   UNL     1       8.228  26.164  56.613  1.00  0.00     0.197 A 
HETATM    2  N   UNL     1       7.862  25.153  55.741  1.00  0.00    -0.259 N 
HETATM    3  C   UNL     1       8.408  23.999  56.323  1.00  0.00     0.211 A 
HETATM    4  N   UNL     1       9.019  24.336  57.446  1.00  0.00    -0.116 NA
HETATM    5  N   UNL     1       8.886  25.679  57.640  1.00  0.00    -0.121 NA
ENDROOT
BRANCH   1   6
HETATM    6  S   UNL     1       8.041  27.867  56.310  1.00  0.00    -0.082 SA
BRANCH   6   7
HETATM    7  C   UNL     1       7.686  28.423  58.002  1.00  0.00     0.166 C 
BRANCH   7   8
HETATM    8  C   UNL     1       8.328  29.760  58.321  1.00  0.00     0.169 C 
HETATM    9  O   UNL     1       9.506  30.028  58.091  1.00  0.00    -0.291 OA
BRANCH   8  10
HETATM   10  C   UNL     1       7.475  30.796  58.987  1.00  0.00     0.011 A 
HETATM   11  C   UNL     1       6.380  31.384  58.343  1.00  0.00     0.017 A 
HETATM   12  C   UNL     1       5.619  32.378  58.968  1.00  0.00     0.031 A 
HETATM   13  C   UNL     1       5.985  32.755  60.263  1.00  0.00     0.045 A 
HETATM   14  N   UNL     1       5.435  33.694  61.102  1.00  0.00    -0.336 N 
HETATM   15  C   UNL     1       7.052  32.179  60.949  1.00  0.00     0.002 A 
HETATM   16  C   UNL     1       6.105  33.728  62.291  1.00  0.00     0.147 A 
HETATM   17  H   UNL     1       4.644  34.283  60.884  1.00  0.00     0.168 HD
HETATM   18  C   UNL     1       7.123  32.795  62.242  1.00  0.00     0.001 A 
HETATM   19  C   UNL     1       8.108  32.467  63.306  1.00  0.00     0.054 C 
HETATM   20  C   UNL     1       7.805  31.179  60.299  1.00  0.00     0.029 A 
BRANCH  16  21
HETATM   21  O   UNL     1       5.708  34.578  63.228  1.00  0.00    -0.346 OA
HETATM   22  H   UNL     1       6.499  34.864  63.718  1.00  0.00     0.219 HD
ENDBRANCH  16  21
ENDBRANCH   8  10
ENDBRANCH   7   8
ENDBRANCH   6   7
ENDBRANCH   1   6
BRANCH   2  23
HETATM   23  C   UNL     1       7.090  25.275  54.554  1.00  0.00     0.077 A 
HETATM   24  C   UNL     1       5.691  25.386  54.600  1.00  0.00     0.095 A 
HETATM   25  C   UNL     1       4.994  25.562  53.400  1.00  0.00     0.039 A 
HETATM   26  C   UNL     1       5.672  25.618  52.178  1.00  0.00     0.003 A 
HETATM   27  C   UNL     1       7.056  25.488  52.138  1.00  0.00     0.002 A 
HETATM   28  C   UNL     1       7.768  25.313  53.322  1.00  0.00     0.033 A 
BRANCH  24  29
HETATM   29  O   UNL     1       5.086  25.220  55.816  1.00  0.00    -0.354 OA
HETATM   30  C   UNL     1       4.729  26.387  56.541  1.00  0.00     0.210 C 
ENDBRANCH  24  29
ENDBRANCH   2  23
BRANCH   3  31
HETATM   31  N   UNL     1       8.309  22.725  55.817  1.00  0.00    -0.251 NA
HETATM   32  C   UNL     1       8.232  21.620  56.784  1.00  0.00     0.098 C 
HETATM   33  C   UNL     1       7.760  20.351  56.074  1.00  0.00     0.015 C 
HETATM   34  C   UNL     1       8.663  20.008  54.892  1.00  0.00     0.002 C 
HETATM   35  C   UNL     1       8.795  21.200  53.950  1.00  0.00     0.015 C 
HETATM   36  C   UNL     1       9.238  22.453  54.705  1.00  0.00     0.098 C 
ENDBRANCH   3  31
TORSDOF 8
ENDMDL
MODEL 2
REMARK VINA RESULT:      -9.6      6.009     10.474
REMARK  8 active torsions:
REMARK  status: ('A' for Active; 'I' for Inactive)
REMARK    1  A    between atoms: C_3  and  O_4 
REMARK    2  A    between atoms: C_11  and  C_12 
REMARK    3  A    between atoms: C_12  and  C_13 
REMARK    4  A    between atoms: C_13  and  S_14 
REMARK    5  A    between atoms: S_14  and  C_15 
REMARK    6  A    between atoms: N_16  and  C_17 
REMARK    7  A    between atoms: C_18  and  O_19 
REMARK    8  A    between atoms: C_25  and  N_26 
ROOT
HETATM    1  C   UNL     1       5.292  28.081  50.983  1.00  0.00     0.197 A 
HETATM    2  N   UNL     1       4.645  28.451  49.816  1.00  0.00    -0.259 N 
HETATM    3  C   UNL     1       5.112  29.752  49.575  1.00  0.00     0.211 A 
HETATM    4  N   UNL     1       5.971  30.079  50.526  1.00  0.00    -0.116 NA
HETATM    5  N   UNL     1       6.102  29.031  51.388  1.00  0.00    -0.121 NA
ENDROOT
BRANCH   1   6
HETATM    6  S   UNL     1       4.942  26.654  51.915  1.00  0.00    -0.082 SA
BRANCH   6   7
HETATM    7  C   UNL     1       6.590  25.890  51.901  1.00  0.00     0.166 C 
BRANCH   7   8
HETATM    8  C   UNL     1       7.338  26.097  53.203  1.00  0.00     0.169 C 
HETATM    9  O   UNL     1       7.781  27.183  53.575  1.00  0.00    -0.291 OA
BRANCH   8  10
HETATM   10  C   UNL     1       7.575  24.895  54.064  1.00  0.00     0.011 A 
HETATM   11  C   UNL     1       7.612  24.976  55.462  1.00  0.00     0.017 A 
HETATM   12  C   UNL     1       7.873  23.847  56.247  1.00  0.00     0.031 A 
HETATM   13  C   UNL     1       8.084  22.634  55.587  1.00  0.00     0.045 A 
HETATM   14  N   UNL     1       8.365  21.387  56.092  1.00  0.00    -0.336 N 
HETATM   15  C   UNL     1       8.033  22.505  54.201  1.00  0.00     0.002 A 
HETATM   16  C   UNL     1       8.485  20.475  55.082  1.00  0.00     0.147 A 
HETATM   17  H   UNL     1       8.470  21.161  57.070  1.00  0.00     0.168 HD
HETATM   18  C   UNL     1       8.282  21.129  53.882  1.00  0.00     0.001 A 
HETATM   19  C   UNL     1       8.303  20.545  52.515  1.00  0.00     0.054 C 
HETATM   20  C   UNL     1       7.769  23.656  53.429  1.00  0.00     0.029 A 
BRANCH  16  21
HETATM   21  O   UNL     1       8.753  19.212  55.386  1.00  0.00    -0.346 OA
HETATM   22  H   UNL     1       9.583  18.975  54.938  1.00  0.00     0.219 HD
ENDBRANCH  16  21
ENDBRANCH   8  10
ENDBRANCH   7   8
ENDBRANCH   6   7
ENDBRANCH   1   6
BRANCH   2  23
HETATM   23  C   UNL     1       3.742  27.670  49.045  1.00  0.00     0.077 A 
HETATM   24  C   UNL     1       2.366  27.949  49.027  1.00  0.00     0.095 A 
HETATM   25  C   UNL     1       1.538  27.179  48.202  1.00  0.00     0.039 A 
HETATM   26  C   UNL     1       2.065  26.148  47.418  1.00  0.00     0.003 A 
HETATM   27  C   UNL     1       3.426  25.864  47.456  1.00  0.00     0.002 A 
HETATM   28  C   UNL     1       4.267  26.620  48.270  1.00  0.00     0.033 A 
BRANCH  24  29
HETATM   29  O   UNL     1       1.905  28.902  49.894  1.00  0.00    -0.354 OA
HETATM   30  C   UNL     1       1.267  30.043  49.342  1.00  0.00     0.210 C 
ENDBRANCH  24  29
ENDBRANCH   2  23
BRANCH   3  31
HETATM   31  N   UNL     1       4.750  30.548  48.516  1.00  0.00    -0.251 NA
HETATM   32  C   UNL     1       4.876  29.974  47.168  1.00  0.00     0.098 C 
HETATM   33  C   UNL     1       4.099  30.834  46.171  1.00  0.00     0.015 C 
HETATM   34  C   UNL     1       4.561  32.288  46.214  1.00  0.00     0.002 C 
HETATM   35  C   UNL     1       4.503  32.831  47.637  1.00  0.00     0.015 C 
HETATM   36  C   UNL     1       5.265  31.927  48.604  1.00  0.00     0.098 C 
ENDBRANCH   3  31
TORSDOF 8
ENDMDL
MODEL 3
REMARK VINA RESULT:      -9.4      2.623      4.800
REMARK  8 active torsions:
REMARK  status: ('A' for Active; 'I' for Inactive)
REMARK    1  A    between atoms: C_3  and  O_4 
REMARK    2  A    between atoms: C_11  and  C_12 
REMARK    3  A    between atoms: C_12  and  C_13 
REMARK    4  A    between atoms: C_13  and  S_14 
REMARK    5  A    between atoms: S_14  and  C_15 
REMARK    6  A    between atoms: N_16  and  C_17 
REMARK    7  A    between atoms: C_18  and  O_19 
REMARK    8  A    between atoms: C_25  and  N_26 
ROOT
HETATM    1  C   UNL     1       5.658  29.619  56.837  1.00  0.00     0.197 A 
HETATM    2  N   UNL     1       6.770  28.797  56.752  1.00  0.00    -0.259 N 
HETATM    3  C   UNL     1       6.224  27.511  56.630  1.00  0.00     0.211 A 
HETATM    4  N   UNL     1       4.905  27.607  56.626  1.00  0.00    -0.116 NA
HETATM    5  N   UNL     1       4.553  28.919  56.730  1.00  0.00    -0.121 NA
ENDROOT
BRANCH   1   6
HETATM    6  S   UNL     1       5.690  31.311  57.238  1.00  0.00    -0.082 SA
BRANCH   6   7
HETATM    7  C   UNL     1       4.467  31.310  58.582  1.00  0.00     0.166 C 
BRANCH   7   8
HETATM    8  C   UNL     1       4.152  32.706  59.083  1.00  0.00     0.169 C 
HETATM    9  O   UNL     1       3.888  33.656  58.347  1.00  0.00    -0.291 OA
BRANCH   8  10
HETATM   10  C   UNL     1       4.202  32.939  60.562  1.00  0.00     0.011 A 
HETATM   11  C   UNL     1       3.068  33.310  61.295  1.00  0.00     0.017 A 
HETATM   12  C   UNL     1       3.144  33.560  62.670  1.00  0.00     0.031 A 
HETATM   13  C   UNL     1       4.390  33.416  63.287  1.00  0.00     0.045 A 
HETATM   14  N   UNL     1       4.756  33.602  64.598  1.00  0.00    -0.336 N 
HETATM   15  C   UNL     1       5.536  33.026  62.599  1.00  0.00     0.002 A 
HETATM   16  C   UNL     1       6.086  33.338  64.767  1.00  0.00     0.147 A 
HETATM   17  H   UNL     1       4.140  33.892  65.343  1.00  0.00     0.168 HD
HETATM   18  C   UNL     1       6.614  32.972  63.544  1.00  0.00     0.001 A 
HETATM   19  C   UNL     1       8.016  32.583  63.240  1.00  0.00     0.054 C 
HETATM   20  C   UNL     1       5.437  32.780  61.213  1.00  0.00     0.029 A 
BRANCH  16  21
HETATM   21  O   UNL     1       6.616  33.462  65.976  1.00  0.00    -0.346 OA
HETATM   22  H   UNL     1       5.929  33.830  66.560  1.00  0.00     0.219 HD
ENDBRANCH  16  21
ENDBRANCH   8  10
ENDBRANCH   7   8
ENDBRANCH   6   7
ENDBRANCH   1   6
BRANCH   2  23
HETATM   23  C   UNL     1       8.135  29.190  56.764  1.00  0.00     0.077 A 
HETATM   24  C   UNL     1       8.801  29.483  57.965  1.00  0.00     0.095 A 
HETATM   25  C   UNL     1      10.162  29.808  57.914  1.00  0.00     0.039 A 
HETATM   26  C   UNL     1      10.844  29.848  56.694  1.00  0.00     0.003 A 
HETATM   27  C   UNL     1      10.174  29.576  55.506  1.00  0.00     0.002 A 
HETATM   28  C   UNL     1       8.820  29.250  55.536  1.00  0.00     0.033 A 
BRANCH  24  29
HETATM   29  O   UNL     1       8.050  29.524  59.107  1.00  0.00    -0.354 OA
HETATM   30  C   UNL     1       8.298  30.581  60.023  1.00  0.00     0.210 C 
ENDBRANCH  24  29
ENDBRANCH   2  23
BRANCH   3  31
HETATM   31  N   UNL     1       6.942  26.346  56.513  1.00  0.00    -0.251 NA
HETATM   32  C   UNL     1       6.344  25.262  55.719  1.00  0.00     0.098 C 
HETATM   33  C   UNL     1       7.412  24.218  55.393  1.00  0.00     0.015 C 
HETATM   34  C   UNL     1       8.078  23.690  56.662  1.00  0.00     0.002 C 
HETATM   35  C   UNL     1       8.611  24.840  57.509  1.00  0.00     0.015 C 
HETATM   36  C   UNL     1       7.522  25.875  57.785  1.00  0.00     0.098 C 
ENDBRANCH   3  31
TORSDOF 8
ENDMDL
MODEL 4
REMARK VINA RESULT:      -9.4      3.228      9.689
REMARK  8 active torsions:
REMARK  status: ('A' for Active; 'I' for Inactive)
REMARK    1  A    between atoms: C_3  and  O_4 
REMARK    2  A    between atoms: C_11  and  C_12 
REMARK    3  A    between atoms: C_12  and  C_13 
REMARK    4  A    between atoms: C_13  and  S_14 
REMARK    5  A    between atoms: S_14  and  C_15 
REMARK    6  A    between atoms: N_16  and  C_17 
REMARK    7  A    between atoms: C_18  and  O_19 
REMARK    8  A    between atoms: C_25  and  N_26 
ROOT
HETATM    1  C   UNL     1       5.117  29.187  53.887  1.00  0.00     0.197 A 
HETATM    2  N   UNL     1       5.468  29.462  55.198  1.00  0.00    -0.259 N 
HETATM    3  C   UNL     1       4.534  30.431  55.595  1.00  0.00     0.211 A 
HETATM    4  N   UNL     1       3.711  30.667  54.589  1.00  0.00    -0.116 NA
HETATM    5  N   UNL     1       4.057  29.876  53.534  1.00  0.00    -0.121 NA
ENDROOT
BRANCH   1   6
HETATM    6  S   UNL     1       6.055  28.231  52.776  1.00  0.00    -0.082 SA
BRANCH   6   7
HETATM    7  C   UNL     1       5.252  26.622  53.033  1.00  0.00     0.166 C 
BRANCH   7   8
HETATM    8  C   UNL     1       6.089  25.466  52.523  1.00  0.00     0.169 C 
HETATM    9  O   UNL     1       6.340  25.273  51.334  1.00  0.00    -0.291 OA
BRANCH   8  10
HETATM   10  C   UNL     1       6.609  24.489  53.532  1.00  0.00     0.011 A 
HETATM   11  C   UNL     1       6.591  24.759  54.906  1.00  0.00     0.017 A 
HETATM   12  C   UNL     1       7.117  23.849  55.831  1.00  0.00     0.031 A 
HETATM   13  C   UNL     1       7.651  22.656  55.334  1.00  0.00     0.045 A 
HETATM   14  N   UNL     1       8.233  21.602  55.996  1.00  0.00    -0.336 N 
HETATM   15  C   UNL     1       7.667  22.339  53.978  1.00  0.00     0.002 A 
HETATM   16  C   UNL     1       8.608  20.630  55.114  1.00  0.00     0.147 A 
HETATM   17  H   UNL     1       8.370  21.541  56.994  1.00  0.00     0.168 HD
HETATM   18  C   UNL     1       8.272  21.046  53.840  1.00  0.00     0.001 A 
HETATM   19  C   UNL     1       8.475  20.315  52.562  1.00  0.00     0.054 C 
HETATM   20  C   UNL     1       7.132  23.271  53.064  1.00  0.00     0.029 A 
BRANCH  16  21
HETATM   21  O   UNL     1       9.187  19.531  55.578  1.00  0.00    -0.346 OA
HETATM   22  H   UNL     1       9.986  19.804  56.062  1.00  0.00     0.219 HD
ENDBRANCH  16  21
ENDBRANCH   8  10
ENDBRANCH   7   8
ENDBRANCH   6   7
ENDBRANCH   1   6
BRANCH   2  23
HETATM   23  C   UNL     1       6.517  28.870  55.952  1.00  0.00     0.077 A 
HETATM   24  C   UNL     1       6.293  27.737  56.750  1.00  0.00     0.095 A 
HETATM   25  C   UNL     1       7.380  27.166  57.423  1.00  0.00     0.039 A 
HETATM   26  C   UNL     1       8.661  27.716  57.311  1.00  0.00     0.003 A 
HETATM   27  C   UNL     1       8.872  28.850  56.534  1.00  0.00     0.002 A 
HETATM   28  C   UNL     1       7.803  29.432  55.856  1.00  0.00     0.033 A 
BRANCH  24  29
HETATM   29  O   UNL     1       5.000  27.315  56.896  1.00  0.00    -0.354 OA
HETATM   30  C   UNL     1       4.785  26.014  57.423  1.00  0.00     0.210 C 
ENDBRANCH  24  29
ENDBRANCH   2  23
BRANCH   3  31
HETATM   31  N   UNL     1       4.475  31.023  56.834  1.00  0.00    -0.251 NA
HETATM   32  C   UNL     1       3.260  30.798  57.631  1.00  0.00     0.098 C 
HETATM   33  C   UNL     1       3.518  31.203  59.082  1.00  0.00     0.015 C 
HETATM   34  C   UNL     1       3.999  32.649  59.177  1.00  0.00     0.002 C 
HETATM   35  C   UNL     1       5.206  32.877  58.274  1.00  0.00     0.015 C 
HETATM   36  C   UNL     1       4.916  32.430  56.842  1.00  0.00     0.098 C 
ENDBRANCH   3  31
TORSDOF 8
ENDMDL
MODEL 5
REMARK VINA RESULT:      -9.3      5.349      9.499
REMARK  8 active torsions:
REMARK  status: ('A' for Active; 'I' for Inactive)
REMARK    1  A    between atoms: C_3  and  O_4 
REMARK    2  A    between atoms: C_11  and  C_12 
REMARK    3  A    between atoms: C_12  and  C_13 
REMARK    4  A    between atoms: C_13  and  S_14 
REMARK    5  A    between atoms: S_14  and  C_15 
REMARK    6  A    between atoms: N_16  and  C_17 
REMARK    7  A    between atoms: C_18  and  O_19 
REMARK    8  A    between atoms: C_25  and  N_26 
ROOT
HETATM    1  C   UNL     1       5.637  27.500  52.094  1.00  0.00     0.197 A 
HETATM    2  N   UNL     1       5.045  28.145  51.021  1.00  0.00    -0.259 N 
HETATM    3  C   UNL     1       4.452  27.103  50.293  1.00  0.00     0.211 A 
HETATM    4  N   UNL     1       4.678  25.962  50.921  1.00  0.00    -0.116 NA
HETATM    5  N   UNL     1       5.393  26.211  52.055  1.00  0.00    -0.121 NA
ENDROOT
BRANCH   1   6
HETATM    6  S   UNL     1       6.728  28.237  53.230  1.00  0.00    -0.082 SA
BRANCH   6   7
HETATM    7  C   UNL     1       7.656  26.760  53.738  1.00  0.00     0.166 C 
BRANCH   7   8
HETATM    8  C   UNL     1       7.369  26.358  55.172  1.00  0.00     0.169 C 
HETATM    9  O   UNL     1       6.885  27.114  56.013  1.00  0.00    -0.291 OA
BRANCH   8  10
HETATM   10  C   UNL     1       7.731  24.965  55.586  1.00  0.00     0.011 A 
HETATM   11  C   UNL     1       8.074  24.646  56.905  1.00  0.00     0.017 A 
HETATM   12  C   UNL     1       8.447  23.345  57.264  1.00  0.00     0.031 A 
HETATM   13  C   UNL     1       8.453  22.373  56.259  1.00  0.00     0.045 A 
HETATM   14  N   UNL     1       8.779  21.040  56.318  1.00  0.00    -0.336 N 
HETATM   15  C   UNL     1       8.096  22.643  54.940  1.00  0.00     0.002 A 
HETATM   16  C   UNL     1       8.634  20.455  55.093  1.00  0.00     0.147 A 
HETATM   17  H   UNL     1       9.083  20.548  57.145  1.00  0.00     0.168 HD
HETATM   18  C   UNL     1       8.206  21.419  54.200  1.00  0.00     0.001 A 
HETATM   19  C   UNL     1       7.902  21.249  52.755  1.00  0.00     0.054 C 
HETATM   20  C   UNL     1       7.724  23.961  54.601  1.00  0.00     0.029 A 
BRANCH  16  21
HETATM   21  O   UNL     1       8.902  19.163  54.962  1.00  0.00    -0.346 OA
HETATM   22  H   UNL     1       9.255  18.851  55.814  1.00  0.00     0.219 HD
ENDBRANCH  16  21
ENDBRANCH   8  10
ENDBRANCH   7   8
ENDBRANCH   6   7
ENDBRANCH   1   6
BRANCH   2  23
HETATM   23  C   UNL     1       5.034  29.540  50.753  1.00  0.00     0.077 A 
HETATM   24  C   UNL     1       4.207  30.416  51.476  1.00  0.00     0.095 A 
HETATM   25  C   UNL     1       4.285  31.787  51.205  1.00  0.00     0.039 A 
HETATM   26  C   UNL     1       5.160  32.276  50.229  1.00  0.00     0.003 A 
HETATM   27  C   UNL     1       5.961  31.402  49.504  1.00  0.00     0.002 A 
HETATM   28  C   UNL     1       5.899  30.034  49.760  1.00  0.00     0.033 A 
BRANCH  24  29
HETATM   29  O   UNL     1       3.304  29.860  52.340  1.00  0.00    -0.354 OA
HETATM   30  C   UNL     1       3.455  30.142  53.724  1.00  0.00     0.210 C 
ENDBRANCH  24  29
ENDBRANCH   2  23
BRANCH   3  31
HETATM   31  N   UNL     1       3.738  27.247  49.128  1.00  0.00    -0.251 NA
HETATM   32  C   UNL     1       2.563  28.130  49.163  1.00  0.00     0.098 C 
HETATM   33  C   UNL     1       2.127  28.458  47.735  1.00  0.00     0.015 C 
HETATM   34  C   UNL     1       1.859  27.189  46.931  1.00  0.00     0.002 C 
HETATM   35  C   UNL     1       3.061  26.252  46.984  1.00  0.00     0.015 C 
HETATM   36  C   UNL     1       3.482  25.976  48.426  1.00  0.00     0.098 C 
ENDBRANCH   3  31
TORSDOF 8
ENDMDL
MODEL 6
REMARK VINA RESULT:      -9.1      2.702     10.564
REMARK  8 active torsions:
REMARK  status: ('A' for Active; 'I' for Inactive)
REMARK    1  A    between atoms: C_3  and  O_4 
REMARK    2  A    between atoms: C_11  and  C_12 
REMARK    3  A    between atoms: C_12  and  C_13 
REMARK    4  A    between atoms: C_13  and  S_14 
REMARK    5  A    between atoms: S_14  and  C_15 
REMARK    6  A    between atoms: N_16  and  C_17 
REMARK    7  A    between atoms: C_18  and  O_19 
REMARK    8  A    between atoms: C_25  and  N_26 
ROOT
HETATM    1  C   UNL     1       6.370  29.484  57.706  1.00  0.00     0.197 A 
HETATM    2  N   UNL     1       6.476  30.786  58.165  1.00  0.00    -0.259 N 
HETATM    3  C   UNL     1       5.368  31.431  57.593  1.00  0.00     0.211 A 
HETATM    4  N   UNL     1       4.683  30.551  56.883  1.00  0.00    -0.116 NA
HETATM    5  N   UNL     1       5.291  29.334  56.973  1.00  0.00    -0.121 NA
ENDROOT
BRANCH   1   6
HETATM    6  S   UNL     1       7.588  28.255  57.885  1.00  0.00    -0.082 SA
BRANCH   6   7
HETATM    7  C   UNL     1       7.407  27.434  56.275  1.00  0.00     0.166 C 
BRANCH   7   8
HETATM    8  C   UNL     1       6.870  26.021  56.399  1.00  0.00     0.169 C 
HETATM    9  O   UNL     1       6.179  25.631  57.340  1.00  0.00    -0.291 OA
BRANCH   8  10
HETATM   10  C   UNL     1       7.235  25.044  55.325  1.00  0.00     0.011 A 
HETATM   11  C   UNL     1       7.452  25.441  54.000  1.00  0.00     0.017 A 
HETATM   12  C   UNL     1       7.755  24.507  53.003  1.00  0.00     0.031 A 
HETATM   13  C   UNL     1       7.845  23.164  53.380  1.00  0.00     0.045 A 
HETATM   14  N   UNL     1       8.114  22.048  52.625  1.00  0.00    -0.336 N 
HETATM   15  C   UNL     1       7.660  22.729  54.690  1.00  0.00     0.002 A 
HETATM   16  C   UNL     1       8.114  20.928  53.407  1.00  0.00     0.147 A 
HETATM   17  H   UNL     1       8.290  22.041  51.632  1.00  0.00     0.168 HD
HETATM   18  C   UNL     1       7.838  21.306  54.707  1.00  0.00     0.001 A 
HETATM   19  C   UNL     1       7.745  20.434  55.907  1.00  0.00     0.054 C 
HETATM   20  C   UNL     1       7.354  23.689  55.679  1.00  0.00     0.029 A 
BRANCH  16  21
HETATM   21  O   UNL     1       8.361  19.752  52.845  1.00  0.00    -0.346 OA
HETATM   22  H   UNL     1       8.829  19.922  52.008  1.00  0.00     0.219 HD
ENDBRANCH  16  21
ENDBRANCH   8  10
ENDBRANCH   7   8
ENDBRANCH   6   7
ENDBRANCH   1   6
BRANCH   2  23
HETATM   23  C   UNL     1       7.469  31.317  59.031  1.00  0.00     0.077 A 
HETATM   24  C   UNL     1       7.167  31.676  60.355  1.00  0.00     0.095 A 
HETATM   25  C   UNL     1       8.202  32.138  61.176  1.00  0.00     0.039 A 
HETATM   26  C   UNL     1       9.509  32.250  60.688  1.00  0.00     0.003 A 
HETATM   27  C   UNL     1       9.796  31.911  59.370  1.00  0.00     0.002 A 
HETATM   28  C   UNL     1       8.780  31.448  58.538  1.00  0.00     0.033 A 
BRANCH  24  29
HETATM   29  O   UNL     1       5.853  31.638  60.734  1.00  0.00    -0.354 OA
HETATM   30  C   UNL     1       5.482  32.357  61.900  1.00  0.00     0.210 C 
ENDBRANCH  24  29
ENDBRANCH   2  23
BRANCH   3  31
HETATM   31  N   UNL     1       5.040  32.754  57.760  1.00  0.00    -0.251 NA
HETATM   32  C   UNL     1       3.966  33.068  58.713  1.00  0.00     0.098 C 
HETATM   33  C   UNL     1       3.992  34.561  59.041  1.00  0.00     0.015 C 
HETATM   34  C   UNL     1       3.893  35.409  57.776  1.00  0.00     0.002 C 
HETATM   35  C   UNL     1       4.964  35.004  56.769  1.00  0.00     0.015 C 
HETATM   36  C   UNL     1       4.923  33.502  56.494  1.00  0.00     0.098 C 
ENDBRANCH   3  31
TORSDOF 8
ENDMDL
MODEL 7
REMARK VINA RESULT:      -9.1      5.413     10.084
REMARK  8 active torsions:
REMARK  status: ('A' for Active; 'I' for Inactive)
REMARK    1  A    between atoms: C_3  and  O_4 
REMARK    2  A    between atoms: C_11  and  C_12 
REMARK    3  A    between atoms: C_12  and  C_13 
REMARK    4  A    between atoms: C_13  and  S_14 
REMARK    5  A    between atoms: S_14  and  C_15 
REMARK    6  A    between atoms: N_16  and  C_17 
REMARK    7  A    between atoms: C_18  and  O_19 
REMARK    8  A    between atoms: C_25  and  N_26 
ROOT
HETATM    1  C   UNL     1       5.285  27.817  51.729  1.00  0.00     0.197 A 
HETATM    2  N   UNL     1       4.536  28.796  51.098  1.00  0.00    -0.259 N 
HETATM    3  C   UNL     1       4.076  28.164  49.934  1.00  0.00     0.211 A 
HETATM    4  N   UNL     1       4.518  26.918  49.922  1.00  0.00    -0.116 NA
HETATM    5  N   UNL     1       5.249  26.694  51.051  1.00  0.00    -0.121 NA
ENDROOT
BRANCH   1   6
HETATM    6  S   UNL     1       6.308  28.072  53.113  1.00  0.00    -0.082 SA
BRANCH   6   7
HETATM    7  C   UNL     1       6.212  26.415  53.851  1.00  0.00     0.166 C 
BRANCH   7   8
HETATM    8  C   UNL     1       6.997  26.308  55.144  1.00  0.00     0.169 C 
HETATM    9  O   UNL     1       7.266  27.269  55.864  1.00  0.00    -0.291 OA
BRANCH   8  10
HETATM   10  C   UNL     1       7.497  24.953  55.541  1.00  0.00     0.011 A 
HETATM   11  C   UNL     1       7.948  24.677  56.837  1.00  0.00     0.017 A 
HETATM   12  C   UNL     1       8.447  23.414  57.177  1.00  0.00     0.031 A 
HETATM   13  C   UNL     1       8.470  22.436  56.179  1.00  0.00     0.045 A 
HETATM   14  N   UNL     1       8.907  21.134  56.223  1.00  0.00    -0.336 N 
HETATM   15  C   UNL     1       8.009  22.663  54.884  1.00  0.00     0.002 A 
HETATM   16  C   UNL     1       8.733  20.528  55.012  1.00  0.00     0.147 A 
HETATM   17  H   UNL     1       9.302  20.677  57.031  1.00  0.00     0.168 HD
HETATM   18  C   UNL     1       8.172  21.445  54.144  1.00  0.00     0.001 A 
HETATM   19  C   UNL     1       7.793  21.236  52.722  1.00  0.00     0.054 C 
HETATM   20  C   UNL     1       7.510  23.943  54.563  1.00  0.00     0.029 A 
BRANCH  16  21
HETATM   21  O   UNL     1       9.098  19.261  54.871  1.00  0.00    -0.346 OA
HETATM   22  H   UNL     1       9.238  19.101  53.921  1.00  0.00     0.219 HD
ENDBRANCH  16  21
ENDBRANCH   8  10
ENDBRANCH   7   8
ENDBRANCH   6   7
ENDBRANCH   1   6
BRANCH   2  23
HETATM   23  C   UNL     1       4.285  30.118  51.555  1.00  0.00     0.077 A 
HETATM   24  C   UNL     1       5.014  31.212  51.061  1.00  0.00     0.095 A 
HETATM   25  C   UNL     1       4.679  32.496  51.508  1.00  0.00     0.039 A 
HETATM   26  C   UNL     1       3.647  32.687  52.433  1.00  0.00     0.003 A 
HETATM   27  C   UNL     1       2.943  31.597  52.933  1.00  0.00     0.002 A 
HETATM   28  C   UNL     1       3.261  30.311  52.499  1.00  0.00     0.033 A 
BRANCH  24  29
HETATM   29  O   UNL     1       6.074  30.944  50.239  1.00  0.00    -0.354 OA
HETATM   30  C   UNL     1       6.300  31.821  49.146  1.00  0.00     0.210 C 
ENDBRANCH  24  29
ENDBRANCH   2  23
BRANCH   3  31
HETATM   31  N   UNL     1       3.281  28.740  48.972  1.00  0.00    -0.251 NA
HETATM   32  C   UNL     1       1.937  28.176  48.783  1.00  0.00     0.098 C 
HETATM   33  C   UNL     1       1.085  29.148  47.966  1.00  0.00     0.015 C 
HETATM   34  C   UNL     1       1.751  29.484  46.634  1.00  0.00     0.002 C 
HETATM   35  C   UNL     1       3.175  29.983  46.854  1.00  0.00     0.015 C 
HETATM   36  C   UNL     1       3.980  28.999  47.700  1.00  0.00     0.098 C 
ENDBRANCH   3  31
TORSDOF 8
ENDMDL
MODEL 8
REMARK VINA RESULT:      -9.0      2.736      4.125
REMARK  8 active torsions:
REMARK  status: ('A' for Active; 'I' for Inactive)
REMARK    1  A    between atoms: C_3  and  O_4 
REMARK    2  A    between atoms: C_11  and  C_12 
REMARK    3  A    between atoms: C_12  and  C_13 
REMARK    4  A    between atoms: C_13  and  S_14 
REMARK    5  A    between atoms: S_14  and  C_15 
REMARK    6  A    between atoms: N_16  and  C_17 
REMARK    7  A    between atoms: C_18  and  O_19 
REMARK    8  A    between atoms: C_25  and  N_26 
ROOT
HETATM    1  C   UNL     1       8.603  28.806  56.408  1.00  0.00     0.197 A 
HETATM    2  N   UNL     1       7.757  27.938  55.736  1.00  0.00    -0.259 N 
HETATM    3  C   UNL     1       8.099  28.119  54.388  1.00  0.00     0.211 A 
HETATM    4  N   UNL     1       9.075  29.006  54.311  1.00  0.00    -0.116 NA
HETATM    5  N   UNL     1       9.406  29.416  55.568  1.00  0.00    -0.121 NA
ENDROOT
BRANCH   1   6
HETATM    6  S   UNL     1       8.494  29.206  58.097  1.00  0.00    -0.082 SA
BRANCH   6   7
HETATM    7  C   UNL     1       8.195  30.992  57.950  1.00  0.00     0.166 C 
BRANCH   7   8
HETATM    8  C   UNL     1       9.000  31.801  58.949  1.00  0.00     0.169 C 
HETATM    9  O   UNL     1      10.126  32.244  58.725  1.00  0.00    -0.291 OA
BRANCH   8  10
HETATM   10  C   UNL     1       8.392  32.038  60.297  1.00  0.00     0.011 A 
HETATM   11  C   UNL     1       9.137  31.934  61.478  1.00  0.00     0.017 A 
HETATM   12  C   UNL     1       8.542  32.122  62.731  1.00  0.00     0.031 A 
HETATM   13  C   UNL     1       7.178  32.429  62.760  1.00  0.00     0.045 A 
HETATM   14  N   UNL     1       6.343  32.654  63.827  1.00  0.00    -0.336 N 
HETATM   15  C   UNL     1       6.407  32.565  61.608  1.00  0.00     0.002 A 
HETATM   16  C   UNL     1       5.078  32.934  63.396  1.00  0.00     0.147 A 
HETATM   17  H   UNL     1       6.613  32.621  64.799  1.00  0.00     0.168 HD
HETATM   18  C   UNL     1       5.071  32.893  62.015  1.00  0.00     0.001 A 
HETATM   19  C   UNL     1       3.923  33.142  61.104  1.00  0.00     0.054 C 
HETATM   20  C   UNL     1       7.028  32.371  60.356  1.00  0.00     0.029 A 
BRANCH  16  21
HETATM   21  O   UNL     1       4.134  33.182  64.294  1.00  0.00    -0.346 OA
HETATM   22  H   UNL     1       3.282  33.201  63.825  1.00  0.00     0.219 HD
ENDBRANCH  16  21
ENDBRANCH   8  10
ENDBRANCH   7   8
ENDBRANCH   6   7
ENDBRANCH   1   6
BRANCH   2  23
HETATM   23  C   UNL     1       6.794  27.062  56.304  1.00  0.00     0.077 A 
HETATM   24  C   UNL     1       5.460  27.461  56.485  1.00  0.00     0.095 A 
HETATM   25  C   UNL     1       4.546  26.531  56.995  1.00  0.00     0.039 A 
HETATM   26  C   UNL     1       4.952  25.234  57.326  1.00  0.00     0.003 A 
HETATM   27  C   UNL     1       6.279  24.852  57.163  1.00  0.00     0.002 A 
HETATM   28  C   UNL     1       7.203  25.763  56.655  1.00  0.00     0.033 A 
BRANCH  24  29
HETATM   29  O   UNL     1       5.155  28.771  56.237  1.00  0.00    -0.354 OA
HETATM   30  C   UNL     1       4.762  29.577  57.338  1.00  0.00     0.210 C 
ENDBRANCH  24  29
ENDBRANCH   2  23
BRANCH   3  31
HETATM   31  N   UNL     1       7.525  27.466  53.324  1.00  0.00    -0.251 NA
HETATM   32  C   UNL     1       6.162  27.865  52.943  1.00  0.00     0.098 C 
HETATM   33  C   UNL     1       5.838  27.319  51.552  1.00  0.00     0.015 C 
HETATM   34  C   UNL     1       6.022  25.805  51.494  1.00  0.00     0.002 C 
HETATM   35  C   UNL     1       7.414  25.412  51.977  1.00  0.00     0.015 C 
HETATM   36  C   UNL     1       7.708  26.003  53.354  1.00  0.00     0.098 C 
ENDBRANCH   3  31
TORSDOF 8
ENDMDL
MODEL 9
REMARK VINA RESULT:      -8.8      4.447      9.017
REMARK  8 active torsions:
REMARK  status: ('A' for Active; 'I' for Inactive)
REMARK    1  A    between atoms: C_3  and  O_4 
REMARK    2  A    between atoms: C_11  and  C_12 
REMARK    3  A    between atoms: C_12  and  C_13 
REMARK    4  A    between atoms: C_13  and  S_14 
REMARK    5  A    between atoms: S_14  and  C_15 
REMARK    6  A    between atoms: N_16  and  C_17 
REMARK    7  A    between atoms: C_18  and  O_19 
REMARK    8  A    between atoms: C_25  and  N_26 
ROOT
HETATM    1  C   UNL     1       4.751  27.046  53.281  1.00  0.00     0.197 A 
HETATM    2  N   UNL     1       5.823  26.587  54.029  1.00  0.00    -0.259 N 
HETATM    3  C   UNL     1       6.050  25.297  53.527  1.00  0.00     0.211 A 
HETATM    4  N   UNL     1       5.183  25.058  52.558  1.00  0.00    -0.116 NA
HETATM    5  N   UNL     1       4.391  26.154  52.387  1.00  0.00    -0.121 NA
ENDROOT
BRANCH   1   6
HETATM    6  S   UNL     1       3.855  28.503  53.600  1.00  0.00    -0.082 SA
BRANCH   6   7
HETATM    7  C   UNL     1       4.826  29.663  52.595  1.00  0.00     0.166 C 
BRANCH   7   8
HETATM    8  C   UNL     1       3.989  30.359  51.539  1.00  0.00     0.169 C 
HETATM    9  O   UNL     1       3.840  31.579  51.477  1.00  0.00    -0.291 OA
BRANCH   8  10
HETATM   10  C   UNL     1       3.280  29.499  50.539  1.00  0.00     0.011 A 
HETATM   11  C   UNL     1       1.884  29.459  50.450  1.00  0.00     0.017 A 
HETATM   12  C   UNL     1       1.239  28.619  49.534  1.00  0.00     0.031 A 
HETATM   13  C   UNL     1       2.041  27.830  48.704  1.00  0.00     0.045 A 
HETATM   14  N   UNL     1       1.689  26.922  47.734  1.00  0.00    -0.336 N 
HETATM   15  C   UNL     1       3.433  27.858  48.744  1.00  0.00     0.002 A 
HETATM   16  C   UNL     1       2.802  26.382  47.156  1.00  0.00     0.147 A 
HETATM   17  H   UNL     1       0.745  26.680  47.475  1.00  0.00     0.168 HD
HETATM   18  C   UNL     1       3.916  26.939  47.754  1.00  0.00     0.001 A 
HETATM   19  C   UNL     1       5.344  26.667  47.446  1.00  0.00     0.054 C 
HETATM   20  C   UNL     1       4.061  28.711  49.676  1.00  0.00     0.029 A 
BRANCH  16  21
HETATM   21  O   UNL     1       2.652  25.484  46.192  1.00  0.00    -0.346 OA
HETATM   22  H   UNL     1       2.602  24.608  46.614  1.00  0.00     0.219 HD
ENDBRANCH  16  21
ENDBRANCH   8  10
ENDBRANCH   7   8
ENDBRANCH   6   7
ENDBRANCH   1   6
BRANCH   2  23
HETATM   23  C   UNL     1       6.527  27.287  55.045  1.00  0.00     0.077 A 
HETATM   24  C   UNL     1       6.101  27.257  56.382  1.00  0.00     0.095 A 
HETATM   25  C   UNL     1       6.872  27.919  57.346  1.00  0.00     0.039 A 
HETATM   26  C   UNL     1       8.038  28.603  56.985  1.00  0.00     0.003 A 
HETATM   27  C   UNL     1       8.443  28.644  55.655  1.00  0.00     0.002 A 
HETATM   28  C   UNL     1       7.690  27.991  54.682  1.00  0.00     0.033 A 
BRANCH  24  29
HETATM   29  O   UNL     1       4.901  26.658  56.648  1.00  0.00    -0.354 OA
HETATM   30  C   UNL     1       4.915  25.457  57.406  1.00  0.00     0.210 C 
ENDBRANCH  24  29
ENDBRANCH   2  23
BRANCH   3  31
HETATM   31  N   UNL     1       7.025  24.431  53.959  1.00  0.00    -0.251 NA
HETATM   32  C   UNL     1       7.495  23.414  53.006  1.00  0.00     0.098 C 
HETATM   33  C   UNL     1       8.802  22.804  53.512  1.00  0.00     0.015 C 
HETATM   34  C   UNL     1       8.640  22.232  54.918  1.00  0.00     0.002 C 
HETATM   35  C   UNL     1       8.070  23.282  55.865  1.00  0.00     0.015 C 
HETATM   36  C   UNL     1       6.783  23.887  55.308  1.00  0.00     0.098 C 
ENDBRANCH   3  31
TORSDOF 8
ENDMDL
MODEL 10
REMARK VINA RESULT:      -8.8      5.385     10.136
REMARK  8 active torsions:
REMARK  status: ('A' for Active; 'I' for Inactive)
REMARK    1  A    between atoms: C_3  and  O_4 
REMARK    2  A    between atoms: C_11  and  C_12 
REMARK    3  A    between atoms: C_12  and  C_13 
REMARK    4  A    between atoms: C_13  and  S_14 
REMARK    5  A    between atoms: S_14  and  C_15 
REMARK    6  A    between atoms: N_16  and  C_17 
REMARK    7  A    between atoms: C_18  and  O_19 
REMARK    8  A    between atoms: C_25  and  N_26 
ROOT
HETATM    1  C   UNL     1       5.197  28.081  51.613  1.00  0.00     0.197 A 
HETATM    2  N   UNL     1       4.600  29.126  50.927  1.00  0.00    -0.259 N 
HETATM    3  C   UNL     1       3.900  28.486  49.893  1.00  0.00     0.211 A 
HETATM    4  N   UNL     1       4.076  27.181  50.004  1.00  0.00    -0.116 NA
HETATM    5  N   UNL     1       4.862  26.926  51.088  1.00  0.00    -0.121 NA
ENDROOT
BRANCH   1   6
HETATM    6  S   UNL     1       6.393  28.257  52.865  1.00  0.00    -0.082 SA
BRANCH   6   7
HETATM    7  C   UNL     1       5.816  26.958  53.997  1.00  0.00     0.166 C 
BRANCH   7   8
HETATM    8  C   UNL     1       6.956  26.281  54.733  1.00  0.00     0.169 C 
HETATM    9  O   UNL     1       7.563  26.790  55.674  1.00  0.00    -0.291 OA
BRANCH   8  10
HETATM   10  C   UNL     1       7.379  24.925  54.257  1.00  0.00     0.011 A 
HETATM   11  C   UNL     1       7.488  24.616  52.896  1.00  0.00     0.017 A 
HETATM   12  C   UNL     1       7.848  23.332  52.471  1.00  0.00     0.031 A 
HETATM   13  C   UNL     1       8.105  22.372  53.454  1.00  0.00     0.045 A 
HETATM   14  N   UNL     1       8.463  21.052  53.332  1.00  0.00    -0.336 N 
HETATM   15  C   UNL     1       8.031  22.645  54.818  1.00  0.00     0.002 A 
HETATM   16  C   UNL     1       8.626  20.482  54.562  1.00  0.00     0.147 A 
HETATM   17  H   UNL     1       8.592  20.558  52.461  1.00  0.00     0.168 HD
HETATM   18  C   UNL     1       8.368  21.442  55.522  1.00  0.00     0.001 A 
HETATM   19  C   UNL     1       8.430  21.289  56.999  1.00  0.00     0.054 C 
HETATM   20  C   UNL     1       7.666  23.946  55.224  1.00  0.00     0.029 A 
BRANCH  16  21
HETATM   21  O   UNL     1       8.976  19.205  54.637  1.00  0.00    -0.346 OA
HETATM   22  H   UNL     1       8.266  18.734  55.107  1.00  0.00     0.219 HD
ENDBRANCH  16  21
ENDBRANCH   8  10
ENDBRANCH   7   8
ENDBRANCH   6   7
ENDBRANCH   1   6
BRANCH   2  23
HETATM   23  C   UNL     1       4.674  30.511  51.232  1.00  0.00     0.077 A 
HETATM   24  C   UNL     1       4.035  31.045  52.363  1.00  0.00     0.095 A 
HETATM   25  C   UNL     1       4.194  32.408  52.641  1.00  0.00     0.039 A 
HETATM   26  C   UNL     1       4.964  33.225  51.806  1.00  0.00     0.003 A 
HETATM   27  C   UNL     1       5.577  32.693  50.677  1.00  0.00     0.002 A 
HETATM   28  C   UNL     1       5.432  31.339  50.385  1.00  0.00     0.033 A 
BRANCH  24  29
HETATM   29  O   UNL     1       3.216  30.212  53.076  1.00  0.00    -0.354 OA
HETATM   30  C   UNL     1       3.454  30.087  54.470  1.00  0.00     0.210 C 
ENDBRANCH  24  29
ENDBRANCH   2  23
BRANCH   3  31
HETATM   31  N   UNL     1       3.141  29.113  48.935  1.00  0.00    -0.251 NA
HETATM   32  C   UNL     1       1.680  29.021  49.066  1.00  0.00     0.098 C 
HETATM   33  C   UNL     1       1.019  30.059  48.158  1.00  0.00     0.015 C 
HETATM   34  C   UNL     1       1.469  29.896  46.709  1.00  0.00     0.002 C 
HETATM   35  C   UNL     1       2.991  29.907  46.613  1.00  0.00     0.015 C 
HETATM   36  C   UNL     1       3.611  28.879  47.557  1.00  0.00     0.098 C 
ENDBRANCH   3  31
TORSDOF 8
ENDMDL
