MODEL 1
REMARK VINA RESULT:      -9.6      0.000      0.000
REMARK  3 active torsions:
REMARK  status: ('A' for Active; 'I' for Inactive)
REMARK    1  A    between atoms: O_2  and  C_3 
REMARK    2  A    between atoms: C_7  and  C_8 
REMARK       I    between atoms: C_8  and  N_9 
REMARK    3  A    between atoms: C_15  and  C_16 
ROOT
HETATM    1  C   UNL     1       4.383  28.342  50.415  1.00  0.00     0.254 C 
HETATM    2  N   UNL     1       5.056  27.688  51.451  1.00  0.00    -0.342 N 
HETATM    3  C   UNL     1       4.841  26.245  51.741  1.00  0.00     0.187 C 
HETATM    4  C   UNL     1       5.870  25.762  52.705  1.00  0.00     0.077 A 
HETATM    5  C   UNL     1       6.726  26.579  53.398  1.00  0.00     0.039 A 
HETATM    6  N   UNL     1       7.480  25.758  54.177  1.00  0.00    -0.342 N 
HETATM    7  H   UNL     1       8.214  26.024  54.821  1.00  0.00     0.167 HD
HETATM    8  C   UNL     1       7.077  24.459  53.925  1.00  0.00     0.141 A 
HETATM    9  N   UNL     1       6.096  24.451  53.032  1.00  0.00    -0.231 NA
HETATM   10  C   UNL     1       6.795  28.047  53.263  1.00  0.00     0.079 C 
HETATM   11  C   UNL     1       5.496  28.540  52.584  1.00  0.00     0.132 C 
HETATM   12  O   UNL     1       4.227  29.560  50.370  1.00  0.00    -0.267 OA
ENDROOT
BRANCH   1  13
HETATM   13  C   UNL     1       3.810  27.558  49.305  1.00  0.00     0.037 A 
HETATM   14  C   UNL     1       4.622  26.808  48.458  1.00  0.00     0.036 A 
HETATM   15  C   UNL     1       4.008  26.143  47.414  1.00  0.00     0.120 A 
HETATM   16  N   UNL     1       2.681  26.197  47.165  1.00  0.00    -0.237 NA
HETATM   17  C   UNL     1       1.932  26.967  47.985  1.00  0.00     0.164 A 
HETATM   18  C   UNL     1       2.444  27.663  49.061  1.00  0.00     0.075 A 
BRANCH  17  19
HETATM   19  O   UNL     1       0.574  27.089  47.772  1.00  0.00    -0.339 OA
HETATM   20  C   UNL     1       0.249  27.490  46.445  1.00  0.00     0.211 C 
ENDBRANCH  17  19
ENDBRANCH   1  13
BRANCH   8  21
HETATM   21  C   UNL     1       7.680  23.281  54.558  1.00  0.00     0.049 A 
HETATM   22  C   UNL     1       8.105  22.166  53.821  1.00  0.00     0.133 A 
HETATM   23  F   UNL     1       7.970  22.145  52.484  1.00  0.00    -0.205 F 
HETATM   24  C   UNL     1       8.672  21.055  54.438  1.00  0.00     0.085 A 
HETATM   25  C   UNL     1       8.816  21.052  55.817  1.00  0.00     0.119 A 
HETATM   26  F   UNL     1       9.356  19.987  56.421  1.00  0.00    -0.206 F 
HETATM   27  C   UNL     1       8.406  22.139  56.582  1.00  0.00     0.043 A 
HETATM   28  C   UNL     1       7.842  23.252  55.953  1.00  0.00     0.021 A 
ENDBRANCH   8  21
TORSDOF 3
ENDMDL
MODEL 2
REMARK VINA RESULT:      -9.3      5.456      8.357
REMARK  3 active torsions:
REMARK  status: ('A' for Active; 'I' for Inactive)
REMARK    1  A    between atoms: O_2  and  C_3 
REMARK    2  A    between atoms: C_7  and  C_8 
REMARK       I    between atoms: C_8  and  N_9 
REMARK    3  A    between atoms: C_15  and  C_16 
ROOT
HETATM    1  C   UNL     1       6.168  30.834  58.006  1.00  0.00     0.254 C 
HETATM    2  N   UNL     1       6.095  29.669  57.239  1.00  0.00    -0.342 N 
HETATM    3  C   UNL     1       7.306  29.042  56.644  1.00  0.00     0.187 C 
HETATM    4  C   UNL     1       6.970  27.690  56.114  1.00  0.00     0.077 A 
HETATM    5  C   UNL     1       5.694  27.206  55.981  1.00  0.00     0.039 A 
HETATM    6  N   UNL     1       5.819  25.961  55.448  1.00  0.00    -0.342 N 
HETATM    7  H   UNL     1       5.076  25.314  55.215  1.00  0.00     0.167 HD
HETATM    8  C   UNL     1       7.170  25.710  55.288  1.00  0.00     0.141 A 
HETATM    9  N   UNL     1       7.878  26.757  55.688  1.00  0.00    -0.231 NA
HETATM   10  C   UNL     1       4.467  27.922  56.382  1.00  0.00     0.079 C 
HETATM   11  C   UNL     1       4.806  29.421  56.548  1.00  0.00     0.132 C 
HETATM   12  O   UNL     1       5.212  31.585  58.192  1.00  0.00    -0.267 OA
ENDROOT
BRANCH   1  13
HETATM   13  C   UNL     1       7.446  31.219  58.635  1.00  0.00     0.037 A 
HETATM   14  C   UNL     1       7.476  31.886  59.857  1.00  0.00     0.036 A 
HETATM   15  C   UNL     1       8.713  32.252  60.350  1.00  0.00     0.120 A 
HETATM   16  N   UNL     1       9.879  32.016  59.708  1.00  0.00    -0.237 NA
HETATM   17  C   UNL     1       9.806  31.402  58.506  1.00  0.00     0.164 A 
HETATM   18  C   UNL     1       8.622  30.987  57.929  1.00  0.00     0.075 A 
BRANCH  17  19
HETATM   19  O   UNL     1      10.955  31.154  57.783  1.00  0.00    -0.339 OA
HETATM   20  C   UNL     1      10.943  29.890  57.128  1.00  0.00     0.211 C 
ENDBRANCH  17  19
ENDBRANCH   1  13
BRANCH   8  21
HETATM   21  C   UNL     1       7.709  24.451  54.763  1.00  0.00     0.049 A 
HETATM   22  C   UNL     1       8.617  23.664  55.484  1.00  0.00     0.133 A 
HETATM   23  F   UNL     1       9.029  24.048  56.705  1.00  0.00    -0.205 F 
HETATM   24  C   UNL     1       9.122  22.473  54.970  1.00  0.00     0.085 A 
HETATM   25  C   UNL     1       8.716  22.058  53.711  1.00  0.00     0.119 A 
HETATM   26  F   UNL     1       9.197  20.917  53.205  1.00  0.00    -0.206 F 
HETATM   27  C   UNL     1       7.816  22.812  52.964  1.00  0.00     0.043 A 
HETATM   28  C   UNL     1       7.311  24.004  53.492  1.00  0.00     0.021 A 
ENDBRANCH   8  21
TORSDOF 3
ENDMDL
MODEL 3
REMARK VINA RESULT:      -9.2      6.986     10.355
REMARK  3 active torsions:
REMARK  status: ('A' for Active; 'I' for Inactive)
REMARK    1  A    between atoms: O_2  and  C_3 
REMARK    2  A    between atoms: C_7  and  C_8 
REMARK       I    between atoms: C_8  and  N_9 
REMARK    3  A    between atoms: C_15  and  C_16 
ROOT
HETATM    1  C   UNL     1       9.425  31.645  59.492  1.00  0.00     0.254 C 
HETATM    2  N   UNL     1       9.264  30.713  58.464  1.00  0.00    -0.342 N 
HETATM    3  C   UNL     1       8.204  29.670  58.507  1.00  0.00     0.187 C 
HETATM    4  C   UNL     1       8.097  28.999  57.180  1.00  0.00     0.077 A 
HETATM    5  C   UNL     1       8.999  29.154  56.160  1.00  0.00     0.039 A 
HETATM    6  N   UNL     1       8.557  28.366  55.145  1.00  0.00    -0.342 N 
HETATM    7  H   UNL     1       8.982  28.236  54.235  1.00  0.00     0.167 HD
HETATM    8  C   UNL     1       7.384  27.764  55.565  1.00  0.00     0.141 A 
HETATM    9  N   UNL     1       7.097  28.142  56.803  1.00  0.00    -0.231 NA
HETATM   10  C   UNL     1      10.181  30.039  56.197  1.00  0.00     0.079 C 
HETATM   11  C   UNL     1      10.478  30.399  57.671  1.00  0.00     0.132 C 
HETATM   12  O   UNL     1      10.472  32.256  59.698  1.00  0.00    -0.267 OA
ENDROOT
BRANCH   1  13
HETATM   13  C   UNL     1       8.300  31.931  60.404  1.00  0.00     0.037 A 
HETATM   14  C   UNL     1       7.035  32.240  59.912  1.00  0.00     0.036 A 
HETATM   15  C   UNL     1       6.052  32.542  60.834  1.00  0.00     0.120 A 
HETATM   16  N   UNL     1       6.257  32.572  62.170  1.00  0.00    -0.237 NA
HETATM   17  C   UNL     1       7.508  32.306  62.607  1.00  0.00     0.164 A 
HETATM   18  C   UNL     1       8.558  31.983  61.770  1.00  0.00     0.075 A 
BRANCH  17  19
HETATM   19  O   UNL     1       7.794  32.345  63.956  1.00  0.00    -0.339 OA
HETATM   20  C   UNL     1       7.340  33.536  64.591  1.00  0.00     0.211 C 
ENDBRANCH  17  19
ENDBRANCH   1  13
BRANCH   8  21
HETATM   21  C   UNL     1       6.589  26.857  54.731  1.00  0.00     0.049 A 
HETATM   22  C   UNL     1       6.902  25.497  54.589  1.00  0.00     0.133 A 
HETATM   23  F   UNL     1       7.962  24.975  55.229  1.00  0.00    -0.205 F 
HETATM   24  C   UNL     1       6.139  24.651  53.791  1.00  0.00     0.085 A 
HETATM   25  C   UNL     1       5.043  25.168  53.117  1.00  0.00     0.119 A 
HETATM   26  F   UNL     1       4.304  24.364  52.344  1.00  0.00    -0.206 F 
HETATM   27  C   UNL     1       4.701  26.512  53.232  1.00  0.00     0.043 A 
HETATM   28  C   UNL     1       5.471  27.353  54.040  1.00  0.00     0.021 A 
ENDBRANCH   8  21
TORSDOF 3
ENDMDL
MODEL 4
REMARK VINA RESULT:      -9.0      5.418      8.412
REMARK  3 active torsions:
REMARK  status: ('A' for Active; 'I' for Inactive)
REMARK    1  A    between atoms: O_2  and  C_3 
REMARK    2  A    between atoms: C_7  and  C_8 
REMARK       I    between atoms: C_8  and  N_9 
REMARK    3  A    between atoms: C_15  and  C_16 
ROOT
HETATM    1  C   UNL     1       6.112  24.866  53.383  1.00  0.00     0.254 C 
HETATM    2  N   UNL     1       6.092  26.062  54.106  1.00  0.00    -0.342 N 
HETATM    3  C   UNL     1       6.677  26.166  55.470  1.00  0.00     0.187 C 
HETATM    4  C   UNL     1       6.753  27.596  55.882  1.00  0.00     0.077 A 
HETATM    5  C   UNL     1       6.153  28.629  55.208  1.00  0.00     0.039 A 
HETATM    6  N   UNL     1       6.442  29.755  55.914  1.00  0.00    -0.342 N 
HETATM    7  H   UNL     1       6.157  30.703  55.703  1.00  0.00     0.167 HD
HETATM    8  C   UNL     1       7.227  29.383  56.990  1.00  0.00     0.141 A 
HETATM    9  N   UNL     1       7.420  28.070  56.981  1.00  0.00    -0.231 NA
HETATM   10  C   UNL     1       5.387  28.494  53.954  1.00  0.00     0.079 C 
HETATM   11  C   UNL     1       4.999  27.008  53.773  1.00  0.00     0.132 C 
HETATM   12  O   UNL     1       5.341  24.619  52.459  1.00  0.00    -0.267 OA
ENDROOT
BRANCH   1  13
HETATM   13  C   UNL     1       7.094  23.819  53.727  1.00  0.00     0.037 A 
HETATM   14  C   UNL     1       7.835  23.176  52.739  1.00  0.00     0.036 A 
HETATM   15  C   UNL     1       8.696  22.174  53.144  1.00  0.00     0.120 A 
HETATM   16  N   UNL     1       8.839  21.778  54.428  1.00  0.00    -0.237 NA
HETATM   17  C   UNL     1       8.073  22.399  55.352  1.00  0.00     0.164 A 
HETATM   18  C   UNL     1       7.190  23.418  55.055  1.00  0.00     0.075 A 
BRANCH  17  19
HETATM   19  O   UNL     1       8.148  22.026  56.679  1.00  0.00    -0.339 OA
HETATM   20  C   UNL     1       8.490  20.656  56.857  1.00  0.00     0.211 C 
ENDBRANCH  17  19
ENDBRANCH   1  13
BRANCH   8  21
HETATM   21  C   UNL     1       7.765  30.329  57.973  1.00  0.00     0.049 A 
HETATM   22  C   UNL     1       9.140  30.454  58.221  1.00  0.00     0.133 A 
HETATM   23  F   UNL     1      10.023  29.694  57.550  1.00  0.00    -0.205 F 
HETATM   24  C   UNL     1       9.634  31.355  59.159  1.00  0.00     0.085 A 
HETATM   25  C   UNL     1       8.742  32.146  59.867  1.00  0.00     0.119 A 
HETATM   26  F   UNL     1       9.206  33.013  60.774  1.00  0.00    -0.206 F 
HETATM   27  C   UNL     1       7.372  32.051  59.649  1.00  0.00     0.043 A 
HETATM   28  C   UNL     1       6.885  31.146  58.701  1.00  0.00     0.021 A 
ENDBRANCH   8  21
TORSDOF 3
ENDMDL
MODEL 5
REMARK VINA RESULT:      -9.0      5.588      8.762
REMARK  3 active torsions:
REMARK  status: ('A' for Active; 'I' for Inactive)
REMARK    1  A    between atoms: O_2  and  C_3 
REMARK    2  A    between atoms: C_7  and  C_8 
REMARK       I    between atoms: C_8  and  N_9 
REMARK    3  A    between atoms: C_15  and  C_16 
ROOT
HETATM    1  C   UNL     1       6.931  24.315  53.945  1.00  0.00     0.254 C 
HETATM    2  N   UNL     1       6.910  25.621  54.442  1.00  0.00    -0.342 N 
HETATM    3  C   UNL     1       6.979  25.908  55.900  1.00  0.00     0.187 C 
HETATM    4  C   UNL     1       7.204  27.365  56.121  1.00  0.00     0.077 A 
HETATM    5  C   UNL     1       7.116  28.319  55.140  1.00  0.00     0.039 A 
HETATM    6  N   UNL     1       7.367  29.508  55.750  1.00  0.00    -0.342 N 
HETATM    7  H   UNL     1       7.383  30.427  55.325  1.00  0.00     0.167 HD
HETATM    8  C   UNL     1       7.619  29.247  57.085  1.00  0.00     0.141 A 
HETATM    9  N   UNL     1       7.520  27.945  57.321  1.00  0.00    -0.231 NA
HETATM   10  C   UNL     1       6.836  28.050  53.716  1.00  0.00     0.079 C 
HETATM   11  C   UNL     1       6.233  26.632  53.593  1.00  0.00     0.132 C 
HETATM   12  O   UNL     1       6.506  24.005  52.834  1.00  0.00    -0.267 OA
ENDROOT
BRANCH   1  13
HETATM   13  C   UNL     1       7.481  23.225  54.774  1.00  0.00     0.037 A 
HETATM   14  C   UNL     1       7.749  23.415  56.127  1.00  0.00     0.036 A 
HETATM   15  C   UNL     1       8.308  22.356  56.817  1.00  0.00     0.120 A 
HETATM   16  N   UNL     1       8.622  21.171  56.250  1.00  0.00    -0.237 NA
HETATM   17  C   UNL     1       8.383  21.039  54.926  1.00  0.00     0.164 A 
HETATM   18  C   UNL     1       7.819  22.030  54.148  1.00  0.00     0.075 A 
BRANCH  17  19
HETATM   19  O   UNL     1       8.704  19.864  54.278  1.00  0.00    -0.339 OA
HETATM   20  C   UNL     1       8.773  20.006  52.863  1.00  0.00     0.211 C 
ENDBRANCH  17  19
ENDBRANCH   1  13
BRANCH   8  21
HETATM   21  C   UNL     1       7.960  30.281  58.068  1.00  0.00     0.049 A 
HETATM   22  C   UNL     1       9.283  30.547  58.450  1.00  0.00     0.133 A 
HETATM   23  F   UNL     1      10.298  29.848  57.914  1.00  0.00    -0.205 F 
HETATM   24  C   UNL     1       9.590  31.530  59.386  1.00  0.00     0.085 A 
HETATM   25  C   UNL     1       8.558  32.260  59.957  1.00  0.00     0.119 A 
HETATM   26  F   UNL     1       8.841  33.205  60.861  1.00  0.00    -0.206 F 
HETATM   27  C   UNL     1       7.234  32.025  59.604  1.00  0.00     0.043 A 
HETATM   28  C   UNL     1       6.936  31.039  58.658  1.00  0.00     0.021 A 
ENDBRANCH   8  21
TORSDOF 3
ENDMDL
MODEL 6
REMARK VINA RESULT:      -9.0      1.824      2.544
REMARK  3 active torsions:
REMARK  status: ('A' for Active; 'I' for Inactive)
REMARK    1  A    between atoms: O_2  and  C_3 
REMARK    2  A    between atoms: C_7  and  C_8 
REMARK       I    between atoms: C_8  and  N_9 
REMARK    3  A    between atoms: C_15  and  C_16 
ROOT
HETATM    1  C   UNL     1       4.261  29.443  52.408  1.00  0.00     0.254 C 
HETATM    2  N   UNL     1       4.945  28.434  53.091  1.00  0.00    -0.342 N 
HETATM    3  C   UNL     1       4.654  26.993  52.862  1.00  0.00     0.187 C 
HETATM    4  C   UNL     1       5.699  26.154  53.514  1.00  0.00     0.077 A 
HETATM    5  C   UNL     1       6.640  26.632  54.390  1.00  0.00     0.039 A 
HETATM    6  N   UNL     1       7.380  25.556  54.768  1.00  0.00    -0.342 N 
HETATM    7  H   UNL     1       8.163  25.543  55.411  1.00  0.00     0.167 HD
HETATM    8  C   UNL     1       6.884  24.452  54.099  1.00  0.00     0.141 A 
HETATM    9  N   UNL     1       5.860  24.806  53.334  1.00  0.00    -0.231 NA
HETATM   10  C   UNL     1       6.794  28.046  54.783  1.00  0.00     0.079 C 
HETATM   11  C   UNL     1       5.495  28.802  54.419  1.00  0.00     0.132 C 
HETATM   12  O   UNL     1       4.179  30.601  52.812  1.00  0.00    -0.267 OA
ENDROOT
BRANCH   1  13
HETATM   13  C   UNL     1       3.582  29.135  51.135  1.00  0.00     0.037 A 
HETATM   14  C   UNL     1       2.197  29.226  51.017  1.00  0.00     0.036 A 
HETATM   15  C   UNL     1       1.640  28.873  49.803  1.00  0.00     0.120 A 
HETATM   16  N   UNL     1       2.356  28.431  48.746  1.00  0.00    -0.237 NA
HETATM   17  C   UNL     1       3.693  28.318  48.912  1.00  0.00     0.164 A 
HETATM   18  C   UNL     1       4.350  28.654  50.080  1.00  0.00     0.075 A 
BRANCH  17  19
HETATM   19  O   UNL     1       4.482  27.847  47.883  1.00  0.00    -0.339 OA
HETATM   20  C   UNL     1       4.369  26.442  47.688  1.00  0.00     0.211 C 
ENDBRANCH  17  19
ENDBRANCH   1  13
BRANCH   8  21
HETATM   21  C   UNL     1       7.444  23.102  54.226  1.00  0.00     0.049 A 
HETATM   22  C   UNL     1       7.672  22.497  55.470  1.00  0.00     0.133 A 
HETATM   23  F   UNL     1       7.377  23.150  56.607  1.00  0.00    -0.205 F 
HETATM   24  C   UNL     1       8.207  21.217  55.573  1.00  0.00     0.085 A 
HETATM   25  C   UNL     1       8.524  20.525  54.414  1.00  0.00     0.119 A 
HETATM   26  F   UNL     1       9.043  19.294  54.501  1.00  0.00    -0.206 F 
HETATM   27  C   UNL     1       8.313  21.092  53.161  1.00  0.00     0.043 A 
HETATM   28  C   UNL     1       7.771  22.377  53.068  1.00  0.00     0.021 A 
ENDBRANCH   8  21
TORSDOF 3
ENDMDL
MODEL 7
REMARK VINA RESULT:      -8.9      9.072     11.448
REMARK  3 active torsions:
REMARK  status: ('A' for Active; 'I' for Inactive)
REMARK    1  A    between atoms: O_2  and  C_3 
REMARK    2  A    between atoms: C_7  and  C_8 
REMARK       I    between atoms: C_8  and  N_9 
REMARK    3  A    between atoms: C_15  and  C_16 
ROOT
HETATM    1  C   UNL     1       9.305  29.481  56.842  1.00  0.00     0.254 C 
HETATM    2  N   UNL     1       9.163  30.337  57.936  1.00  0.00    -0.342 N 
HETATM    3  C   UNL     1       7.836  30.619  58.547  1.00  0.00     0.187 C 
HETATM    4  C   UNL     1       8.014  31.340  59.839  1.00  0.00     0.077 A 
HETATM    5  C   UNL     1       9.201  31.871  60.272  1.00  0.00     0.039 A 
HETATM    6  N   UNL     1       8.936  32.455  61.471  1.00  0.00    -0.342 N 
HETATM    7  H   UNL     1       9.585  32.945  62.074  1.00  0.00     0.167 HD
HETATM    8  C   UNL     1       7.596  32.249  61.748  1.00  0.00     0.141 A 
HETATM    9  N   UNL     1       7.026  31.573  60.760  1.00  0.00    -0.231 NA
HETATM   10  C   UNL     1      10.488  31.771  59.556  1.00  0.00     0.079 C 
HETATM   11  C   UNL     1      10.203  31.384  58.086  1.00  0.00     0.132 C 
HETATM   12  O   UNL     1      10.270  29.506  56.081  1.00  0.00    -0.267 OA
ENDROOT
BRANCH   1  13
HETATM   13  C   UNL     1       8.256  28.485  56.550  1.00  0.00     0.037 A 
HETATM   14  C   UNL     1       7.162  28.805  55.751  1.00  0.00     0.036 A 
HETATM   15  C   UNL     1       6.202  27.828  55.569  1.00  0.00     0.120 A 
HETATM   16  N   UNL     1       6.260  26.602  56.134  1.00  0.00    -0.237 NA
HETATM   17  C   UNL     1       7.317  26.343  56.935  1.00  0.00     0.164 A 
HETATM   18  C   UNL     1       8.335  27.245  57.175  1.00  0.00     0.075 A 
BRANCH  17  19
HETATM   19  O   UNL     1       7.426  25.120  57.566  1.00  0.00    -0.339 OA
HETATM   20  C   UNL     1       8.618  24.420  57.229  1.00  0.00     0.211 C 
ENDBRANCH  17  19
ENDBRANCH   1  13
BRANCH   8  21
HETATM   21  C   UNL     1       6.937  32.710  62.974  1.00  0.00     0.049 A 
HETATM   22  C   UNL     1       5.542  32.784  63.095  1.00  0.00     0.133 A 
HETATM   23  F   UNL     1       4.752  32.426  62.069  1.00  0.00    -0.205 F 
HETATM   24  C   UNL     1       4.932  33.227  64.265  1.00  0.00     0.085 A 
HETATM   25  C   UNL     1       5.727  33.607  65.335  1.00  0.00     0.119 A 
HETATM   26  F   UNL     1       5.151  34.038  66.464  1.00  0.00    -0.206 F 
HETATM   27  C   UNL     1       7.114  33.547  65.254  1.00  0.00     0.043 A 
HETATM   28  C   UNL     1       7.717  33.096  64.076  1.00  0.00     0.021 A 
ENDBRANCH   8  21
TORSDOF 3
ENDMDL
MODEL 8
REMARK VINA RESULT:      -8.8      1.999      2.373
REMARK  3 active torsions:
REMARK  status: ('A' for Active; 'I' for Inactive)
REMARK    1  A    between atoms: O_2  and  C_3 
REMARK    2  A    between atoms: C_7  and  C_8 
REMARK       I    between atoms: C_8  and  N_9 
REMARK    3  A    between atoms: C_15  and  C_16 
ROOT
HETATM    1  C   UNL     1       3.927  29.414  53.122  1.00  0.00     0.254 C 
HETATM    2  N   UNL     1       4.479  28.296  53.752  1.00  0.00    -0.342 N 
HETATM    3  C   UNL     1       4.567  26.975  53.074  1.00  0.00     0.187 C 
HETATM    4  C   UNL     1       5.427  26.052  53.868  1.00  0.00     0.077 A 
HETATM    5  C   UNL     1       5.867  26.307  55.141  1.00  0.00     0.039 A 
HETATM    6  N   UNL     1       6.596  25.221  55.511  1.00  0.00    -0.342 N 
HETATM    7  H   UNL     1       7.069  25.068  56.393  1.00  0.00     0.167 HD
HETATM    8  C   UNL     1       6.598  24.338  54.446  1.00  0.00     0.141 A 
HETATM    9  N   UNL     1       5.888  24.835  53.442  1.00  0.00    -0.231 NA
HETATM   10  C   UNL     1       5.599  27.545  55.901  1.00  0.00     0.079 C 
HETATM   11  C   UNL     1       4.416  28.284  55.234  1.00  0.00     0.132 C 
HETATM   12  O   UNL     1       3.489  30.389  53.730  1.00  0.00    -0.267 OA
ENDROOT
BRANCH   1  13
HETATM   13  C   UNL     1       3.843  29.458  51.649  1.00  0.00     0.037 A 
HETATM   14  C   UNL     1       4.914  29.907  50.881  1.00  0.00     0.036 A 
HETATM   15  C   UNL     1       4.733  29.962  49.512  1.00  0.00     0.120 A 
HETATM   16  N   UNL     1       3.581  29.626  48.891  1.00  0.00    -0.237 NA
HETATM   17  C   UNL     1       2.552  29.233  49.675  1.00  0.00     0.164 A 
HETATM   18  C   UNL     1       2.631  29.134  51.050  1.00  0.00     0.075 A 
BRANCH  17  19
HETATM   19  O   UNL     1       1.337  28.901  49.110  1.00  0.00    -0.339 OA
HETATM   20  C   UNL     1       1.434  28.566  47.730  1.00  0.00     0.211 C 
ENDBRANCH  17  19
ENDBRANCH   1  13
BRANCH   8  21
HETATM   21  C   UNL     1       7.308  23.055  54.452  1.00  0.00     0.049 A 
HETATM   22  C   UNL     1       7.918  22.528  53.304  1.00  0.00     0.133 A 
HETATM   23  F   UNL     1       7.871  23.199  52.141  1.00  0.00    -0.205 F 
HETATM   24  C   UNL     1       8.585  21.307  53.327  1.00  0.00     0.085 A 
HETATM   25  C   UNL     1       8.643  20.594  54.515  1.00  0.00     0.119 A 
HETATM   26  F   UNL     1       9.279  19.416  54.546  1.00  0.00    -0.206 F 
HETATM   27  C   UNL     1       8.050  21.083  55.673  1.00  0.00     0.043 A 
HETATM   28  C   UNL     1       7.387  22.313  55.642  1.00  0.00     0.021 A 
ENDBRANCH   8  21
TORSDOF 3
ENDMDL
MODEL 9
REMARK VINA RESULT:      -8.7      4.953      9.250
REMARK  3 active torsions:
REMARK  status: ('A' for Active; 'I' for Inactive)
REMARK    1  A    between atoms: O_2  and  C_3 
REMARK    2  A    between atoms: C_7  and  C_8 
REMARK       I    between atoms: C_8  and  N_9 
REMARK    3  A    between atoms: C_15  and  C_16 
ROOT
HETATM    1  C   UNL     1       7.847  27.382  57.353  1.00  0.00     0.254 C 
HETATM    2  N   UNL     1       7.033  27.086  56.256  1.00  0.00    -0.342 N 
HETATM    3  C   UNL     1       6.600  28.134  55.293  1.00  0.00     0.187 C 
HETATM    4  C   UNL     1       5.975  27.499  54.098  1.00  0.00     0.077 A 
HETATM    5  C   UNL     1       5.634  26.173  54.016  1.00  0.00     0.039 A 
HETATM    6  N   UNL     1       5.078  26.004  52.787  1.00  0.00    -0.342 N 
HETATM    7  H   UNL     1       4.712  25.148  52.389  1.00  0.00     0.167 HD
HETATM    8  C   UNL     1       5.110  27.228  52.143  1.00  0.00     0.141 A 
HETATM    9  N   UNL     1       5.653  28.145  52.934  1.00  0.00    -0.231 NA
HETATM   10  C   UNL     1       5.876  25.167  55.069  1.00  0.00     0.079 C 
HETATM   11  C   UNL     1       6.148  25.904  56.400  1.00  0.00     0.132 C 
HETATM   12  O   UNL     1       7.918  26.675  58.356  1.00  0.00    -0.267 OA
ENDROOT
BRANCH   1  13
HETATM   13  C   UNL     1       8.673  28.605  57.342  1.00  0.00     0.037 A 
HETATM   14  C   UNL     1       9.880  28.652  56.649  1.00  0.00     0.036 A 
HETATM   15  C   UNL     1      10.614  29.819  56.733  1.00  0.00     0.120 A 
HETATM   16  N   UNL     1      10.237  30.895  57.458  1.00  0.00    -0.237 NA
HETATM   17  C   UNL     1       9.079  30.796  58.149  1.00  0.00     0.164 A 
HETATM   18  C   UNL     1       8.267  29.680  58.125  1.00  0.00     0.075 A 
BRANCH  17  19
HETATM   19  O   UNL     1       8.646  31.848  58.931  1.00  0.00    -0.339 OA
HETATM   20  C   UNL     1       7.363  31.627  59.506  1.00  0.00     0.211 C 
ENDBRANCH  17  19
ENDBRANCH   1  13
BRANCH   8  21
HETATM   21  C   UNL     1       4.623  27.444  50.777  1.00  0.00     0.049 A 
HETATM   22  C   UNL     1       3.796  28.525  50.436  1.00  0.00     0.133 A 
HETATM   23  F   UNL     1       3.420  29.413  51.371  1.00  0.00    -0.205 F 
HETATM   24  C   UNL     1       3.339  28.713  49.135  1.00  0.00     0.085 A 
HETATM   25  C   UNL     1       3.710  27.806  48.153  1.00  0.00     0.119 A 
HETATM   26  F   UNL     1       3.273  27.975  46.900  1.00  0.00    -0.206 F 
HETATM   27  C   UNL     1       4.528  26.722  48.453  1.00  0.00     0.043 A 
HETATM   28  C   UNL     1       4.986  26.544  49.762  1.00  0.00     0.021 A 
ENDBRANCH   8  21
TORSDOF 3
ENDMDL
MODEL 10
REMARK VINA RESULT:      -8.6      9.185     11.505
REMARK  3 active torsions:
REMARK  status: ('A' for Active; 'I' for Inactive)
REMARK    1  A    between atoms: O_2  and  C_3 
REMARK    2  A    between atoms: C_7  and  C_8 
REMARK       I    between atoms: C_8  and  N_9 
REMARK    3  A    between atoms: C_15  and  C_16 
ROOT
HETATM    1  C   UNL     1       9.151  29.705  57.398  1.00  0.00     0.254 C 
HETATM    2  N   UNL     1       8.805  30.605  58.409  1.00  0.00    -0.342 N 
HETATM    3  C   UNL     1       7.390  30.964  58.692  1.00  0.00     0.187 C 
HETATM    4  C   UNL     1       7.305  31.722  59.973  1.00  0.00     0.077 A 
HETATM    5  C   UNL     1       8.388  32.217  60.653  1.00  0.00     0.039 A 
HETATM    6  N   UNL     1       7.886  32.854  61.744  1.00  0.00    -0.342 N 
HETATM    7  H   UNL     1       8.404  33.337  62.468  1.00  0.00     0.167 HD
HETATM    8  C   UNL     1       6.510  32.715  61.713  1.00  0.00     0.141 A 
HETATM    9  N   UNL     1       6.147  32.029  60.637  1.00  0.00    -0.231 NA
HETATM   10  C   UNL     1       9.797  32.038  60.252  1.00  0.00     0.079 C 
HETATM   11  C   UNL     1       9.835  31.612  58.767  1.00  0.00     0.132 C 
HETATM   12  O   UNL     1      10.264  29.663  56.877  1.00  0.00    -0.267 OA
ENDROOT
BRANCH   1  13
HETATM   13  C   UNL     1       8.148  28.744  56.898  1.00  0.00     0.037 A 
HETATM   14  C   UNL     1       7.887  27.557  57.578  1.00  0.00     0.036 A 
HETATM   15  C   UNL     1       6.969  26.693  57.015  1.00  0.00     0.120 A 
HETATM   16  N   UNL     1       6.333  26.927  55.845  1.00  0.00    -0.237 NA
HETATM   17  C   UNL     1       6.642  28.071  55.196  1.00  0.00     0.164 A 
HETATM   18  C   UNL     1       7.538  29.006  55.676  1.00  0.00     0.075 A 
BRANCH  17  19
HETATM   19  O   UNL     1       6.051  28.361  53.983  1.00  0.00    -0.339 OA
HETATM   20  C   UNL     1       4.923  27.541  53.699  1.00  0.00     0.211 C 
ENDBRANCH  17  19
ENDBRANCH   1  13
BRANCH   8  21
HETATM   21  C   UNL     1       5.613  33.246  62.744  1.00  0.00     0.049 A 
HETATM   22  C   UNL     1       5.939  33.224  64.108  1.00  0.00     0.133 A 
HETATM   23  F   UNL     1       7.109  32.706  64.518  1.00  0.00    -0.205 F 
HETATM   24  C   UNL     1       5.075  33.730  65.074  1.00  0.00     0.085 A 
HETATM   25  C   UNL     1       3.859  34.265  64.676  1.00  0.00     0.119 A 
HETATM   26  F   UNL     1       3.019  34.751  65.597  1.00  0.00    -0.206 F 
HETATM   27  C   UNL     1       3.500  34.305  63.333  1.00  0.00     0.043 A 
HETATM   28  C   UNL     1       4.377  33.799  62.369  1.00  0.00     0.021 A 
ENDBRANCH   8  21
TORSDOF 3
ENDMDL
