MODEL 1
REMARK VINA RESULT:      -8.1      0.000      0.000
REMARK  3 active torsions:
REMARK  status: ('A' for Active; 'I' for Inactive)
REMARK    1  A    between atoms: C_9  and  C_10 
REMARK    2  A    between atoms: C_16  and  C_17 
REMARK       I    between atoms: C_17  and  N_18 
REMARK    3  A    between atoms: N_18  and  C_19 
ROOT
HETATM    1  C   UNL     1       5.096  26.078  51.934  1.00  0.00     0.070 C 
HETATM    2  C   UNL     1       5.053  27.048  53.090  1.00  0.00     0.037 C 
HETATM    3  N   UNL     1       4.481  28.286  52.812  1.00  0.00    -0.192 N 
HETATM    4  C   UNL     1       4.128  29.162  53.774  1.00  0.00     0.725 A 
HETATM    5  N   UNL     1       4.484  28.914  55.072  1.00  0.00    -0.084 N 
HETATM    6  N   UNL     1       3.981  29.848  55.905  1.00  0.00    -0.149 NA
HETATM    7  C   UNL     1       3.367  30.653  55.030  1.00  0.00     0.275 A 
HETATM    8  N   UNL     1       3.437  30.271  53.715  1.00  0.00    -0.054 NA
HETATM    9  C   UNL     1       5.274  27.755  55.500  1.00  0.00     0.202 C 
HETATM   10  C   UNL     1       5.459  26.766  54.353  1.00  0.00     0.062 C 
HETATM   11  H   UNL     1       4.102  28.430  51.879  1.00  0.00     0.184 HD
ENDROOT
BRANCH  10  12
HETATM   12  C   UNL     1       6.005  25.450  54.776  1.00  0.00     0.256 C 
HETATM   13  N   UNL     1       7.114  25.055  54.062  1.00  0.00    -0.322 N 
HETATM   14  H   UNL     1       7.478  25.698  53.370  1.00  0.00     0.169 HD
HETATM   15  O   UNL     1       5.489  24.870  55.720  1.00  0.00    -0.267 OA
BRANCH  13  16
HETATM   16  C   UNL     1       7.797  23.826  54.188  1.00  0.00     0.052 A 
HETATM   17  C   UNL     1       8.634  23.477  55.244  1.00  0.00     0.145 A 
HETATM   18  N   UNL     1       9.260  22.276  55.355  1.00  0.00    -0.271 NA
HETATM   19  C   UNL     1       9.045  21.382  54.371  1.00  0.00     0.116 A 
HETATM   20  C   UNL     1       8.234  21.630  53.276  1.00  0.00     0.021 A 
HETATM   21  C   UNL     1       7.605  22.871  53.187  1.00  0.00     0.032 A 
ENDBRANCH  13  16
ENDBRANCH  10  12
BRANCH   9  22
HETATM   22  C   UNL     1       6.613  28.203  56.079  1.00  0.00    -0.025 A 
HETATM   23  C   UNL     1       7.588  28.750  55.236  1.00  0.00     0.029 A 
HETATM   24  C   UNL     1       8.787  29.175  55.787  1.00  0.00     0.117 A 
HETATM   25  N   UNL     1       9.077  29.098  57.104  1.00  0.00    -0.273 NA
HETATM   26  C   UNL     1       8.130  28.566  57.904  1.00  0.00     0.117 A 
HETATM   27  C   UNL     1       6.898  28.120  57.450  1.00  0.00     0.029 A 
ENDBRANCH   9  22
TORSDOF 3
ENDMDL
MODEL 2
REMARK VINA RESULT:      -8.1      5.811      8.907
REMARK  3 active torsions:
REMARK  status: ('A' for Active; 'I' for Inactive)
REMARK    1  A    between atoms: C_9  and  C_10 
REMARK    2  A    between atoms: C_16  and  C_17 
REMARK       I    between atoms: C_17  and  N_18 
REMARK    3  A    between atoms: N_18  and  C_19 
ROOT
HETATM    1  C   UNL     1       9.236  30.408  62.303  1.00  0.00     0.070 C 
HETATM    2  C   UNL     1       8.215  31.519  62.334  1.00  0.00     0.037 C 
HETATM    3  N   UNL     1       7.852  31.963  63.602  1.00  0.00    -0.192 N 
HETATM    4  C   UNL     1       7.164  33.103  63.810  1.00  0.00     0.725 A 
HETATM    5  N   UNL     1       6.653  33.784  62.738  1.00  0.00    -0.084 N 
HETATM    6  N   UNL     1       6.068  34.937  63.124  1.00  0.00    -0.149 NA
HETATM    7  C   UNL     1       6.228  34.863  64.450  1.00  0.00     0.275 A 
HETATM    8  N   UNL     1       6.891  33.753  64.911  1.00  0.00    -0.054 NA
HETATM    9  C   UNL     1       6.768  33.333  61.347  1.00  0.00     0.202 C 
HETATM   10  C   UNL     1       7.706  32.134  61.238  1.00  0.00     0.062 C 
HETATM   11  H   UNL     1       8.323  31.543  64.400  1.00  0.00     0.184 HD
ENDROOT
BRANCH  10  12
HETATM   12  C   UNL     1       8.088  31.797  59.842  1.00  0.00     0.256 C 
HETATM   13  N   UNL     1       7.469  30.668  59.356  1.00  0.00    -0.322 N 
HETATM   14  H   UNL     1       6.791  30.212  59.954  1.00  0.00     0.169 HD
HETATM   15  O   UNL     1       8.846  32.542  59.238  1.00  0.00    -0.267 OA
BRANCH  13  16
HETATM   16  C   UNL     1       7.693  30.064  58.099  1.00  0.00     0.052 A 
HETATM   17  C   UNL     1       6.763  29.992  57.066  1.00  0.00     0.145 A 
HETATM   18  N   UNL     1       7.011  29.428  55.855  1.00  0.00    -0.271 NA
HETATM   19  C   UNL     1       8.241  28.913  55.662  1.00  0.00     0.116 A 
HETATM   20  C   UNL     1       9.237  28.931  56.624  1.00  0.00     0.021 A 
HETATM   21  C   UNL     1       8.954  29.513  57.858  1.00  0.00     0.032 A 
ENDBRANCH  13  16
ENDBRANCH  10  12
BRANCH   9  22
HETATM   22  C   UNL     1       5.391  33.026  60.767  1.00  0.00    -0.025 A 
HETATM   23  C   UNL     1       4.533  32.145  61.437  1.00  0.00     0.029 A 
HETATM   24  C   UNL     1       3.277  31.900  60.906  1.00  0.00     0.117 A 
HETATM   25  N   UNL     1       2.818  32.469  59.771  1.00  0.00    -0.273 NA
HETATM   26  C   UNL     1       3.655  33.313  59.134  1.00  0.00     0.117 A 
HETATM   27  C   UNL     1       4.927  33.628  59.589  1.00  0.00     0.029 A 
ENDBRANCH   9  22
TORSDOF 3
ENDMDL
MODEL 3
REMARK VINA RESULT:      -8.0      2.187      7.086
REMARK  3 active torsions:
REMARK  status: ('A' for Active; 'I' for Inactive)
REMARK    1  A    between atoms: C_9  and  C_10 
REMARK    2  A    between atoms: C_16  and  C_17 
REMARK       I    between atoms: C_17  and  N_18 
REMARK    3  A    between atoms: N_18  and  C_19 
ROOT
HETATM    1  C   UNL     1       9.087  24.819  57.767  1.00  0.00     0.070 C 
HETATM    2  C   UNL     1       8.543  24.076  56.572  1.00  0.00     0.037 C 
HETATM    3  N   UNL     1       9.352  23.054  56.083  1.00  0.00    -0.192 N 
HETATM    4  C   UNL     1       8.915  22.131  55.203  1.00  0.00     0.725 A 
HETATM    5  N   UNL     1       7.680  22.280  54.631  1.00  0.00    -0.084 N 
HETATM    6  N   UNL     1       7.376  21.229  53.842  1.00  0.00    -0.149 NA
HETATM    7  C   UNL     1       8.495  20.505  53.954  1.00  0.00     0.275 A 
HETATM    8  N   UNL     1       9.464  21.024  54.775  1.00  0.00    -0.054 NA
HETATM    9  C   UNL     1       6.791  23.419  54.882  1.00  0.00     0.202 C 
HETATM   10  C   UNL     1       7.326  24.291  56.014  1.00  0.00     0.062 C 
HETATM   11  H   UNL     1      10.216  22.858  56.583  1.00  0.00     0.184 HD
ENDROOT
BRANCH  10  12
HETATM   12  C   UNL     1       6.351  25.297  56.509  1.00  0.00     0.256 C 
HETATM   13  N   UNL     1       6.588  26.572  56.047  1.00  0.00    -0.322 N 
HETATM   14  H   UNL     1       7.349  26.698  55.393  1.00  0.00     0.169 HD
HETATM   15  O   UNL     1       5.421  24.926  57.211  1.00  0.00    -0.267 OA
BRANCH  13  16
HETATM   16  C   UNL     1       5.879  27.739  56.407  1.00  0.00     0.052 A 
HETATM   17  C   UNL     1       6.287  28.663  57.365  1.00  0.00     0.145 A 
HETATM   18  N   UNL     1       5.599  29.793  57.676  1.00  0.00    -0.271 NA
HETATM   19  C   UNL     1       4.454  30.015  57.003  1.00  0.00     0.116 A 
HETATM   20  C   UNL     1       3.959  29.159  56.033  1.00  0.00     0.021 A 
HETATM   21  C   UNL     1       4.683  28.006  55.736  1.00  0.00     0.032 A 
ENDBRANCH  13  16
ENDBRANCH  10  12
BRANCH   9  22
HETATM   22  C   UNL     1       6.575  24.223  53.604  1.00  0.00    -0.025 A 
HETATM   23  C   UNL     1       5.277  24.574  53.212  1.00  0.00     0.029 A 
HETATM   24  C   UNL     1       5.106  25.327  52.061  1.00  0.00     0.117 A 
HETATM   25  N   UNL     1       6.125  25.755  51.286  1.00  0.00    -0.273 NA
HETATM   26  C   UNL     1       7.369  25.409  51.673  1.00  0.00     0.117 A 
HETATM   27  C   UNL     1       7.644  24.665  52.811  1.00  0.00     0.029 A 
ENDBRANCH   9  22
TORSDOF 3
ENDMDL
MODEL 4
REMARK VINA RESULT:      -8.0      4.145      8.321
REMARK  3 active torsions:
REMARK  status: ('A' for Active; 'I' for Inactive)
REMARK    1  A    between atoms: C_9  and  C_10 
REMARK    2  A    between atoms: C_16  and  C_17 
REMARK       I    between atoms: C_17  and  N_18 
REMARK    3  A    between atoms: N_18  and  C_19 
ROOT
HETATM    1  C   UNL     1      10.159  30.454  58.074  1.00  0.00     0.070 C 
HETATM    2  C   UNL     1       8.863  29.760  57.739  1.00  0.00     0.037 C 
HETATM    3  N   UNL     1       8.977  28.643  56.916  1.00  0.00    -0.192 N 
HETATM    4  C   UNL     1       7.973  27.763  56.731  1.00  0.00     0.725 A 
HETATM    5  N   UNL     1       6.731  28.045  57.235  1.00  0.00    -0.084 N 
HETATM    6  N   UNL     1       5.875  27.023  57.028  1.00  0.00    -0.149 NA
HETATM    7  C   UNL     1       6.661  26.176  56.354  1.00  0.00     0.275 A 
HETATM    8  N   UNL     1       7.952  26.593  56.147  1.00  0.00    -0.054 NA
HETATM    9  C   UNL     1       6.395  29.283  57.946  1.00  0.00     0.202 C 
HETATM   10  C   UNL     1       7.648  30.105  58.233  1.00  0.00     0.062 C 
HETATM   11  H   UNL     1       9.913  28.356  56.639  1.00  0.00     0.184 HD
ENDROOT
BRANCH  10  12
HETATM   12  C   UNL     1       7.426  31.226  59.184  1.00  0.00     0.256 C 
HETATM   13  N   UNL     1       7.461  30.845  60.506  1.00  0.00    -0.322 N 
HETATM   14  H   UNL     1       7.679  29.878  60.709  1.00  0.00     0.169 HD
HETATM   15  O   UNL     1       7.291  32.358  58.744  1.00  0.00    -0.267 OA
BRANCH  13  16
HETATM   16  C   UNL     1       7.209  31.671  61.623  1.00  0.00     0.052 A 
HETATM   17  C   UNL     1       5.970  32.211  61.958  1.00  0.00     0.145 A 
HETATM   18  N   UNL     1       5.747  32.983  63.054  1.00  0.00    -0.271 NA
HETATM   19  C   UNL     1       6.803  33.229  63.853  1.00  0.00     0.116 A 
HETATM   20  C   UNL     1       8.076  32.743  63.609  1.00  0.00     0.021 A 
HETATM   21  C   UNL     1       8.277  31.955  62.477  1.00  0.00     0.032 A 
ENDBRANCH  13  16
ENDBRANCH  10  12
BRANCH   9  22
HETATM   22  C   UNL     1       5.361  30.086  57.165  1.00  0.00    -0.025 A 
HETATM   23  C   UNL     1       4.124  30.387  57.751  1.00  0.00     0.029 A 
HETATM   24  C   UNL     1       3.209  31.140  57.033  1.00  0.00     0.117 A 
HETATM   25  N   UNL     1       3.438  31.613  55.789  1.00  0.00    -0.273 NA
HETATM   26  C   UNL     1       4.630  31.314  55.235  1.00  0.00     0.117 A 
HETATM   27  C   UNL     1       5.614  30.575  55.875  1.00  0.00     0.029 A 
ENDBRANCH   9  22
TORSDOF 3
ENDMDL
MODEL 5
REMARK VINA RESULT:      -7.6      2.041      5.452
REMARK  3 active torsions:
REMARK  status: ('A' for Active; 'I' for Inactive)
REMARK    1  A    between atoms: C_9  and  C_10 
REMARK    2  A    between atoms: C_16  and  C_17 
REMARK       I    between atoms: C_17  and  N_18 
REMARK    3  A    between atoms: N_18  and  C_19 
ROOT
HETATM    1  C   UNL     1       3.781  29.176  55.782  1.00  0.00     0.070 C 
HETATM    2  C   UNL     1       4.325  28.637  54.482  1.00  0.00     0.037 C 
HETATM    3  N   UNL     1       3.448  28.682  53.402  1.00  0.00    -0.192 N 
HETATM    4  C   UNL     1       3.845  28.490  52.128  1.00  0.00     0.725 A 
HETATM    5  N   UNL     1       5.125  28.074  51.878  1.00  0.00    -0.084 N 
HETATM    6  N   UNL     1       5.370  28.012  50.553  1.00  0.00    -0.149 NA
HETATM    7  C   UNL     1       4.175  28.365  50.065  1.00  0.00     0.275 A 
HETATM    8  N   UNL     1       3.213  28.661  50.996  1.00  0.00    -0.054 NA
HETATM    9  C   UNL     1       6.111  27.778  52.923  1.00  0.00     0.202 C 
HETATM   10  C   UNL     1       5.594  28.196  54.296  1.00  0.00     0.062 C 
HETATM   11  H   UNL     1       2.536  29.105  53.554  1.00  0.00     0.184 HD
ENDROOT
BRANCH  10  12
HETATM   12  C   UNL     1       6.633  28.184  55.358  1.00  0.00     0.256 C 
HETATM   13  N   UNL     1       7.321  29.371  55.473  1.00  0.00    -0.322 N 
HETATM   14  H   UNL     1       7.033  30.138  54.879  1.00  0.00     0.169 HD
HETATM   15  O   UNL     1       6.757  27.188  56.056  1.00  0.00    -0.267 OA
BRANCH  13  16
HETATM   16  C   UNL     1       8.410  29.629  56.335  1.00  0.00     0.052 A 
HETATM   17  C   UNL     1       8.303  30.032  57.663  1.00  0.00     0.145 A 
HETATM   18  N   UNL     1       9.367  30.248  58.481  1.00  0.00    -0.271 NA
HETATM   19  C   UNL     1      10.592  30.056  57.954  1.00  0.00     0.116 A 
HETATM   20  C   UNL     1      10.807  29.659  56.645  1.00  0.00     0.021 A 
HETATM   21  C   UNL     1       9.698  29.446  55.828  1.00  0.00     0.032 A 
ENDBRANCH  13  16
ENDBRANCH  10  12
BRANCH   9  22
HETATM   22  C   UNL     1       6.498  26.303  52.892  1.00  0.00    -0.025 A 
HETATM   23  C   UNL     1       7.811  25.934  52.573  1.00  0.00     0.029 A 
HETATM   24  C   UNL     1       8.148  24.589  52.576  1.00  0.00     0.117 A 
HETATM   25  N   UNL     1       7.281  23.599  52.875  1.00  0.00    -0.273 NA
HETATM   26  C   UNL     1       6.019  23.968  53.177  1.00  0.00     0.117 A 
HETATM   27  C   UNL     1       5.587  25.285  53.209  1.00  0.00     0.029 A 
ENDBRANCH   9  22
TORSDOF 3
ENDMDL
MODEL 6
REMARK VINA RESULT:      -7.5      2.874      5.403
REMARK  3 active torsions:
REMARK  status: ('A' for Active; 'I' for Inactive)
REMARK    1  A    between atoms: C_9  and  C_10 
REMARK    2  A    between atoms: C_16  and  C_17 
REMARK       I    between atoms: C_17  and  N_18 
REMARK    3  A    between atoms: N_18  and  C_19 
ROOT
HETATM    1  C   UNL     1       4.391  29.104  54.647  1.00  0.00     0.070 C 
HETATM    2  C   UNL     1       4.678  29.231  53.172  1.00  0.00     0.037 C 
HETATM    3  N   UNL     1       4.657  30.528  52.666  1.00  0.00    -0.192 N 
HETATM    4  C   UNL     1       5.140  30.847  51.449  1.00  0.00     0.725 A 
HETATM    5  N   UNL     1       5.524  29.849  50.595  1.00  0.00    -0.084 N 
HETATM    6  N   UNL     1       6.054  30.351  49.461  1.00  0.00    -0.149 NA
HETATM    7  C   UNL     1       5.917  31.663  49.685  1.00  0.00     0.275 A 
HETATM    8  N   UNL     1       5.358  32.009  50.889  1.00  0.00    -0.054 NA
HETATM    9  C   UNL     1       5.409  28.418  50.899  1.00  0.00     0.202 C 
HETATM   10  C   UNL     1       5.014  28.200  52.357  1.00  0.00     0.062 C 
HETATM   11  H   UNL     1       4.494  31.286  53.324  1.00  0.00     0.184 HD
ENDROOT
BRANCH  10  12
HETATM   12  C   UNL     1       5.147  26.791  52.810  1.00  0.00     0.256 C 
HETATM   13  N   UNL     1       6.434  26.438  53.149  1.00  0.00    -0.322 N 
HETATM   14  H   UNL     1       7.142  27.160  53.109  1.00  0.00     0.169 HD
HETATM   15  O   UNL     1       4.143  26.099  52.899  1.00  0.00    -0.267 OA
BRANCH  13  16
HETATM   16  C   UNL     1       6.876  25.155  53.537  1.00  0.00     0.052 A 
HETATM   17  C   UNL     1       6.732  24.607  54.809  1.00  0.00     0.145 A 
HETATM   18  N   UNL     1       7.143  23.358  55.152  1.00  0.00    -0.271 NA
HETATM   19  C   UNL     1       7.724  22.620  54.186  1.00  0.00     0.116 A 
HETATM   20  C   UNL     1       7.917  23.071  52.891  1.00  0.00     0.021 A 
HETATM   21  C   UNL     1       7.488  24.357  52.568  1.00  0.00     0.032 A 
ENDBRANCH  13  16
ENDBRANCH  10  12
BRANCH   9  22
HETATM   22  C   UNL     1       4.432  27.743  49.943  1.00  0.00    -0.025 A 
HETATM   23  C   UNL     1       3.185  28.330  49.690  1.00  0.00     0.029 A 
HETATM   24  C   UNL     1       2.323  27.713  48.797  1.00  0.00     0.117 A 
HETATM   25  N   UNL     1       2.615  26.569  48.142  1.00  0.00    -0.273 NA
HETATM   26  C   UNL     1       3.816  26.013  48.396  1.00  0.00     0.117 A 
HETATM   27  C   UNL     1       4.750  26.557  49.265  1.00  0.00     0.029 A 
ENDBRANCH   9  22
TORSDOF 3
ENDMDL
MODEL 7
REMARK VINA RESULT:      -7.5      7.433     11.105
REMARK  3 active torsions:
REMARK  status: ('A' for Active; 'I' for Inactive)
REMARK    1  A    between atoms: C_9  and  C_10 
REMARK    2  A    between atoms: C_16  and  C_17 
REMARK       I    between atoms: C_17  and  N_18 
REMARK    3  A    between atoms: N_18  and  C_19 
ROOT
HETATM    1  C   UNL     1       8.066  31.731  61.494  1.00  0.00     0.070 C 
HETATM    2  C   UNL     1       6.778  32.003  60.758  1.00  0.00     0.037 C 
HETATM    3  N   UNL     1       6.855  31.934  59.370  1.00  0.00    -0.192 N 
HETATM    4  C   UNL     1       5.766  31.891  58.576  1.00  0.00     0.725 A 
HETATM    5  N   UNL     1       4.527  32.084  59.125  1.00  0.00    -0.084 N 
HETATM    6  N   UNL     1       3.554  31.927  58.204  1.00  0.00    -0.149 NA
HETATM    7  C   UNL     1       4.286  31.683  57.111  1.00  0.00     0.275 A 
HETATM    8  N   UNL     1       5.645  31.657  57.295  1.00  0.00    -0.054 NA
HETATM    9  C   UNL     1       4.293  32.379  60.543  1.00  0.00     0.202 C 
HETATM   10  C   UNL     1       5.579  32.231  61.351  1.00  0.00     0.062 C 
HETATM   11  H   UNL     1       7.748  31.669  58.961  1.00  0.00     0.184 HD
ENDROOT
BRANCH  10  12
HETATM   12  C   UNL     1       5.368  32.243  62.821  1.00  0.00     0.256 C 
HETATM   13  N   UNL     1       5.649  33.454  63.412  1.00  0.00    -0.322 N 
HETATM   14  H   UNL     1       5.915  34.219  62.805  1.00  0.00     0.169 HD
HETATM   15  O   UNL     1       4.929  31.240  63.365  1.00  0.00    -0.267 OA
BRANCH  13  16
HETATM   16  C   UNL     1       5.616  33.741  64.794  1.00  0.00     0.052 A 
HETATM   17  C   UNL     1       4.460  33.908  65.551  1.00  0.00     0.145 A 
HETATM   18  N   UNL     1       4.454  34.158  66.887  1.00  0.00    -0.271 NA
HETATM   19  C   UNL     1       5.652  34.244  67.498  1.00  0.00     0.116 A 
HETATM   20  C   UNL     1       6.859  34.096  66.837  1.00  0.00     0.021 A 
HETATM   21  C   UNL     1       6.836  33.843  65.466  1.00  0.00     0.032 A 
ENDBRANCH  13  16
ENDBRANCH  10  12
BRANCH   9  22
HETATM   22  C   UNL     1       3.681  33.766  60.707  1.00  0.00    -0.025 A 
HETATM   23  C   UNL     1       4.381  34.895  60.263  1.00  0.00     0.029 A 
HETATM   24  C   UNL     1       3.795  36.144  60.398  1.00  0.00     0.117 A 
HETATM   25  N   UNL     1       2.572  36.344  60.934  1.00  0.00    -0.273 NA
HETATM   26  C   UNL     1       1.910  35.250  61.361  1.00  0.00     0.117 A 
HETATM   27  C   UNL     1       2.407  33.959  61.262  1.00  0.00     0.029 A 
ENDBRANCH   9  22
TORSDOF 3
ENDMDL
MODEL 8
REMARK VINA RESULT:      -7.5      1.910      3.729
REMARK  3 active torsions:
REMARK  status: ('A' for Active; 'I' for Inactive)
REMARK    1  A    between atoms: C_9  and  C_10 
REMARK    2  A    between atoms: C_16  and  C_17 
REMARK       I    between atoms: C_17  and  N_18 
REMARK    3  A    between atoms: N_18  and  C_19 
ROOT
HETATM    1  C   UNL     1       4.558  25.038  57.489  1.00  0.00     0.070 C 
HETATM    2  C   UNL     1       5.019  26.278  56.764  1.00  0.00     0.037 C 
HETATM    3  N   UNL     1       4.909  27.466  57.479  1.00  0.00    -0.192 N 
HETATM    4  C   UNL     1       5.505  28.612  57.093  1.00  0.00     0.725 A 
HETATM    5  N   UNL     1       6.115  28.673  55.869  1.00  0.00    -0.084 N 
HETATM    6  N   UNL     1       6.725  29.861  55.684  1.00  0.00    -0.149 NA
HETATM    7  C   UNL     1       6.403  30.483  56.824  1.00  0.00     0.275 A 
HETATM    8  N   UNL     1       5.653  29.755  57.712  1.00  0.00    -0.054 NA
HETATM    9  C   UNL     1       6.134  27.567  54.906  1.00  0.00     0.202 C 
HETATM   10  C   UNL     1       5.580  26.289  55.529  1.00  0.00     0.062 C 
HETATM   11  H   UNL     1       4.571  27.409  58.437  1.00  0.00     0.184 HD
ENDROOT
BRANCH  10  12
HETATM   12  C   UNL     1       5.821  25.070  54.714  1.00  0.00     0.256 C 
HETATM   13  N   UNL     1       6.820  24.262  55.210  1.00  0.00    -0.322 N 
HETATM   14  H   UNL     1       7.251  24.534  56.084  1.00  0.00     0.169 HD
HETATM   15  O   UNL     1       5.112  24.856  53.742  1.00  0.00    -0.267 OA
BRANCH  13  16
HETATM   16  C   UNL     1       7.320  23.085  54.611  1.00  0.00     0.052 A 
HETATM   17  C   UNL     1       7.674  22.954  53.271  1.00  0.00     0.145 A 
HETATM   18  N   UNL     1       8.178  21.817  52.724  1.00  0.00    -0.271 NA
HETATM   19  C   UNL     1       8.336  20.762  53.546  1.00  0.00     0.116 A 
HETATM   20  C   UNL     1       8.013  20.786  54.892  1.00  0.00     0.021 A 
HETATM   21  C   UNL     1       7.496  21.965  55.427  1.00  0.00     0.032 A 
ENDBRANCH  13  16
ENDBRANCH  10  12
BRANCH   9  22
HETATM   22  C   UNL     1       5.380  27.948  53.636  1.00  0.00    -0.025 A 
HETATM   23  C   UNL     1       6.054  27.984  52.409  1.00  0.00     0.029 A 
HETATM   24  C   UNL     1       5.343  28.308  51.264  1.00  0.00     0.117 A 
HETATM   25  N   UNL     1       4.023  28.590  51.255  1.00  0.00    -0.273 NA
HETATM   26  C   UNL     1       3.386  28.554  52.443  1.00  0.00     0.117 A 
HETATM   27  C   UNL     1       4.006  28.234  53.641  1.00  0.00     0.029 A 
ENDBRANCH   9  22
TORSDOF 3
ENDMDL
MODEL 9
REMARK VINA RESULT:      -7.5      2.094      5.920
REMARK  3 active torsions:
REMARK  status: ('A' for Active; 'I' for Inactive)
REMARK    1  A    between atoms: C_9  and  C_10 
REMARK    2  A    between atoms: C_16  and  C_17 
REMARK       I    between atoms: C_17  and  N_18 
REMARK    3  A    between atoms: N_18  and  C_19 
ROOT
HETATM    1  C   UNL     1       3.952  28.683  55.667  1.00  0.00     0.070 C 
HETATM    2  C   UNL     1       4.928  27.713  55.048  1.00  0.00     0.037 C 
HETATM    3  N   UNL     1       4.475  27.049  53.912  1.00  0.00    -0.192 N 
HETATM    4  C   UNL     1       5.291  26.357  53.094  1.00  0.00     0.725 A 
HETATM    5  N   UNL     1       6.594  26.150  53.461  1.00  0.00    -0.084 N 
HETATM    6  N   UNL     1       7.281  25.512  52.491  1.00  0.00    -0.149 NA
HETATM    7  C   UNL     1       6.314  25.328  51.585  1.00  0.00     0.275 A 
HETATM    8  N   UNL     1       5.080  25.826  51.917  1.00  0.00    -0.054 NA
HETATM    9  C   UNL     1       7.171  26.606  54.730  1.00  0.00     0.202 C 
HETATM   10  C   UNL     1       6.200  27.514  55.478  1.00  0.00     0.062 C 
HETATM   11  H   UNL     1       3.551  27.291  53.564  1.00  0.00     0.184 HD
ENDROOT
BRANCH  10  12
HETATM   12  C   UNL     1       6.811  28.232  56.626  1.00  0.00     0.256 C 
HETATM   13  N   UNL     1       7.648  29.260  56.254  1.00  0.00    -0.322 N 
HETATM   14  H   UNL     1       7.730  29.462  55.266  1.00  0.00     0.169 HD
HETATM   15  O   UNL     1       6.497  27.909  57.762  1.00  0.00    -0.267 OA
BRANCH  13  16
HETATM   16  C   UNL     1       8.424  30.063  57.118  1.00  0.00     0.052 A 
HETATM   17  C   UNL     1       7.915  30.938  58.073  1.00  0.00     0.145 A 
HETATM   18  N   UNL     1       8.684  31.681  58.912  1.00  0.00    -0.271 NA
HETATM   19  C   UNL     1      10.019  31.548  58.796  1.00  0.00     0.116 A 
HETATM   20  C   UNL     1      10.627  30.707  57.879  1.00  0.00     0.021 A 
HETATM   21  C   UNL     1       9.814  29.958  57.029  1.00  0.00     0.032 A 
ENDBRANCH  13  16
ENDBRANCH  10  12
BRANCH   9  22
HETATM   22  C   UNL     1       7.600  25.416  55.582  1.00  0.00    -0.025 A 
HETATM   23  C   UNL     1       7.072  24.145  55.321  1.00  0.00     0.029 A 
HETATM   24  C   UNL     1       7.495  23.073  56.090  1.00  0.00     0.117 A 
HETATM   25  N   UNL     1       8.401  23.176  57.086  1.00  0.00    -0.273 NA
HETATM   26  C   UNL     1       8.899  24.404  57.329  1.00  0.00     0.117 A 
HETATM   27  C   UNL     1       8.545  25.537  56.611  1.00  0.00     0.029 A 
ENDBRANCH   9  22
TORSDOF 3
ENDMDL
MODEL 10
REMARK VINA RESULT:      -7.3      2.006      3.632
REMARK  3 active torsions:
REMARK  status: ('A' for Active; 'I' for Inactive)
REMARK    1  A    between atoms: C_9  and  C_10 
REMARK    2  A    between atoms: C_16  and  C_17 
REMARK       I    between atoms: C_17  and  N_18 
REMARK    3  A    between atoms: N_18  and  C_19 
ROOT
HETATM    1  C   UNL     1       5.093  25.286  57.454  1.00  0.00     0.070 C 
HETATM    2  C   UNL     1       5.079  26.341  56.376  1.00  0.00     0.037 C 
HETATM    3  N   UNL     1       4.164  27.373  56.560  1.00  0.00    -0.192 N 
HETATM    4  C   UNL     1       4.196  28.516  55.847  1.00  0.00     0.725 A 
HETATM    5  N   UNL     1       5.053  28.622  54.785  1.00  0.00    -0.084 N 
HETATM    6  N   UNL     1       5.009  29.856  54.240  1.00  0.00    -0.149 NA
HETATM    7  C   UNL     1       4.069  30.427  55.002  1.00  0.00     0.275 A 
HETATM    8  N   UNL     1       3.542  29.640  55.994  1.00  0.00    -0.054 NA
HETATM    9  C   UNL     1       5.935  27.542  54.331  1.00  0.00     0.202 C 
HETATM   10  C   UNL     1       5.926  26.378  55.317  1.00  0.00     0.062 C 
HETATM   11  H   UNL     1       3.610  27.364  57.413  1.00  0.00     0.184 HD
ENDROOT
BRANCH  10  12
HETATM   12  C   UNL     1       6.994  25.375  55.072  1.00  0.00     0.256 C 
HETATM   13  N   UNL     1       6.517  24.111  54.807  1.00  0.00    -0.322 N 
HETATM   14  H   UNL     1       5.513  23.992  54.754  1.00  0.00     0.169 HD
HETATM   15  O   UNL     1       8.161  25.739  55.067  1.00  0.00    -0.267 OA
BRANCH  13  16
HETATM   16  C   UNL     1       7.291  22.946  54.613  1.00  0.00     0.052 A 
HETATM   17  C   UNL     1       7.861  22.183  55.628  1.00  0.00     0.145 A 
HETATM   18  N   UNL     1       8.581  21.050  55.416  1.00  0.00    -0.271 NA
HETATM   19  C   UNL     1       8.741  20.658  54.138  1.00  0.00     0.116 A 
HETATM   20  C   UNL     1       8.218  21.346  53.056  1.00  0.00     0.021 A 
HETATM   21  C   UNL     1       7.485  22.506  53.302  1.00  0.00     0.032 A 
ENDBRANCH  13  16
ENDBRANCH  10  12
BRANCH   9  22
HETATM   22  C   UNL     1       5.551  27.092  52.925  1.00  0.00    -0.025 A 
HETATM   23  C   UNL     1       5.772  27.945  51.835  1.00  0.00     0.029 A 
HETATM   24  C   UNL     1       5.441  27.506  50.563  1.00  0.00     0.117 A 
HETATM   25  N   UNL     1       4.915  26.290  50.303  1.00  0.00    -0.273 NA
HETATM   26  C   UNL     1       4.705  25.480  51.360  1.00  0.00     0.117 A 
HETATM   27  C   UNL     1       5.010  25.824  52.668  1.00  0.00     0.029 A 
ENDBRANCH   9  22
TORSDOF 3
ENDMDL
