MODEL 1
REMARK VINA RESULT:     -10.5      0.000      0.000
REMARK  8 active torsions:
REMARK  status: ('A' for Active; 'I' for Inactive)
REMARK    1  A    between atoms: C_7  and  S_8 
REMARK    2  A    between atoms: S_8  and  N_9 
REMARK    3  A    between atoms: N_9  and  C_10 
REMARK    4  A    between atoms: C_19  and  N_20 
REMARK    5  A    between atoms: C_25  and  N_26 
REMARK    6  A    between atoms: C_30  and  S_31 
REMARK    7  A    between atoms: S_31  and  N_32 
REMARK    8  A    between atoms: N_32  and  C_33 
ROOT
HETATM    1  C   UNL     1       6.814  28.508  55.089  1.00  0.00     0.041 A 
HETATM    2  C   UNL     1       6.916  29.255  56.250  1.00  0.00     0.030 A 
HETATM    3  C   UNL     1       5.961  30.189  56.707  1.00  0.00     0.025 A 
HETATM    4  C   UNL     1       6.472  30.790  57.952  1.00  0.00     0.025 C 
HETATM    5  C   UNL     1       7.613  30.062  58.354  1.00  0.00     0.030 C 
HETATM    6  C   UNL     1       8.318  30.264  59.530  1.00  0.00     0.041 C 
HETATM    7  C   UNL     1       7.882  31.299  60.353  1.00  0.00     0.077 C 
HETATM    8  C   UNL     1       6.846  32.153  59.941  1.00  0.00     0.061 C 
HETATM    9  C   UNL     1       6.155  31.900  58.736  1.00  0.00     0.116 C 
HETATM   10  C   UNL     1       7.951  29.112  57.285  1.00  0.00     0.194 C 
HETATM   11  O   UNL     1       8.887  28.343  57.269  1.00  0.00    -0.287 OA
HETATM   12  C   UNL     1       4.770  30.246  55.981  1.00  0.00     0.116 A 
HETATM   13  C   UNL     1       4.616  29.505  54.788  1.00  0.00     0.062 A 
HETATM   14  C   UNL     1       5.642  28.648  54.353  1.00  0.00     0.082 A 
ENDROOT
BRANCH   7  15
HETATM   15  S   UNL     1       8.726  31.605  61.888  1.00  0.00     0.241 S 
HETATM   16  O   UNL     1       8.522  30.443  62.723  1.00  0.00    -0.206 OA
HETATM   17  O   UNL     1      10.044  32.114  61.588  1.00  0.00    -0.206 OA
BRANCH  15  18
HETATM   18  N   UNL     1       7.776  32.831  62.554  1.00  0.00    -0.211 NA
HETATM   19  H   UNL     1       7.231  33.259  61.802  1.00  0.00     0.140 HD
BRANCH  18  20
HETATM   20  C   UNL     1       7.002  32.559  63.794  1.00  0.00     0.071 C 
HETATM   21  C   UNL     1       7.005  33.755  64.750  1.00  0.00     0.020 C 
HETATM   22  C   UNL     1       6.247  34.959  64.196  1.00  0.00     0.002 C 
HETATM   23  C   UNL     1       4.817  34.587  63.819  1.00  0.00     0.000 C 
HETATM   24  C   UNL     1       4.777  33.404  62.860  1.00  0.00     0.002 C 
HETATM   25  C   UNL     1       5.557  32.205  63.400  1.00  0.00     0.020 C 
ENDBRANCH  18  20
ENDBRANCH  15  18
ENDBRANCH   7  15
BRANCH   9  26
HETATM   26  N   UNL     1       5.244  32.938  58.274  1.00  0.00    -0.115 N 
HETATM   27  O   UNL     1       5.578  33.557  57.255  1.00  0.00    -0.532 OA
HETATM   28  O   UNL     1       4.234  33.157  58.953  1.00  0.00    -0.532 OA
ENDBRANCH   9  26
BRANCH  12  29
HETATM   29  N   UNL     1       3.566  30.861  56.522  1.00  0.00    -0.115 N 
HETATM   30  O   UNL     1       3.092  30.347  57.544  1.00  0.00    -0.532 OA
HETATM   31  O   UNL     1       3.067  31.800  55.892  1.00  0.00    -0.532 OA
ENDBRANCH  12  29
BRANCH  14  32
HETATM   32  S   UNL     1       5.394  27.680  52.886  1.00  0.00     0.259 S 
HETATM   33  O   UNL     1       4.060  27.135  52.975  1.00  0.00    -0.201 OA
HETATM   34  O   UNL     1       5.842  28.444  51.745  1.00  0.00    -0.201 OA
BRANCH  32  35
HETATM   35  N   UNL     1       6.449  26.388  53.133  1.00  0.00    -0.311 N 
HETATM   36  H   UNL     1       7.287  26.723  53.614  1.00  0.00     0.172 HD
BRANCH  35  37
HETATM   37  C   UNL     1       5.919  25.081  53.594  1.00  0.00     0.093 C 
HETATM   38  C   UNL     1       6.632  23.907  52.918  1.00  0.00     0.026 C 
HETATM   39  C   UNL     1       8.101  23.794  53.325  1.00  0.00     0.002 C 
HETATM   40  C   UNL     1       8.250  23.704  54.841  1.00  0.00     0.000 C 
HETATM   41  C   UNL     1       7.550  24.861  55.549  1.00  0.00     0.002 C 
HETATM   42  C   UNL     1       6.089  24.991  55.120  1.00  0.00     0.026 C 
ENDBRANCH  35  37
ENDBRANCH  32  35
ENDBRANCH  14  32
TORSDOF 8
ENDMDL
MODEL 2
REMARK VINA RESULT:     -10.5      1.747      9.696
REMARK  8 active torsions:
REMARK  status: ('A' for Active; 'I' for Inactive)
REMARK    1  A    between atoms: C_7  and  S_8 
REMARK    2  A    between atoms: S_8  and  N_9 
REMARK    3  A    between atoms: N_9  and  C_10 
REMARK    4  A    between atoms: C_19  and  N_20 
REMARK    5  A    between atoms: C_25  and  N_26 
REMARK    6  A    between atoms: C_30  and  S_31 
REMARK    7  A    between atoms: S_31  and  N_32 
REMARK    8  A    between atoms: N_32  and  C_33 
ROOT
HETATM    1  C   UNL     1       8.203  29.629  58.802  1.00  0.00     0.041 A 
HETATM    2  C   UNL     1       7.590  28.998  57.733  1.00  0.00     0.030 A 
HETATM    3  C   UNL     1       6.463  29.482  57.033  1.00  0.00     0.025 A 
HETATM    4  C   UNL     1       6.106  28.492  56.002  1.00  0.00     0.025 C 
HETATM    5  C   UNL     1       7.141  27.534  55.939  1.00  0.00     0.030 C 
HETATM    6  C   UNL     1       7.215  26.496  55.024  1.00  0.00     0.041 C 
HETATM    7  C   UNL     1       6.157  26.373  54.126  1.00  0.00     0.077 C 
HETATM    8  C   UNL     1       5.029  27.203  54.234  1.00  0.00     0.061 C 
HETATM    9  C   UNL     1       5.005  28.250  55.180  1.00  0.00     0.116 C 
HETATM   10  C   UNL     1       8.075  27.792  57.044  1.00  0.00     0.194 C 
HETATM   11  O   UNL     1       9.066  27.153  57.319  1.00  0.00    -0.287 OA
HETATM   12  C   UNL     1       6.038  30.767  57.381  1.00  0.00     0.116 A 
HETATM   13  C   UNL     1       6.630  31.454  58.465  1.00  0.00     0.062 A 
HETATM   14  C   UNL     1       7.703  30.875  59.165  1.00  0.00     0.082 A 
ENDROOT
BRANCH   7  15
HETATM   15  S   UNL     1       6.192  25.076  52.910  1.00  0.00     0.241 S 
HETATM   16  O   UNL     1       4.822  24.815  52.530  1.00  0.00    -0.206 OA
HETATM   17  O   UNL     1       7.212  25.391  51.939  1.00  0.00    -0.206 OA
BRANCH  15  18
HETATM   18  N   UNL     1       6.676  23.756  53.844  1.00  0.00    -0.211 NA
HETATM   19  H   UNL     1       6.023  22.986  53.675  1.00  0.00     0.140 HD
BRANCH  18  20
HETATM   20  C   UNL     1       8.107  23.355  53.851  1.00  0.00     0.071 C 
HETATM   21  C   UNL     1       8.579  22.923  55.241  1.00  0.00     0.020 C 
HETATM   22  C   UNL     1       7.917  21.631  55.717  1.00  0.00     0.002 C 
HETATM   23  C   UNL     1       8.122  20.501  54.715  1.00  0.00     0.000 C 
HETATM   24  C   UNL     1       7.654  20.895  53.319  1.00  0.00     0.002 C 
HETATM   25  C   UNL     1       8.296  22.201  52.850  1.00  0.00     0.020 C 
ENDBRANCH  18  20
ENDBRANCH  15  18
ENDBRANCH   7  15
BRANCH   9  26
HETATM   26  N   UNL     1       3.732  28.929  55.374  1.00  0.00    -0.115 N 
HETATM   27  O   UNL     1       3.317  29.613  54.429  1.00  0.00    -0.532 OA
HETATM   28  O   UNL     1       3.183  28.811  56.476  1.00  0.00    -0.532 OA
ENDBRANCH   9  26
BRANCH  12  29
HETATM   29  N   UNL     1       5.156  31.545  56.523  1.00  0.00    -0.115 N 
HETATM   30  O   UNL     1       4.066  31.880  57.007  1.00  0.00    -0.532 OA
HETATM   31  O   UNL     1       5.522  31.755  55.362  1.00  0.00    -0.532 OA
ENDBRANCH  12  29
BRANCH  14  32
HETATM   32  S   UNL     1       8.469  31.790  60.480  1.00  0.00     0.259 S 
HETATM   33  O   UNL     1       9.149  30.823  61.310  1.00  0.00    -0.201 OA
HETATM   34  O   UNL     1       9.145  32.935  59.916  1.00  0.00    -0.201 OA
BRANCH  32  35
HETATM   35  N   UNL     1       7.136  32.317  61.367  1.00  0.00    -0.311 N 
HETATM   36  H   UNL     1       6.321  32.372  60.752  1.00  0.00     0.172 HD
BRANCH  35  37
HETATM   37  C   UNL     1       6.886  31.767  62.721  1.00  0.00     0.093 C 
HETATM   38  C   UNL     1       7.525  32.629  63.814  1.00  0.00     0.026 C 
HETATM   39  C   UNL     1       6.881  34.009  63.929  1.00  0.00     0.002 C 
HETATM   40  C   UNL     1       5.375  33.901  64.152  1.00  0.00     0.000 C 
HETATM   41  C   UNL     1       4.704  33.049  63.080  1.00  0.00     0.002 C 
HETATM   42  C   UNL     1       5.367  31.678  62.945  1.00  0.00     0.026 C 
ENDBRANCH  35  37
ENDBRANCH  32  35
ENDBRANCH  14  32
TORSDOF 8
ENDMDL
MODEL 3
REMARK VINA RESULT:     -10.4      0.280      9.426
REMARK  8 active torsions:
REMARK  status: ('A' for Active; 'I' for Inactive)
REMARK    1  A    between atoms: C_7  and  S_8 
REMARK    2  A    between atoms: S_8  and  N_9 
REMARK    3  A    between atoms: N_9  and  C_10 
REMARK    4  A    between atoms: C_19  and  N_20 
REMARK    5  A    between atoms: C_25  and  N_26 
REMARK    6  A    between atoms: C_30  and  S_31 
REMARK    7  A    between atoms: S_31  and  N_32 
REMARK    8  A    between atoms: N_32  and  C_33 
ROOT
HETATM    1  C   UNL     1       8.303  30.141  59.507  1.00  0.00     0.041 A 
HETATM    2  C   UNL     1       7.566  29.946  58.351  1.00  0.00     0.030 A 
HETATM    3  C   UNL     1       6.428  30.690  57.972  1.00  0.00     0.025 A 
HETATM    4  C   UNL     1       5.924  30.136  56.703  1.00  0.00     0.025 C 
HETATM    5  C   UNL     1       6.879  29.218  56.215  1.00  0.00     0.030 C 
HETATM    6  C   UNL     1       6.809  28.561  54.997  1.00  0.00     0.041 C 
HETATM    7  C   UNL     1       5.681  28.802  54.218  1.00  0.00     0.077 C 
HETATM    8  C   UNL     1       4.627  29.588  54.711  1.00  0.00     0.061 C 
HETATM    9  C   UNL     1       4.750  30.241  55.957  1.00  0.00     0.116 C 
HETATM   10  C   UNL     1       7.911  29.037  57.247  1.00  0.00     0.194 C 
HETATM   11  O   UNL     1       8.871  28.302  57.189  1.00  0.00    -0.287 OA
HETATM   12  C   UNL     1       6.124  31.789  58.778  1.00  0.00     0.116 A 
HETATM   13  C   UNL     1       6.844  32.031  59.970  1.00  0.00     0.062 A 
HETATM   14  C   UNL     1       7.922  31.201  60.322  1.00  0.00     0.082 A 
ENDROOT
BRANCH   7  15
HETATM   15  S   UNL     1       5.531  28.009  52.633  1.00  0.00     0.241 S 
HETATM   16  O   UNL     1       4.166  27.545  52.519  1.00  0.00    -0.206 OA
HETATM   17  O   UNL     1       6.138  28.862  51.639  1.00  0.00    -0.206 OA
BRANCH  15  18
HETATM   18  N   UNL     1       6.475  26.628  52.859  1.00  0.00    -0.211 NA
HETATM   19  H   UNL     1       7.229  26.859  53.511  1.00  0.00     0.140 HD
BRANCH  18  20
HETATM   20  C   UNL     1       5.808  25.327  53.128  1.00  0.00     0.071 C 
HETATM   21  C   UNL     1       6.559  24.153  52.496  1.00  0.00     0.020 C 
HETATM   22  C   UNL     1       7.927  23.912  53.131  1.00  0.00     0.002 C 
HETATM   23  C   UNL     1       7.810  23.714  54.638  1.00  0.00     0.000 C 
HETATM   24  C   UNL     1       7.074  24.872  55.303  1.00  0.00     0.002 C 
HETATM   25  C   UNL     1       5.715  25.132  54.652  1.00  0.00     0.020 C 
ENDBRANCH  18  20
ENDBRANCH  15  18
ENDBRANCH   7  15
BRANCH   9  26
HETATM   26  N   UNL     1       3.546  30.861  56.492  1.00  0.00    -0.115 N 
HETATM   27  O   UNL     1       3.055  30.340  57.502  1.00  0.00    -0.532 OA
HETATM   28  O   UNL     1       3.078  31.827  55.878  1.00  0.00    -0.532 OA
ENDBRANCH   9  26
BRANCH  12  29
HETATM   29  N   UNL     1       5.237  32.853  58.328  1.00  0.00    -0.115 N 
HETATM   30  O   UNL     1       5.601  33.493  57.332  1.00  0.00    -0.532 OA
HETATM   31  O   UNL     1       4.229  33.086  59.004  1.00  0.00    -0.532 OA
ENDBRANCH  12  29
BRANCH  14  32
HETATM   32  S   UNL     1       8.849  31.569  61.791  1.00  0.00     0.259 S 
HETATM   33  O   UNL     1       8.770  30.396  62.630  1.00  0.00    -0.201 OA
HETATM   34  O   UNL     1      10.109  32.161  61.409  1.00  0.00    -0.201 OA
BRANCH  32  35
HETATM   35  N   UNL     1       7.889  32.742  62.530  1.00  0.00    -0.311 N 
HETATM   36  H   UNL     1       7.393  33.274  61.812  1.00  0.00     0.172 HD
BRANCH  35  37
HETATM   37  C   UNL     1       7.101  32.397  63.738  1.00  0.00     0.093 C 
HETATM   38  C   UNL     1       7.120  33.525  64.773  1.00  0.00     0.026 C 
HETATM   39  C   UNL     1       6.394  34.780  64.291  1.00  0.00     0.002 C 
HETATM   40  C   UNL     1       4.960  34.466  63.876  1.00  0.00     0.000 C 
HETATM   41  C   UNL     1       4.902  33.344  62.843  1.00  0.00     0.002 C 
HETATM   42  C   UNL     1       5.653  32.098  63.313  1.00  0.00     0.026 C 
ENDBRANCH  35  37
ENDBRANCH  32  35
ENDBRANCH  14  32
TORSDOF 8
ENDMDL
MODEL 4
REMARK VINA RESULT:     -10.1      2.147      9.698
REMARK  8 active torsions:
REMARK  status: ('A' for Active; 'I' for Inactive)
REMARK    1  A    between atoms: C_7  and  S_8 
REMARK    2  A    between atoms: S_8  and  N_9 
REMARK    3  A    between atoms: N_9  and  C_10 
REMARK    4  A    between atoms: C_19  and  N_20 
REMARK    5  A    between atoms: C_25  and  N_26 
REMARK    6  A    between atoms: C_30  and  S_31 
REMARK    7  A    between atoms: S_31  and  N_32 
REMARK    8  A    between atoms: N_32  and  C_33 
ROOT
HETATM    1  C   UNL     1       4.473  31.559  58.116  1.00  0.00     0.041 A 
HETATM    2  C   UNL     1       5.107  30.541  57.423  1.00  0.00     0.030 A 
HETATM    3  C   UNL     1       6.476  30.214  57.521  1.00  0.00     0.025 A 
HETATM    4  C   UNL     1       6.747  29.103  56.592  1.00  0.00     0.025 C 
HETATM    5  C   UNL     1       5.510  28.625  56.109  1.00  0.00     0.030 C 
HETATM    6  C   UNL     1       5.345  27.522  55.285  1.00  0.00     0.041 C 
HETATM    7  C   UNL     1       6.503  26.867  54.873  1.00  0.00     0.077 C 
HETATM    8  C   UNL     1       7.768  27.381  55.198  1.00  0.00     0.061 C 
HETATM    9  C   UNL     1       7.883  28.504  56.045  1.00  0.00     0.116 C 
HETATM   10  C   UNL     1       4.452  29.532  56.576  1.00  0.00     0.194 C 
HETATM   11  O   UNL     1       3.269  29.452  56.331  1.00  0.00    -0.287 OA
HETATM   12  C   UNL     1       7.196  30.900  58.502  1.00  0.00     0.116 A 
HETATM   13  C   UNL     1       6.597  31.948  59.236  1.00  0.00     0.062 A 
HETATM   14  C   UNL     1       5.244  32.269  59.031  1.00  0.00     0.082 A 
ENDROOT
BRANCH   7  15
HETATM   15  S   UNL     1       6.368  25.433  53.830  1.00  0.00     0.241 S 
HETATM   16  O   UNL     1       4.958  25.164  53.661  1.00  0.00    -0.206 OA
HETATM   17  O   UNL     1       7.258  25.603  52.706  1.00  0.00    -0.206 OA
BRANCH  15  18
HETATM   18  N   UNL     1       6.954  24.222  54.849  1.00  0.00    -0.211 NA
HETATM   19  H   UNL     1       6.262  23.470  54.885  1.00  0.00     0.140 HD
BRANCH  18  20
HETATM   20  C   UNL     1       8.358  23.758  54.696  1.00  0.00     0.071 C 
HETATM   21  C   UNL     1       8.860  23.017  55.938  1.00  0.00     0.020 C 
HETATM   22  C   UNL     1       8.141  21.689  56.167  1.00  0.00     0.002 C 
HETATM   23  C   UNL     1       8.237  20.789  54.940  1.00  0.00     0.000 C 
HETATM   24  C   UNL     1       7.736  21.494  53.684  1.00  0.00     0.002 C 
HETATM   25  C   UNL     1       8.435  22.836  53.467  1.00  0.00     0.020 C 
ENDBRANCH  18  20
ENDBRANCH  15  18
ENDBRANCH   7  15
BRANCH   9  26
HETATM   26  N   UNL     1       9.205  29.101  56.166  1.00  0.00    -0.115 N 
HETATM   27  O   UNL     1       9.444  30.076  55.441  1.00  0.00    -0.532 OA
HETATM   28  O   UNL     1      10.006  28.567  56.943  1.00  0.00    -0.532 OA
ENDBRANCH   9  26
BRANCH  12  29
HETATM   29  N   UNL     1       8.488  30.429  58.980  1.00  0.00    -0.115 N 
HETATM   30  O   UNL     1       8.490  29.364  59.613  1.00  0.00    -0.532 OA
HETATM   31  O   UNL     1       9.472  31.151  58.785  1.00  0.00    -0.532 OA
ENDBRANCH  12  29
BRANCH  14  32
HETATM   32  S   UNL     1       4.501  33.547  60.014  1.00  0.00     0.259 S 
HETATM   33  O   UNL     1       4.682  34.781  59.285  1.00  0.00    -0.201 OA
HETATM   34  O   UNL     1       3.204  33.096  60.459  1.00  0.00    -0.201 OA
BRANCH  32  35
HETATM   35  N   UNL     1       5.543  33.625  61.337  1.00  0.00    -0.311 N 
HETATM   36  H   UNL     1       5.789  34.601  61.517  1.00  0.00     0.172 HD
BRANCH  35  37
HETATM   37  C   UNL     1       5.275  32.796  62.537  1.00  0.00     0.093 C 
HETATM   38  C   UNL     1       6.417  31.815  62.819  1.00  0.00     0.026 C 
HETATM   39  C   UNL     1       7.712  32.517  63.225  1.00  0.00     0.002 C 
HETATM   40  C   UNL     1       7.493  33.434  64.424  1.00  0.00     0.000 C 
HETATM   41  C   UNL     1       6.361  34.427  64.178  1.00  0.00     0.002 C 
HETATM   42  C   UNL     1       5.073  33.727  63.745  1.00  0.00     0.026 C 
ENDBRANCH  35  37
ENDBRANCH  32  35
ENDBRANCH  14  32
TORSDOF 8
ENDMDL
MODEL 5
REMARK VINA RESULT:      -9.9      2.221      4.008
REMARK  8 active torsions:
REMARK  status: ('A' for Active; 'I' for Inactive)
REMARK    1  A    between atoms: C_7  and  S_8 
REMARK    2  A    between atoms: S_8  and  N_9 
REMARK    3  A    between atoms: N_9  and  C_10 
REMARK    4  A    between atoms: C_19  and  N_20 
REMARK    5  A    between atoms: C_25  and  N_26 
REMARK    6  A    between atoms: C_30  and  S_31 
REMARK    7  A    between atoms: S_31  and  N_32 
REMARK    8  A    between atoms: N_32  and  C_33 
ROOT
HETATM    1  C   UNL     1       5.420  27.296  55.310  1.00  0.00     0.041 A 
HETATM    2  C   UNL     1       5.518  28.395  56.147  1.00  0.00     0.030 A 
HETATM    3  C   UNL     1       6.722  28.947  56.635  1.00  0.00     0.025 A 
HETATM    4  C   UNL     1       6.381  30.074  57.520  1.00  0.00     0.025 C 
HETATM    5  C   UNL     1       4.999  30.333  57.388  1.00  0.00     0.030 C 
HETATM    6  C   UNL     1       4.320  31.380  57.990  1.00  0.00     0.041 C 
HETATM    7  C   UNL     1       5.061  32.212  58.824  1.00  0.00     0.077 C 
HETATM    8  C   UNL     1       6.404  31.921  59.114  1.00  0.00     0.061 C 
HETATM    9  C   UNL     1       7.052  30.845  58.469  1.00  0.00     0.116 C 
HETATM   10  C   UNL     1       4.410  29.268  56.563  1.00  0.00     0.194 C 
HETATM   11  O   UNL     1       3.242  29.147  56.263  1.00  0.00    -0.287 OA
HETATM   12  C   UNL     1       7.896  28.405  56.107  1.00  0.00     0.116 A 
HETATM   13  C   UNL     1       7.852  27.282  55.251  1.00  0.00     0.062 A 
HETATM   14  C   UNL     1       6.614  26.738  54.866  1.00  0.00     0.082 A 
ENDROOT
BRANCH   7  15
HETATM   15  S   UNL     1       4.260  33.589  59.616  1.00  0.00     0.241 S 
HETATM   16  O   UNL     1       4.513  34.754  58.798  1.00  0.00    -0.206 OA
HETATM   17  O   UNL     1       2.924  33.185  59.986  1.00  0.00    -0.206 OA
BRANCH  15  18
HETATM   18  N   UNL     1       5.208  33.776  61.000  1.00  0.00    -0.211 NA
HETATM   19  H   UNL     1       5.480  34.759  61.072  1.00  0.00     0.140 HD
BRANCH  18  20
HETATM   20  C   UNL     1       4.756  33.169  62.279  1.00  0.00     0.071 C 
HETATM   21  C   UNL     1       5.629  31.982  62.695  1.00  0.00     0.020 C 
HETATM   22  C   UNL     1       7.054  32.394  63.060  1.00  0.00     0.002 C 
HETATM   23  C   UNL     1       7.060  33.462  64.148  1.00  0.00     0.000 C 
HETATM   24  C   UNL     1       6.206  34.664  63.762  1.00  0.00     0.002 C 
HETATM   25  C   UNL     1       4.786  34.252  63.371  1.00  0.00     0.020 C 
ENDBRANCH  18  20
ENDBRANCH  15  18
ENDBRANCH   7  15
BRANCH   9  26
HETATM   26  N   UNL     1       8.369  30.479  58.972  1.00  0.00    -0.115 N 
HETATM   27  O   UNL     1       8.441  29.433  59.631  1.00  0.00    -0.532 OA
HETATM   28  O   UNL     1       9.304  31.257  58.747  1.00  0.00    -0.532 OA
ENDBRANCH   9  26
BRANCH  12  29
HETATM   29  N   UNL     1       9.176  29.092  56.211  1.00  0.00    -0.115 N 
HETATM   30  O   UNL     1       9.345  30.065  55.464  1.00  0.00    -0.532 OA
HETATM   31  O   UNL     1      10.022  28.619  56.979  1.00  0.00    -0.532 OA
ENDBRANCH  12  29
BRANCH  14  32
HETATM   32  S   UNL     1       6.588  25.368  53.736  1.00  0.00     0.259 S 
HETATM   33  O   UNL     1       5.203  25.154  53.386  1.00  0.00    -0.201 OA
HETATM   34  O   UNL     1       7.615  25.568  52.741  1.00  0.00    -0.201 OA
BRANCH  32  35
HETATM   35  N   UNL     1       7.026  24.081  54.733  1.00  0.00    -0.311 N 
HETATM   36  H   UNL     1       6.299  23.363  54.697  1.00  0.00     0.172 HD
BRANCH  35  37
HETATM   37  C   UNL     1       8.424  23.584  54.725  1.00  0.00     0.093 C 
HETATM   38  C   UNL     1       8.988  23.445  56.141  1.00  0.00     0.026 C 
HETATM   39  C   UNL     1       8.288  22.355  56.951  1.00  0.00     0.002 C 
HETATM   40  C   UNL     1       8.334  21.012  56.228  1.00  0.00     0.000 C 
HETATM   41  C   UNL     1       7.778  21.112  54.811  1.00  0.00     0.002 C 
HETATM   42  C   UNL     1       8.459  22.223  54.010  1.00  0.00     0.026 C 
ENDBRANCH  35  37
ENDBRANCH  32  35
ENDBRANCH  14  32
TORSDOF 8
ENDMDL
MODEL 6
REMARK VINA RESULT:      -9.9      2.516     10.155
REMARK  8 active torsions:
REMARK  status: ('A' for Active; 'I' for Inactive)
REMARK    1  A    between atoms: C_7  and  S_8 
REMARK    2  A    between atoms: S_8  and  N_9 
REMARK    3  A    between atoms: N_9  and  C_10 
REMARK    4  A    between atoms: C_19  and  N_20 
REMARK    5  A    between atoms: C_25  and  N_26 
REMARK    6  A    between atoms: C_30  and  S_31 
REMARK    7  A    between atoms: S_31  and  N_32 
REMARK    8  A    between atoms: N_32  and  C_33 
ROOT
HETATM    1  C   UNL     1       4.180  34.072  60.236  1.00  0.00     0.041 A 
HETATM    2  C   UNL     1       4.803  33.042  59.552  1.00  0.00     0.030 A 
HETATM    3  C   UNL     1       6.027  32.440  59.917  1.00  0.00     0.025 A 
HETATM    4  C   UNL     1       6.354  31.421  58.905  1.00  0.00     0.025 C 
HETATM    5  C   UNL     1       5.229  31.259  58.067  1.00  0.00     0.030 C 
HETATM    6  C   UNL     1       5.114  30.321  57.054  1.00  0.00     0.041 C 
HETATM    7  C   UNL     1       6.219  29.506  56.824  1.00  0.00     0.077 C 
HETATM    8  C   UNL     1       7.419  29.715  57.523  1.00  0.00     0.061 C 
HETATM    9  C   UNL     1       7.483  30.681  58.552  1.00  0.00     0.116 C 
HETATM   10  C   UNL     1       4.244  32.294  58.415  1.00  0.00     0.194 C 
HETATM   11  O   UNL     1       3.171  32.479  57.886  1.00  0.00    -0.287 OA
HETATM   12  C   UNL     1       6.561  32.845  61.143  1.00  0.00     0.116 A 
HETATM   13  C   UNL     1       5.964  33.893  61.879  1.00  0.00     0.062 A 
HETATM   14  C   UNL     1       4.784  34.497  61.415  1.00  0.00     0.082 A 
ENDROOT
BRANCH   7  15
HETATM   15  S   UNL     1       6.138  28.266  55.552  1.00  0.00     0.241 S 
HETATM   16  O   UNL     1       4.748  27.898  55.407  1.00  0.00    -0.206 OA
HETATM   17  O   UNL     1       6.936  28.709  54.434  1.00  0.00    -0.206 OA
BRANCH  15  18
HETATM   18  N   UNL     1       6.890  26.959  56.311  1.00  0.00    -0.211 NA
HETATM   19  H   UNL     1       7.137  27.239  57.263  1.00  0.00     0.140 HD
BRANCH  18  20
HETATM   20  C   UNL     1       6.278  25.608  56.210  1.00  0.00     0.071 C 
HETATM   21  C   UNL     1       6.282  25.079  54.773  1.00  0.00     0.020 C 
HETATM   22  C   UNL     1       7.689  24.797  54.249  1.00  0.00     0.002 C 
HETATM   23  C   UNL     1       8.440  23.839  55.168  1.00  0.00     0.000 C 
HETATM   24  C   UNL     1       8.462  24.341  56.607  1.00  0.00     0.002 C 
HETATM   25  C   UNL     1       7.057  24.648  57.125  1.00  0.00     0.020 C 
ENDBRANCH  18  20
ENDBRANCH  15  18
ENDBRANCH   7  15
BRANCH   9  26
HETATM   26  N   UNL     1       8.804  30.985  59.083  1.00  0.00    -0.115 N 
HETATM   27  O   UNL     1       9.295  32.075  58.761  1.00  0.00    -0.532 OA
HETATM   28  O   UNL     1       9.356  30.120  59.773  1.00  0.00    -0.532 OA
ENDBRANCH   9  26
BRANCH  12  29
HETATM   29  N   UNL     1       7.588  32.072  61.828  1.00  0.00    -0.115 N 
HETATM   30  O   UNL     1       7.235  30.987  62.310  1.00  0.00    -0.532 OA
HETATM   31  O   UNL     1       8.709  32.579  61.941  1.00  0.00    -0.532 OA
ENDBRANCH  12  29
BRANCH  14  32
HETATM   32  S   UNL     1       4.021  35.766  62.394  1.00  0.00     0.259 S 
HETATM   33  O   UNL     1       4.554  37.023  61.923  1.00  0.00    -0.201 OA
HETATM   34  O   UNL     1       2.602  35.507  62.467  1.00  0.00    -0.201 OA
BRANCH  32  35
HETATM   35  N   UNL     1       4.709  35.503  63.911  1.00  0.00    -0.311 N 
HETATM   36  H   UNL     1       5.067  36.388  64.277  1.00  0.00     0.172 HD
BRANCH  35  37
HETATM   37  C   UNL     1       4.020  34.630  64.892  1.00  0.00     0.093 C 
HETATM   38  C   UNL     1       4.950  33.544  65.441  1.00  0.00     0.026 C 
HETATM   39  C   UNL     1       6.085  34.112  66.291  1.00  0.00     0.002 C 
HETATM   40  C   UNL     1       5.545  34.973  67.430  1.00  0.00     0.000 C 
HETATM   41  C   UNL     1       4.614  36.068  66.920  1.00  0.00     0.002 C 
HETATM   42  C   UNL     1       3.495  35.502  66.045  1.00  0.00     0.026 C 
ENDBRANCH  35  37
ENDBRANCH  32  35
ENDBRANCH  14  32
TORSDOF 8
ENDMDL
MODEL 7
REMARK VINA RESULT:      -9.8      2.431      4.380
REMARK  8 active torsions:
REMARK  status: ('A' for Active; 'I' for Inactive)
REMARK    1  A    between atoms: C_7  and  S_8 
REMARK    2  A    between atoms: S_8  and  N_9 
REMARK    3  A    between atoms: N_9  and  C_10 
REMARK    4  A    between atoms: C_19  and  N_20 
REMARK    5  A    between atoms: C_25  and  N_26 
REMARK    6  A    between atoms: C_30  and  S_31 
REMARK    7  A    between atoms: S_31  and  N_32 
REMARK    8  A    between atoms: N_32  and  C_33 
ROOT
HETATM    1  C   UNL     1       5.561  30.267  57.009  1.00  0.00     0.041 A 
HETATM    2  C   UNL     1       5.552  31.137  58.085  1.00  0.00     0.030 A 
HETATM    3  C   UNL     1       6.632  31.362  58.966  1.00  0.00     0.025 A 
HETATM    4  C   UNL     1       6.193  32.325  59.990  1.00  0.00     0.025 C 
HETATM    5  C   UNL     1       4.939  32.840  59.598  1.00  0.00     0.030 C 
HETATM    6  C   UNL     1       4.245  33.843  60.255  1.00  0.00     0.041 C 
HETATM    7  C   UNL     1       4.821  34.347  61.419  1.00  0.00     0.077 C 
HETATM    8  C   UNL     1       5.992  33.775  61.942  1.00  0.00     0.061 C 
HETATM    9  C   UNL     1       6.665  32.758  61.230  1.00  0.00     0.116 C 
HETATM   10  C   UNL     1       4.479  32.085  58.423  1.00  0.00     0.194 C 
HETATM   11  O   UNL     1       3.432  32.232  57.833  1.00  0.00    -0.287 OA
HETATM   12  C   UNL     1       7.836  30.744  58.619  1.00  0.00     0.116 A 
HETATM   13  C   UNL     1       7.899  29.845  57.531  1.00  0.00     0.062 A 
HETATM   14  C   UNL     1       6.760  29.614  56.741  1.00  0.00     0.082 A 
ENDROOT
BRANCH   7  15
HETATM   15  S   UNL     1       3.996  35.650  62.306  1.00  0.00     0.241 S 
HETATM   16  O   UNL     1       4.513  36.900  61.798  1.00  0.00    -0.206 OA
HETATM   17  O   UNL     1       2.583  35.356  62.334  1.00  0.00    -0.206 OA
BRANCH  15  18
HETATM   18  N   UNL     1       4.651  35.468  63.851  1.00  0.00    -0.211 NA
HETATM   19  H   UNL     1       4.847  36.399  64.228  1.00  0.00     0.140 HD
BRANCH  18  20
HETATM   20  C   UNL     1       3.999  34.542  64.814  1.00  0.00     0.071 C 
HETATM   21  C   UNL     1       4.954  33.450  65.301  1.00  0.00     0.020 C 
HETATM   22  C   UNL     1       6.094  33.999  66.158  1.00  0.00     0.002 C 
HETATM   23  C   UNL     1       5.562  34.802  67.339  1.00  0.00     0.000 C 
HETATM   24  C   UNL     1       4.612  35.906  66.888  1.00  0.00     0.002 C 
HETATM   25  C   UNL     1       3.485  35.363  66.009  1.00  0.00     0.020 C 
ENDBRANCH  18  20
ENDBRANCH  15  18
ENDBRANCH   7  15
BRANCH   9  26
HETATM   26  N   UNL     1       7.744  32.075  61.928  1.00  0.00    -0.115 N 
HETATM   27  O   UNL     1       8.796  32.710  62.083  1.00  0.00    -0.532 OA
HETATM   28  O   UNL     1       7.551  30.903  62.273  1.00  0.00    -0.532 OA
ENDBRANCH   9  26
BRANCH  12  29
HETATM   29  N   UNL     1       9.109  31.164  59.189  1.00  0.00    -0.115 N 
HETATM   30  O   UNL     1       9.498  32.303  58.898  1.00  0.00    -0.532 OA
HETATM   31  O   UNL     1       9.739  30.338  59.860  1.00  0.00    -0.532 OA
ENDBRANCH  12  29
BRANCH  14  32
HETATM   32  S   UNL     1       6.886  28.530  55.341  1.00  0.00     0.259 S 
HETATM   33  O   UNL     1       5.627  28.620  54.638  1.00  0.00    -0.201 OA
HETATM   34  O   UNL     1       8.153  28.760  54.688  1.00  0.00    -0.201 OA
BRANCH  32  35
HETATM   35  N   UNL     1       6.910  27.010  56.071  1.00  0.00    -0.311 N 
HETATM   36  H   UNL     1       6.956  27.124  57.087  1.00  0.00     0.172 HD
BRANCH  35  37
HETATM   37  C   UNL     1       6.004  25.942  55.582  1.00  0.00     0.093 C 
HETATM   38  C   UNL     1       6.358  25.502  54.159  1.00  0.00     0.026 C 
HETATM   39  C   UNL     1       7.715  24.804  54.077  1.00  0.00     0.002 C 
HETATM   40  C   UNL     1       7.785  23.616  55.032  1.00  0.00     0.000 C 
HETATM   41  C   UNL     1       7.439  24.019  56.463  1.00  0.00     0.002 C 
HETATM   42  C   UNL     1       6.094  24.743  56.541  1.00  0.00     0.026 C 
ENDBRANCH  35  37
ENDBRANCH  32  35
ENDBRANCH  14  32
TORSDOF 8
ENDMDL
MODEL 8
REMARK VINA RESULT:      -9.7      3.033     10.116
REMARK  8 active torsions:
REMARK  status: ('A' for Active; 'I' for Inactive)
REMARK    1  A    between atoms: C_7  and  S_8 
REMARK    2  A    between atoms: S_8  and  N_9 
REMARK    3  A    between atoms: N_9  and  C_10 
REMARK    4  A    between atoms: C_19  and  N_20 
REMARK    5  A    between atoms: C_25  and  N_26 
REMARK    6  A    between atoms: C_30  and  S_31 
REMARK    7  A    between atoms: S_31  and  N_32 
REMARK    8  A    between atoms: N_32  and  C_33 
ROOT
HETATM    1  C   UNL     1       6.362  33.797  62.679  1.00  0.00     0.041 A 
HETATM    2  C   UNL     1       6.466  33.049  61.518  1.00  0.00     0.030 A 
HETATM    3  C   UNL     1       5.532  33.050  60.459  1.00  0.00     0.025 A 
HETATM    4  C   UNL     1       5.996  32.091  59.442  1.00  0.00     0.025 C 
HETATM    5  C   UNL     1       7.304  31.687  59.785  1.00  0.00     0.030 C 
HETATM    6  C   UNL     1       8.114  30.863  59.020  1.00  0.00     0.041 C 
HETATM    7  C   UNL     1       7.567  30.364  57.840  1.00  0.00     0.077 C 
HETATM    8  C   UNL     1       6.222  30.608  57.517  1.00  0.00     0.061 C 
HETATM    9  C   UNL     1       5.441  31.460  58.327  1.00  0.00     0.116 C 
HETATM   10  C   UNL     1       7.622  32.236  61.111  1.00  0.00     0.194 C 
HETATM   11  O   UNL     1       8.646  32.072  61.737  1.00  0.00    -0.287 OA
HETATM   12  C   UNL     1       4.502  33.988  60.558  1.00  0.00     0.116 A 
HETATM   13  C   UNL     1       4.351  34.774  61.722  1.00  0.00     0.062 A 
HETATM   14  C   UNL     1       5.280  34.666  62.771  1.00  0.00     0.082 A 
ENDROOT
BRANCH   7  15
HETATM   15  S   UNL     1       8.554  29.315  56.797  1.00  0.00     0.241 S 
HETATM   16  O   UNL     1       9.644  30.121  56.296  1.00  0.00    -0.206 OA
HETATM   17  O   UNL     1       8.775  28.067  57.488  1.00  0.00    -0.206 OA
BRANCH  15  18
HETATM   18  N   UNL     1       7.515  29.071  55.489  1.00  0.00    -0.211 NA
HETATM   19  H   UNL     1       7.874  29.601  54.691  1.00  0.00     0.140 HD
BRANCH  18  20
HETATM   20  C   UNL     1       7.071  27.692  55.160  1.00  0.00     0.071 C 
HETATM   21  C   UNL     1       5.662  27.399  55.680  1.00  0.00     0.020 C 
HETATM   22  C   UNL     1       4.587  28.223  54.974  1.00  0.00     0.002 C 
HETATM   23  C   UNL     1       4.643  28.029  53.463  1.00  0.00     0.000 C 
HETATM   24  C   UNL     1       6.033  28.321  52.910  1.00  0.00     0.002 C 
HETATM   25  C   UNL     1       7.115  27.517  53.632  1.00  0.00     0.020 C 
ENDBRANCH  18  20
ENDBRANCH  15  18
ENDBRANCH   7  15
BRANCH   9  26
HETATM   26  N   UNL     1       4.012  31.498  58.050  1.00  0.00    -0.115 N 
HETATM   27  O   UNL     1       3.271  30.948  58.875  1.00  0.00    -0.532 OA
HETATM   28  O   UNL     1       3.648  32.031  56.995  1.00  0.00    -0.532 OA
ENDBRANCH   9  26
BRANCH  12  29
HETATM   29  N   UNL     1       3.696  34.371  59.407  1.00  0.00    -0.115 N 
HETATM   30  O   UNL     1       4.279  34.982  58.501  1.00  0.00    -0.532 OA
HETATM   31  O   UNL     1       2.485  34.124  59.445  1.00  0.00    -0.532 OA
ENDBRANCH  12  29
BRANCH  14  32
HETATM   32  S   UNL     1       5.102  35.713  64.193  1.00  0.00     0.259 S 
HETATM   33  O   UNL     1       3.726  36.154  64.208  1.00  0.00    -0.201 OA
HETATM   34  O   UNL     1       5.718  35.065  65.327  1.00  0.00    -0.201 OA
BRANCH  32  35
HETATM   35  N   UNL     1       6.022  37.058  63.759  1.00  0.00    -0.311 N 
HETATM   36  H   UNL     1       6.788  36.761  63.149  1.00  0.00     0.172 HD
BRANCH  35  37
HETATM   37  C   UNL     1       5.347  38.322  63.378  1.00  0.00     0.093 C 
HETATM   38  C   UNL     1       5.990  39.538  64.052  1.00  0.00     0.026 C 
HETATM   39  C   UNL     1       7.413  39.800  63.563  1.00  0.00     0.002 C 
HETATM   40  C   UNL     1       7.459  39.950  62.045  1.00  0.00     0.000 C 
HETATM   41  C   UNL     1       6.827  38.755  61.339  1.00  0.00     0.002 C 
HETATM   42  C   UNL     1       5.413  38.474  61.849  1.00  0.00     0.026 C 
ENDBRANCH  35  37
ENDBRANCH  32  35
ENDBRANCH  14  32
TORSDOF 8
ENDMDL
MODEL 9
REMARK VINA RESULT:      -9.4      2.651      9.511
REMARK  8 active torsions:
REMARK  status: ('A' for Active; 'I' for Inactive)
REMARK    1  A    between atoms: C_7  and  S_8 
REMARK    2  A    between atoms: S_8  and  N_9 
REMARK    3  A    between atoms: N_9  and  C_10 
REMARK    4  A    between atoms: C_19  and  N_20 
REMARK    5  A    between atoms: C_25  and  N_26 
REMARK    6  A    between atoms: C_30  and  S_31 
REMARK    7  A    between atoms: S_31  and  N_32 
REMARK    8  A    between atoms: N_32  and  C_33 
ROOT
HETATM    1  C   UNL     1       4.007  32.192  57.829  1.00  0.00     0.041 A 
HETATM    2  C   UNL     1       4.860  31.106  57.726  1.00  0.00     0.030 A 
HETATM    3  C   UNL     1       6.165  31.037  58.261  1.00  0.00     0.025 A 
HETATM    4  C   UNL     1       6.739  29.731  57.894  1.00  0.00     0.025 C 
HETATM    5  C   UNL     1       5.711  28.941  57.337  1.00  0.00     0.030 C 
HETATM    6  C   UNL     1       5.838  27.614  56.957  1.00  0.00     0.041 C 
HETATM    7  C   UNL     1       7.097  27.037  57.101  1.00  0.00     0.077 C 
HETATM    8  C   UNL     1       8.195  27.811  57.509  1.00  0.00     0.061 C 
HETATM    9  C   UNL     1       8.012  29.158  57.891  1.00  0.00     0.116 C 
HETATM   10  C   UNL     1       4.519  29.786  57.174  1.00  0.00     0.194 C 
HETATM   11  O   UNL     1       3.455  29.453  56.701  1.00  0.00    -0.287 OA
HETATM   12  C   UNL     1       6.548  32.111  59.067  1.00  0.00     0.116 A 
HETATM   13  C   UNL     1       5.716  33.245  59.203  1.00  0.00     0.062 A 
HETATM   14  C   UNL     1       4.457  33.274  58.579  1.00  0.00     0.082 A 
ENDROOT
BRANCH   7  15
HETATM   15  S   UNL     1       7.330  25.332  56.651  1.00  0.00     0.241 S 
HETATM   16  O   UNL     1       8.679  24.976  57.029  1.00  0.00    -0.206 OA
HETATM   17  O   UNL     1       6.182  24.582  57.102  1.00  0.00    -0.206 OA
BRANCH  15  18
HETATM   18  N   UNL     1       7.328  25.428  54.966  1.00  0.00    -0.211 NA
HETATM   19  H   UNL     1       8.286  25.602  54.653  1.00  0.00     0.140 HD
BRANCH  18  20
HETATM   20  C   UNL     1       6.605  24.394  54.179  1.00  0.00     0.071 C 
HETATM   21  C   UNL     1       5.249  24.896  53.677  1.00  0.00     0.020 C 
HETATM   22  C   UNL     1       5.376  26.010  52.639  1.00  0.00     0.002 C 
HETATM   23  C   UNL     1       6.248  25.577  51.466  1.00  0.00     0.000 C 
HETATM   24  C   UNL     1       7.611  25.079  51.931  1.00  0.00     0.002 C 
HETATM   25  C   UNL     1       7.487  23.981  52.988  1.00  0.00     0.020 C 
ENDBRANCH  18  20
ENDBRANCH  15  18
ENDBRANCH   7  15
BRANCH   9  26
HETATM   26  N   UNL     1       9.216  29.949  58.098  1.00  0.00    -0.115 N 
HETATM   27  O   UNL     1       9.553  30.702  57.175  1.00  0.00    -0.532 OA
HETATM   28  O   UNL     1       9.839  29.778  59.154  1.00  0.00    -0.532 OA
ENDBRANCH   9  26
BRANCH  12  29
HETATM   29  N   UNL     1       7.681  32.024  59.978  1.00  0.00    -0.115 N 
HETATM   30  O   UNL     1       8.672  32.712  59.696  1.00  0.00    -0.532 OA
HETATM   31  O   UNL     1       7.603  31.228  60.920  1.00  0.00    -0.532 OA
ENDBRANCH  12  29
BRANCH  14  32
HETATM   32  S   UNL     1       3.406  34.683  58.821  1.00  0.00     0.259 S 
HETATM   33  O   UNL     1       3.619  35.553  57.688  1.00  0.00    -0.201 OA
HETATM   34  O   UNL     1       2.092  34.222  59.205  1.00  0.00    -0.201 OA
BRANCH  32  35
HETATM   35  N   UNL     1       4.132  35.443  60.140  1.00  0.00    -0.311 N 
HETATM   36  H   UNL     1       4.466  36.367  59.856  1.00  0.00     0.172 HD
BRANCH  35  37
HETATM   37  C   UNL     1       3.494  35.370  61.477  1.00  0.00     0.093 C 
HETATM   38  C   UNL     1       4.002  34.174  62.287  1.00  0.00     0.026 C 
HETATM   39  C   UNL     1       5.477  34.300  62.666  1.00  0.00     0.002 C 
HETATM   40  C   UNL     1       5.746  35.601  63.417  1.00  0.00     0.000 C 
HETATM   41  C   UNL     1       5.253  36.817  62.638  1.00  0.00     0.002 C 
HETATM   42  C   UNL     1       3.785  36.677  62.234  1.00  0.00     0.026 C 
ENDBRANCH  35  37
ENDBRANCH  32  35
ENDBRANCH  14  32
TORSDOF 8
ENDMDL
MODEL 10
REMARK VINA RESULT:      -9.2      2.451      9.656
REMARK  8 active torsions:
REMARK  status: ('A' for Active; 'I' for Inactive)
REMARK    1  A    between atoms: C_7  and  S_8 
REMARK    2  A    between atoms: S_8  and  N_9 
REMARK    3  A    between atoms: N_9  and  C_10 
REMARK    4  A    between atoms: C_19  and  N_20 
REMARK    5  A    between atoms: C_25  and  N_26 
REMARK    6  A    between atoms: C_30  and  S_31 
REMARK    7  A    between atoms: S_31  and  N_32 
REMARK    8  A    between atoms: N_32  and  C_33 
ROOT
HETATM    1  C   UNL     1       5.429  33.853  61.199  1.00  0.00     0.041 A 
HETATM    2  C   UNL     1       5.704  32.975  60.163  1.00  0.00     0.030 A 
HETATM    3  C   UNL     1       5.010  32.917  58.935  1.00  0.00     0.025 A 
HETATM    4  C   UNL     1       5.589  31.822  58.137  1.00  0.00     0.025 C 
HETATM    5  C   UNL     1       6.760  31.377  58.787  1.00  0.00     0.030 C 
HETATM    6  C   UNL     1       7.636  30.423  58.294  1.00  0.00     0.041 C 
HETATM    7  C   UNL     1       7.301  29.832  57.079  1.00  0.00     0.077 C 
HETATM    8  C   UNL     1       6.077  30.123  56.456  1.00  0.00     0.061 C 
HETATM    9  C   UNL     1       5.221  31.108  56.996  1.00  0.00     0.116 C 
HETATM   10  C   UNL     1       6.845  32.050  60.091  1.00  0.00     0.194 C 
HETATM   11  O   UNL     1       7.701  31.893  60.933  1.00  0.00    -0.287 OA
HETATM   12  C   UNL     1       4.065  33.923  58.722  1.00  0.00     0.116 A 
HETATM   13  C   UNL     1       3.747  34.843  59.747  1.00  0.00     0.062 A 
HETATM   14  C   UNL     1       4.429  34.794  60.975  1.00  0.00     0.082 A 
ENDROOT
BRANCH   7  15
HETATM   15  S   UNL     1       8.388  28.612  56.375  1.00  0.00     0.241 S 
HETATM   16  O   UNL     1       9.358  29.322  55.573  1.00  0.00    -0.206 OA
HETATM   17  O   UNL     1       8.777  27.695  57.420  1.00  0.00    -0.206 OA
BRANCH  15  18
HETATM   18  N   UNL     1       7.359  27.838  55.284  1.00  0.00    -0.211 NA
HETATM   19  H   UNL     1       7.790  27.871  54.357  1.00  0.00     0.140 HD
BRANCH  18  20
HETATM   20  C   UNL     1       6.778  26.517  55.643  1.00  0.00     0.071 C 
HETATM   21  C   UNL     1       5.312  26.397  55.218  1.00  0.00     0.020 C 
HETATM   22  C   UNL     1       5.134  26.386  53.701  1.00  0.00     0.002 C 
HETATM   23  C   UNL     1       5.964  25.284  53.054  1.00  0.00     0.000 C 
HETATM   24  C   UNL     1       7.434  25.380  53.450  1.00  0.00     0.002 C 
HETATM   25  C   UNL     1       7.614  25.416  54.968  1.00  0.00     0.020 C 
ENDBRANCH  18  20
ENDBRANCH  15  18
ENDBRANCH   7  15
BRANCH   9  26
HETATM   26  N   UNL     1       3.888  31.204  56.419  1.00  0.00    -0.115 N 
HETATM   27  O   UNL     1       2.946  30.836  57.132  1.00  0.00    -0.532 OA
HETATM   28  O   UNL     1       3.798  31.600  55.250  1.00  0.00    -0.532 OA
ENDBRANCH   9  26
BRANCH  12  29
HETATM   29  N   UNL     1       3.547  34.225  57.395  1.00  0.00    -0.115 N 
HETATM   30  O   UNL     1       4.364  34.646  56.565  1.00  0.00    -0.532 OA
HETATM   31  O   UNL     1       2.330  34.109  57.212  1.00  0.00    -0.532 OA
ENDBRANCH  12  29
BRANCH  14  32
HETATM   32  S   UNL     1       4.054  36.003  62.220  1.00  0.00     0.259 S 
HETATM   33  O   UNL     1       4.740  37.214  61.834  1.00  0.00    -0.201 OA
HETATM   34  O   UNL     1       2.635  35.971  62.485  1.00  0.00    -0.201 OA
BRANCH  32  35
HETATM   35  N   UNL     1       4.880  35.399  63.559  1.00  0.00    -0.311 N 
HETATM   36  H   UNL     1       5.372  36.164  64.026  1.00  0.00     0.172 HD
BRANCH  35  37
HETATM   37  C   UNL     1       4.221  34.415  64.452  1.00  0.00     0.093 C 
HETATM   38  C   UNL     1       5.197  33.340  64.936  1.00  0.00     0.026 C 
HETATM   39  C   UNL     1       6.281  33.898  65.857  1.00  0.00     0.002 C 
HETATM   40  C   UNL     1       5.673  34.636  67.045  1.00  0.00     0.000 C 
HETATM   41  C   UNL     1       4.693  35.717  66.600  1.00  0.00     0.002 C 
HETATM   42  C   UNL     1       3.625  35.164  65.656  1.00  0.00     0.026 C 
ENDBRANCH  35  37
ENDBRANCH  32  35
ENDBRANCH  14  32
TORSDOF 8
ENDMDL
