MODEL 1
REMARK VINA RESULT:     -10.3      0.000      0.000
REMARK  7 active torsions:
REMARK  status: ('A' for Active; 'I' for Inactive)
REMARK    1  A    between atoms: C_5  and  C_6 
REMARK       I    between atoms: C_6  and  N_7 
REMARK    2  A    between atoms: N_10  and  C_11 
REMARK    3  A    between atoms: C_14  and  N_15 
REMARK    4  A    between atoms: N_15  and  C_16 
REMARK    5  A    between atoms: C_16  and  N_17 
REMARK       I    between atoms: N_17  and  C_18 
REMARK    6  A    between atoms: C_18  and  C_19 
REMARK    7  A    between atoms: C_22  and  O_23 
ROOT
HETATM    1  C   UNL     1       7.005  29.777  57.791  1.00  0.00     0.030 A 
HETATM    2  C   UNL     1       6.193  30.919  57.882  1.00  0.00     0.031 A 
HETATM    3  C   UNL     1       6.384  31.898  58.872  1.00  0.00     0.032 A 
HETATM    4  C   UNL     1       7.415  31.780  59.801  1.00  0.00     0.034 A 
HETATM    5  C   UNL     1       8.242  30.664  59.730  1.00  0.00     0.032 A 
HETATM    6  C   UNL     1       8.027  29.681  58.752  1.00  0.00     0.031 A 
ENDROOT
BRANCH   4   7
HETATM    7  N   UNL     1       7.495  32.748  60.831  1.00  0.00    -0.333 N 
HETATM    8  H   UNL     1       7.649  33.693  60.490  1.00  0.00     0.168 HD
BRANCH   7   9
HETATM    9  C   UNL     1       6.929  32.680  62.065  1.00  0.00     0.179 C 
HETATM   10  S   UNL     1       7.895  32.563  63.421  1.00  0.00    -0.040 SA
BRANCH   9  11
HETATM   11  N   UNL     1       5.563  32.643  62.203  1.00  0.00    -0.299 N 
HETATM   12  C   UNL     1       4.666  33.515  62.810  1.00  0.00     0.257 C 
HETATM   13  O   UNL     1       3.650  33.093  63.353  1.00  0.00    -0.267 OA
HETATM   14  H   UNL     1       5.139  31.768  61.924  1.00  0.00     0.171 HD
BRANCH  12  15
HETATM   15  C   UNL     1       4.938  34.977  62.754  1.00  0.00     0.032 A 
HETATM   16  C   UNL     1       5.481  35.655  63.850  1.00  0.00     0.020 A 
HETATM   17  C   UNL     1       5.752  37.023  63.759  1.00  0.00     0.038 A 
HETATM   18  C   UNL     1       5.506  37.720  62.574  1.00  0.00     0.068 A 
HETATM   19  C   UNL     1       4.987  37.037  61.472  1.00  0.00     0.038 A 
HETATM   20  C   UNL     1       4.711  35.666  61.559  1.00  0.00     0.020 A 
BRANCH  18  21
HETATM   21  O   UNL     1       5.815  39.051  62.626  1.00  0.00    -0.356 OA
HETATM   22  C   UNL     1       6.537  39.502  63.764  1.00  0.00     0.210 C 
ENDBRANCH  18  21
ENDBRANCH  12  15
ENDBRANCH   9  11
ENDBRANCH   7   9
ENDBRANCH   4   7
BRANCH   1  23
HETATM   23  N   UNL     1       6.778  28.742  56.873  1.00  0.00    -0.378 N 
HETATM   24  C   UNL     1       5.384  28.247  56.749  1.00  0.00     0.143 C 
HETATM   25  C   UNL     1       5.195  27.472  55.435  1.00  0.00     0.146 C 
HETATM   26  N   UNL     1       6.169  26.393  55.278  1.00  0.00    -0.345 N 
HETATM   27  C   UNL     1       5.838  25.398  54.353  1.00  0.00     0.253 C 
HETATM   28  C   UNL     1       7.560  26.832  55.452  1.00  0.00     0.146 C 
HETATM   29  O   UNL     1       4.834  25.447  53.645  1.00  0.00    -0.267 OA
HETATM   30  C   UNL     1       7.780  27.660  56.737  1.00  0.00     0.143 C 
BRANCH  27  31
HETATM   31  C   UNL     1       6.689  24.186  54.267  1.00  0.00     0.032 A 
HETATM   32  C   UNL     1       6.962  23.421  55.406  1.00  0.00     0.017 A 
HETATM   33  C   UNL     1       7.679  22.227  55.288  1.00  0.00     0.007 A 
HETATM   34  C   UNL     1       8.124  21.787  54.035  1.00  0.00    -0.062 A 
HETATM   35  C   UNL     1       8.826  20.467  53.900  1.00  0.00     0.048 C 
HETATM   36  C   UNL     1       7.826  22.547  52.896  1.00  0.00     0.007 A 
HETATM   37  C   UNL     1       7.110  23.741  53.010  1.00  0.00     0.017 A 
ENDBRANCH  27  31
ENDBRANCH   1  23
TORSDOF 7
ENDMDL
MODEL 2
REMARK VINA RESULT:     -10.2      3.811     11.965
REMARK  7 active torsions:
REMARK  status: ('A' for Active; 'I' for Inactive)
REMARK    1  A    between atoms: C_5  and  C_6 
REMARK       I    between atoms: C_6  and  N_7 
REMARK    2  A    between atoms: N_10  and  C_11 
REMARK    3  A    between atoms: C_14  and  N_15 
REMARK    4  A    between atoms: N_15  and  C_16 
REMARK    5  A    between atoms: C_16  and  N_17 
REMARK       I    between atoms: N_17  and  C_18 
REMARK    6  A    between atoms: C_18  and  C_19 
REMARK    7  A    between atoms: C_22  and  O_23 
ROOT
HETATM    1  C   UNL     1       6.003  30.116  56.243  1.00  0.00     0.030 A 
HETATM    2  C   UNL     1       6.355  28.941  55.559  1.00  0.00     0.031 A 
HETATM    3  C   UNL     1       5.691  28.526  54.392  1.00  0.00     0.032 A 
HETATM    4  C   UNL     1       4.657  29.287  53.852  1.00  0.00     0.034 A 
HETATM    5  C   UNL     1       4.292  30.461  54.502  1.00  0.00     0.032 A 
HETATM    6  C   UNL     1       4.947  30.852  55.680  1.00  0.00     0.031 A 
ENDROOT
BRANCH   4   7
HETATM    7  N   UNL     1       3.965  28.767  52.732  1.00  0.00    -0.333 N 
HETATM    8  H   UNL     1       2.953  28.830  52.813  1.00  0.00     0.168 HD
BRANCH   7   9
HETATM    9  C   UNL     1       4.423  28.678  51.455  1.00  0.00     0.179 C 
HETATM   10  S   UNL     1       5.287  29.941  50.789  1.00  0.00    -0.040 SA
BRANCH   9  11
HETATM   11  N   UNL     1       4.127  27.582  50.683  1.00  0.00    -0.299 N 
HETATM   12  C   UNL     1       4.784  26.371  50.496  1.00  0.00     0.257 C 
HETATM   13  O   UNL     1       4.745  25.795  49.413  1.00  0.00    -0.267 OA
HETATM   14  H   UNL     1       3.358  27.720  50.039  1.00  0.00     0.171 HD
BRANCH  12  15
HETATM   15  C   UNL     1       5.505  25.762  51.646  1.00  0.00     0.032 A 
HETATM   16  C   UNL     1       4.813  25.277  52.761  1.00  0.00     0.020 A 
HETATM   17  C   UNL     1       5.515  24.685  53.814  1.00  0.00     0.038 A 
HETATM   18  C   UNL     1       6.904  24.551  53.757  1.00  0.00     0.068 A 
HETATM   19  C   UNL     1       7.592  25.013  52.633  1.00  0.00     0.038 A 
HETATM   20  C   UNL     1       6.893  25.610  51.576  1.00  0.00     0.020 A 
BRANCH  18  21
HETATM   21  O   UNL     1       7.461  23.955  54.855  1.00  0.00    -0.356 OA
HETATM   22  C   UNL     1       7.551  22.536  54.843  1.00  0.00     0.210 C 
ENDBRANCH  18  21
ENDBRANCH  12  15
ENDBRANCH   9  11
ENDBRANCH   7   9
ENDBRANCH   4   7
BRANCH   1  23
HETATM   23  N   UNL     1       6.587  30.503  57.458  1.00  0.00    -0.378 N 
HETATM   24  C   UNL     1       7.396  29.482  58.170  1.00  0.00     0.143 C 
HETATM   25  C   UNL     1       8.323  30.144  59.203  1.00  0.00     0.146 C 
HETATM   26  N   UNL     1       7.595  31.005  60.135  1.00  0.00    -0.345 N 
HETATM   27  C   UNL     1       8.256  31.315  61.326  1.00  0.00     0.253 C 
HETATM   28  C   UNL     1       6.736  31.992  59.467  1.00  0.00     0.146 C 
HETATM   29  O   UNL     1       9.410  30.963  61.566  1.00  0.00    -0.267 OA
HETATM   30  C   UNL     1       5.826  31.373  58.384  1.00  0.00     0.143 C 
BRANCH  27  31
HETATM   31  C   UNL     1       7.516  32.036  62.392  1.00  0.00     0.032 A 
HETATM   32  C   UNL     1       6.131  31.889  62.524  1.00  0.00     0.017 A 
HETATM   33  C   UNL     1       5.466  32.492  63.595  1.00  0.00     0.007 A 
HETATM   34  C   UNL     1       6.178  33.241  64.542  1.00  0.00    -0.062 A 
HETATM   35  C   UNL     1       5.474  33.824  65.733  1.00  0.00     0.048 C 
HETATM   36  C   UNL     1       7.568  33.363  64.414  1.00  0.00     0.007 A 
HETATM   37  C   UNL     1       8.236  32.762  63.345  1.00  0.00     0.017 A 
ENDBRANCH  27  31
ENDBRANCH   1  23
TORSDOF 7
ENDMDL
MODEL 3
REMARK VINA RESULT:     -10.0      1.755      2.659
REMARK  7 active torsions:
REMARK  status: ('A' for Active; 'I' for Inactive)
REMARK    1  A    between atoms: C_5  and  C_6 
REMARK       I    between atoms: C_6  and  N_7 
REMARK    2  A    between atoms: N_10  and  C_11 
REMARK    3  A    between atoms: C_14  and  N_15 
REMARK    4  A    between atoms: N_15  and  C_16 
REMARK    5  A    between atoms: C_16  and  N_17 
REMARK       I    between atoms: N_17  and  C_18 
REMARK    6  A    between atoms: C_18  and  C_19 
REMARK    7  A    between atoms: C_22  and  O_23 
ROOT
HETATM    1  C   UNL     1       6.997  30.227  58.066  1.00  0.00     0.030 A 
HETATM    2  C   UNL     1       6.171  31.351  58.227  1.00  0.00     0.031 A 
HETATM    3  C   UNL     1       6.352  32.272  59.273  1.00  0.00     0.032 A 
HETATM    4  C   UNL     1       7.386  32.110  60.192  1.00  0.00     0.034 A 
HETATM    5  C   UNL     1       8.227  31.012  60.053  1.00  0.00     0.032 A 
HETATM    6  C   UNL     1       8.022  30.086  59.018  1.00  0.00     0.031 A 
ENDROOT
BRANCH   4   7
HETATM    7  N   UNL     1       7.457  33.016  61.277  1.00  0.00    -0.333 N 
HETATM    8  H   UNL     1       7.974  33.865  61.067  1.00  0.00     0.168 HD
BRANCH   7   9
HETATM    9  C   UNL     1       6.572  33.137  62.303  1.00  0.00     0.179 C 
HETATM   10  S   UNL     1       5.687  31.812  62.801  1.00  0.00    -0.040 SA
BRANCH   9  11
HETATM   11  N   UNL     1       6.352  34.356  62.893  1.00  0.00    -0.299 N 
HETATM   12  C   UNL     1       5.578  35.447  62.515  1.00  0.00     0.257 C 
HETATM   13  O   UNL     1       5.929  36.592  62.785  1.00  0.00    -0.267 OA
HETATM   14  H   UNL     1       6.954  34.551  63.683  1.00  0.00     0.171 HD
BRANCH  12  15
HETATM   15  C   UNL     1       4.291  35.202  61.809  1.00  0.00     0.032 A 
HETATM   16  C   UNL     1       3.085  35.113  62.512  1.00  0.00     0.020 A 
HETATM   17  C   UNL     1       1.888  34.910  61.820  1.00  0.00     0.038 A 
HETATM   18  C   UNL     1       1.878  34.816  60.427  1.00  0.00     0.068 A 
HETATM   19  C   UNL     1       3.080  34.930  59.724  1.00  0.00     0.038 A 
HETATM   20  C   UNL     1       4.283  35.130  60.413  1.00  0.00     0.020 A 
BRANCH  18  21
HETATM   21  O   UNL     1       0.640  34.616  59.881  1.00  0.00    -0.356 OA
HETATM   22  C   UNL     1      -0.470  34.666  60.767  1.00  0.00     0.210 C 
ENDBRANCH  18  21
ENDBRANCH  12  15
ENDBRANCH   9  11
ENDBRANCH   7   9
ENDBRANCH   4   7
BRANCH   1  23
HETATM   23  N   UNL     1       6.781  29.246  57.088  1.00  0.00    -0.378 N 
HETATM   24  C   UNL     1       5.383  28.781  56.899  1.00  0.00     0.143 C 
HETATM   25  C   UNL     1       5.220  28.080  55.541  1.00  0.00     0.146 C 
HETATM   26  N   UNL     1       6.182  26.995  55.353  1.00  0.00    -0.345 N 
HETATM   27  C   UNL     1       5.862  26.057  54.368  1.00  0.00     0.253 C 
HETATM   28  C   UNL     1       7.573  27.401  55.589  1.00  0.00     0.146 C 
HETATM   29  O   UNL     1       4.880  26.160  53.636  1.00  0.00    -0.267 OA
HETATM   30  C   UNL     1       7.770  28.156  56.922  1.00  0.00     0.143 C 
BRANCH  27  31
HETATM   31  C   UNL     1       6.698  24.837  54.240  1.00  0.00     0.032 A 
HETATM   32  C   UNL     1       6.898  23.990  55.335  1.00  0.00     0.017 A 
HETATM   33  C   UNL     1       7.601  22.793  55.171  1.00  0.00     0.007 A 
HETATM   34  C   UNL     1       8.103  22.431  53.914  1.00  0.00    -0.062 A 
HETATM   35  C   UNL     1       8.790  21.110  53.723  1.00  0.00     0.048 C 
HETATM   36  C   UNL     1       7.878  23.274  52.818  1.00  0.00     0.007 A 
HETATM   37  C   UNL     1       7.176  24.472  52.978  1.00  0.00     0.017 A 
ENDBRANCH  27  31
ENDBRANCH   1  23
TORSDOF 7
ENDMDL
MODEL 4
REMARK VINA RESULT:      -9.6      2.299      3.302
REMARK  7 active torsions:
REMARK  status: ('A' for Active; 'I' for Inactive)
REMARK    1  A    between atoms: C_5  and  C_6 
REMARK       I    between atoms: C_6  and  N_7 
REMARK    2  A    between atoms: N_10  and  C_11 
REMARK    3  A    between atoms: C_14  and  N_15 
REMARK    4  A    between atoms: N_15  and  C_16 
REMARK    5  A    between atoms: C_16  and  N_17 
REMARK       I    between atoms: N_17  and  C_18 
REMARK    6  A    between atoms: C_18  and  C_19 
REMARK    7  A    between atoms: C_22  and  O_23 
ROOT
HETATM    1  C   UNL     1       5.033  30.749  57.826  1.00  0.00     0.030 A 
HETATM    2  C   UNL     1       3.791  31.048  58.410  1.00  0.00     0.031 A 
HETATM    3  C   UNL     1       3.673  31.876  59.540  1.00  0.00     0.032 A 
HETATM    4  C   UNL     1       4.799  32.455  60.118  1.00  0.00     0.034 A 
HETATM    5  C   UNL     1       6.043  32.186  59.556  1.00  0.00     0.032 A 
HETATM    6  C   UNL     1       6.150  31.339  58.443  1.00  0.00     0.031 A 
ENDROOT
BRANCH   4   7
HETATM    7  N   UNL     1       4.625  33.200  61.310  1.00  0.00    -0.333 N 
HETATM    8  H   UNL     1       5.144  32.829  62.101  1.00  0.00     0.168 HD
BRANCH   7   9
HETATM    9  C   UNL     1       4.308  34.518  61.413  1.00  0.00     0.179 C 
HETATM   10  S   UNL     1       2.735  35.019  61.167  1.00  0.00    -0.040 SA
BRANCH   9  11
HETATM   11  N   UNL     1       5.284  35.452  61.658  1.00  0.00    -0.299 N 
HETATM   12  C   UNL     1       5.578  36.217  62.780  1.00  0.00     0.257 C 
HETATM   13  O   UNL     1       6.038  37.349  62.666  1.00  0.00    -0.267 OA
HETATM   14  H   UNL     1       5.812  35.727  60.839  1.00  0.00     0.171 HD
BRANCH  12  15
HETATM   15  C   UNL     1       5.364  35.625  64.128  1.00  0.00     0.032 A 
HETATM   16  C   UNL     1       4.303  36.038  64.941  1.00  0.00     0.020 A 
HETATM   17  C   UNL     1       4.110  35.443  66.191  1.00  0.00     0.038 A 
HETATM   18  C   UNL     1       4.955  34.423  66.632  1.00  0.00     0.068 A 
HETATM   19  C   UNL     1       5.998  33.993  65.809  1.00  0.00     0.038 A 
HETATM   20  C   UNL     1       6.198  34.587  64.557  1.00  0.00     0.020 A 
BRANCH  18  21
HETATM   21  O   UNL     1       4.652  33.933  67.872  1.00  0.00    -0.356 OA
HETATM   22  C   UNL     1       5.586  34.192  68.913  1.00  0.00     0.210 C 
ENDBRANCH  18  21
ENDBRANCH  12  15
ENDBRANCH   9  11
ENDBRANCH   7   9
ENDBRANCH   4   7
BRANCH   1  23
HETATM   23  N   UNL     1       5.186  29.854  56.758  1.00  0.00    -0.378 N 
HETATM   24  C   UNL     1       3.943  29.327  56.140  1.00  0.00     0.143 C 
HETATM   25  C   UNL     1       4.230  28.749  54.745  1.00  0.00     0.146 C 
HETATM   26  N   UNL     1       5.294  27.746  54.764  1.00  0.00    -0.345 N 
HETATM   27  C   UNL     1       5.347  26.888  53.662  1.00  0.00     0.253 C 
HETATM   28  C   UNL     1       6.523  28.211  55.421  1.00  0.00     0.146 C 
HETATM   29  O   UNL     1       4.606  27.001  52.686  1.00  0.00    -0.267 OA
HETATM   30  C   UNL     1       6.270  28.846  56.805  1.00  0.00     0.143 C 
BRANCH  27  31
HETATM   31  C   UNL     1       6.284  25.738  53.692  1.00  0.00     0.032 A 
HETATM   32  C   UNL     1       6.236  24.804  54.732  1.00  0.00     0.017 A 
HETATM   33  C   UNL     1       7.055  23.672  54.690  1.00  0.00     0.007 A 
HETATM   34  C   UNL     1       7.922  23.462  53.610  1.00  0.00    -0.062 A 
HETATM   35  C   UNL     1       8.744  22.209  53.529  1.00  0.00     0.048 C 
HETATM   36  C   UNL     1       7.946  24.391  52.561  1.00  0.00     0.007 A 
HETATM   37  C   UNL     1       7.129  25.523  52.599  1.00  0.00     0.017 A 
ENDBRANCH  27  31
ENDBRANCH   1  23
TORSDOF 7
ENDMDL
MODEL 5
REMARK VINA RESULT:      -9.5      8.049     11.631
REMARK  7 active torsions:
REMARK  status: ('A' for Active; 'I' for Inactive)
REMARK    1  A    between atoms: C_5  and  C_6 
REMARK       I    between atoms: C_6  and  N_7 
REMARK    2  A    between atoms: N_10  and  C_11 
REMARK    3  A    between atoms: C_14  and  N_15 
REMARK    4  A    between atoms: N_15  and  C_16 
REMARK    5  A    between atoms: C_16  and  N_17 
REMARK       I    between atoms: N_17  and  C_18 
REMARK    6  A    between atoms: C_18  and  C_19 
REMARK    7  A    between atoms: C_22  and  O_23 
ROOT
HETATM    1  C   UNL     1       3.888  29.204  52.008  1.00  0.00     0.030 A 
HETATM    2  C   UNL     1       4.514  30.410  51.655  1.00  0.00     0.031 A 
HETATM    3  C   UNL     1       3.920  31.335  50.779  1.00  0.00     0.032 A 
HETATM    4  C   UNL     1       2.660  31.093  50.237  1.00  0.00     0.034 A 
HETATM    5  C   UNL     1       2.010  29.911  50.576  1.00  0.00     0.032 A 
HETATM    6  C   UNL     1       2.625  28.985  51.433  1.00  0.00     0.031 A 
ENDROOT
BRANCH   4   7
HETATM    7  N   UNL     1       2.157  32.015  49.287  1.00  0.00    -0.333 N 
HETATM    8  H   UNL     1       2.639  32.910  49.294  1.00  0.00     0.168 HD
BRANCH   7   9
HETATM    9  C   UNL     1       1.526  31.725  48.118  1.00  0.00     0.179 C 
HETATM   10  S   UNL     1      -0.120  31.452  48.104  1.00  0.00    -0.040 SA
BRANCH   9  11
HETATM   11  N   UNL     1       2.243  31.592  46.955  1.00  0.00    -0.299 N 
HETATM   12  C   UNL     1       3.307  30.769  46.606  1.00  0.00     0.257 C 
HETATM   13  O   UNL     1       4.170  31.154  45.823  1.00  0.00    -0.267 OA
HETATM   14  H   UNL     1       2.047  32.303  46.261  1.00  0.00     0.171 HD
BRANCH  12  15
HETATM   15  C   UNL     1       3.363  29.393  47.169  1.00  0.00     0.032 A 
HETATM   16  C   UNL     1       4.490  28.938  47.860  1.00  0.00     0.020 A 
HETATM   17  C   UNL     1       4.503  27.650  48.402  1.00  0.00     0.038 A 
HETATM   18  C   UNL     1       3.391  26.815  48.280  1.00  0.00     0.068 A 
HETATM   19  C   UNL     1       2.255  27.279  47.612  1.00  0.00     0.038 A 
HETATM   20  C   UNL     1       2.239  28.568  47.064  1.00  0.00     0.020 A 
BRANCH  18  21
HETATM   21  O   UNL     1       3.541  25.583  48.855  1.00  0.00    -0.356 OA
HETATM   22  C   UNL     1       3.039  24.468  48.130  1.00  0.00     0.210 C 
ENDBRANCH  18  21
ENDBRANCH  12  15
ENDBRANCH   9  11
ENDBRANCH   7   9
ENDBRANCH   4   7
BRANCH   1  23
HETATM   23  N   UNL     1       4.498  28.225  52.805  1.00  0.00    -0.378 N 
HETATM   24  C   UNL     1       5.516  28.691  53.781  1.00  0.00     0.143 C 
HETATM   25  C   UNL     1       5.758  27.630  54.867  1.00  0.00     0.146 C 
HETATM   26  N   UNL     1       6.104  26.325  54.304  1.00  0.00    -0.345 N 
HETATM   27  C   UNL     1       6.729  25.428  55.175  1.00  0.00     0.253 C 
HETATM   28  C   UNL     1       5.152  25.855  53.290  1.00  0.00     0.146 C 
HETATM   29  O   UNL     1       6.915  25.668  56.367  1.00  0.00    -0.267 OA
HETATM   30  C   UNL     1       4.842  26.913  52.209  1.00  0.00     0.143 C 
BRANCH  27  31
HETATM   31  C   UNL     1       7.266  24.156  54.633  1.00  0.00     0.032 A 
HETATM   32  C   UNL     1       7.306  23.002  55.422  1.00  0.00     0.017 A 
HETATM   33  C   UNL     1       7.718  21.789  54.864  1.00  0.00     0.007 A 
HETATM   34  C   UNL     1       8.088  21.718  53.514  1.00  0.00    -0.062 A 
HETATM   35  C   UNL     1       8.456  20.400  52.897  1.00  0.00     0.048 C 
HETATM   36  C   UNL     1       8.023  22.874  52.725  1.00  0.00     0.007 A 
HETATM   37  C   UNL     1       7.612  24.088  53.280  1.00  0.00     0.017 A 
ENDBRANCH  27  31
ENDBRANCH   1  23
TORSDOF 7
ENDMDL
MODEL 6
REMARK VINA RESULT:      -9.5      1.816      2.087
REMARK  7 active torsions:
REMARK  status: ('A' for Active; 'I' for Inactive)
REMARK    1  A    between atoms: C_5  and  C_6 
REMARK       I    between atoms: C_6  and  N_7 
REMARK    2  A    between atoms: N_10  and  C_11 
REMARK    3  A    between atoms: C_14  and  N_15 
REMARK    4  A    between atoms: N_15  and  C_16 
REMARK    5  A    between atoms: C_16  and  N_17 
REMARK       I    between atoms: N_17  and  C_18 
REMARK    6  A    between atoms: C_18  and  C_19 
REMARK    7  A    between atoms: C_22  and  O_23 
ROOT
HETATM    1  C   UNL     1       6.026  29.683  56.398  1.00  0.00     0.030 A 
HETATM    2  C   UNL     1       5.087  30.690  56.122  1.00  0.00     0.031 A 
HETATM    3  C   UNL     1       4.909  31.801  56.964  1.00  0.00     0.032 A 
HETATM    4  C   UNL     1       5.685  31.956  58.111  1.00  0.00     0.034 A 
HETATM    5  C   UNL     1       6.630  30.980  58.405  1.00  0.00     0.032 A 
HETATM    6  C   UNL     1       6.781  29.863  57.569  1.00  0.00     0.031 A 
ENDROOT
BRANCH   4   7
HETATM    7  N   UNL     1       5.393  33.045  58.968  1.00  0.00    -0.333 N 
HETATM    8  H   UNL     1       6.026  33.832  58.857  1.00  0.00     0.168 HD
BRANCH   7   9
HETATM    9  C   UNL     1       4.183  33.365  59.501  1.00  0.00     0.179 C 
HETATM   10  S   UNL     1       3.346  34.693  58.933  1.00  0.00    -0.040 SA
BRANCH   9  11
HETATM   11  N   UNL     1       3.671  32.642  60.549  1.00  0.00    -0.299 N 
HETATM   12  C   UNL     1       3.943  32.658  61.912  1.00  0.00     0.257 C 
HETATM   13  O   UNL     1       3.874  31.630  62.579  1.00  0.00    -0.267 OA
HETATM   14  H   UNL     1       3.076  31.871  60.272  1.00  0.00     0.171 HD
BRANCH  12  15
HETATM   15  C   UNL     1       4.282  33.954  62.560  1.00  0.00     0.032 A 
HETATM   16  C   UNL     1       5.608  34.299  62.841  1.00  0.00     0.020 A 
HETATM   17  C   UNL     1       5.898  35.535  63.424  1.00  0.00     0.038 A 
HETATM   18  C   UNL     1       4.877  36.444  63.712  1.00  0.00     0.068 A 
HETATM   19  C   UNL     1       3.556  36.109  63.408  1.00  0.00     0.038 A 
HETATM   20  C   UNL     1       3.259  34.870  62.826  1.00  0.00     0.020 A 
BRANCH  18  21
HETATM   21  O   UNL     1       5.302  37.612  64.282  1.00  0.00    -0.356 OA
HETATM   22  C   UNL     1       6.110  38.464  63.480  1.00  0.00     0.210 C 
ENDBRANCH  18  21
ENDBRANCH  12  15
ENDBRANCH   9  11
ENDBRANCH   7   9
ENDBRANCH   4   7
BRANCH   1  23
HETATM   23  N   UNL     1       6.158  28.521  55.625  1.00  0.00    -0.378 N 
HETATM   24  C   UNL     1       4.916  27.963  55.033  1.00  0.00     0.143 C 
HETATM   25  C   UNL     1       5.245  27.003  53.878  1.00  0.00     0.146 C 
HETATM   26  N   UNL     1       6.176  25.948  54.277  1.00  0.00    -0.345 N 
HETATM   27  C   UNL     1       6.215  24.822  53.451  1.00  0.00     0.253 C 
HETATM   28  C   UNL     1       7.393  26.458  54.921  1.00  0.00     0.146 C 
HETATM   29  O   UNL     1       5.576  24.733  52.404  1.00  0.00    -0.267 OA
HETATM   30  C   UNL     1       7.106  27.467  56.054  1.00  0.00     0.143 C 
BRANCH  27  31
HETATM   31  C   UNL     1       7.003  23.641  53.884  1.00  0.00     0.032 A 
HETATM   32  C   UNL     1       7.023  23.249  55.227  1.00  0.00     0.017 A 
HETATM   33  C   UNL     1       7.684  22.076  55.601  1.00  0.00     0.007 A 
HETATM   34  C   UNL     1       8.326  21.285  54.638  1.00  0.00    -0.062 A 
HETATM   35  C   UNL     1       8.970  19.987  55.030  1.00  0.00     0.048 C 
HETATM   36  C   UNL     1       8.282  21.674  53.293  1.00  0.00     0.007 A 
HETATM   37  C   UNL     1       7.621  22.845  52.915  1.00  0.00     0.017 A 
ENDBRANCH  27  31
ENDBRANCH   1  23
TORSDOF 7
ENDMDL
MODEL 7
REMARK VINA RESULT:      -9.1      8.424     10.929
REMARK  7 active torsions:
REMARK  status: ('A' for Active; 'I' for Inactive)
REMARK    1  A    between atoms: C_5  and  C_6 
REMARK       I    between atoms: C_6  and  N_7 
REMARK    2  A    between atoms: N_10  and  C_11 
REMARK    3  A    between atoms: C_14  and  N_15 
REMARK    4  A    between atoms: N_15  and  C_16 
REMARK    5  A    between atoms: C_16  and  N_17 
REMARK       I    between atoms: N_17  and  C_18 
REMARK    6  A    between atoms: C_18  and  C_19 
REMARK    7  A    between atoms: C_22  and  O_23 
ROOT
HETATM    1  C   UNL     1       4.095  28.021  49.572  1.00  0.00     0.030 A 
HETATM    2  C   UNL     1       2.800  28.565  49.578  1.00  0.00     0.031 A 
HETATM    3  C   UNL     1       2.244  29.189  48.449  1.00  0.00     0.032 A 
HETATM    4  C   UNL     1       2.960  29.276  47.258  1.00  0.00     0.034 A 
HETATM    5  C   UNL     1       4.242  28.738  47.219  1.00  0.00     0.032 A 
HETATM    6  C   UNL     1       4.796  28.138  48.360  1.00  0.00     0.031 A 
ENDROOT
BRANCH   4   7
HETATM    7  N   UNL     1       2.384  30.002  46.188  1.00  0.00    -0.333 N 
HETATM    8  H   UNL     1       1.741  29.454  45.624  1.00  0.00     0.168 HD
BRANCH   7   9
HETATM    9  C   UNL     1       2.186  31.346  46.123  1.00  0.00     0.179 C 
HETATM   10  S   UNL     1       0.636  31.964  46.169  1.00  0.00    -0.040 SA
BRANCH   9  11
HETATM   11  N   UNL     1       3.248  32.199  45.956  1.00  0.00    -0.299 N 
HETATM   12  C   UNL     1       3.912  33.042  46.840  1.00  0.00     0.257 C 
HETATM   13  O   UNL     1       4.389  34.106  46.456  1.00  0.00    -0.267 OA
HETATM   14  H   UNL     1       3.525  32.337  44.992  1.00  0.00     0.171 HD
BRANCH  12  15
HETATM   15  C   UNL     1       4.072  32.613  48.255  1.00  0.00     0.032 A 
HETATM   16  C   UNL     1       3.036  32.772  49.182  1.00  0.00     0.020 A 
HETATM   17  C   UNL     1       3.205  32.334  50.498  1.00  0.00     0.038 A 
HETATM   18  C   UNL     1       4.393  31.719  50.897  1.00  0.00     0.068 A 
HETATM   19  C   UNL     1       5.417  31.537  49.965  1.00  0.00     0.038 A 
HETATM   20  C   UNL     1       5.254  31.977  48.645  1.00  0.00     0.020 A 
BRANCH  18  21
HETATM   21  O   UNL     1       4.422  31.342  52.211  1.00  0.00    -0.356 OA
HETATM   22  C   UNL     1       3.293  30.632  52.704  1.00  0.00     0.210 C 
ENDBRANCH  18  21
ENDBRANCH  12  15
ENDBRANCH   9  11
ENDBRANCH   7   9
ENDBRANCH   4   7
BRANCH   1  23
HETATM   23  N   UNL     1       4.706  27.475  50.710  1.00  0.00    -0.378 N 
HETATM   24  C   UNL     1       5.804  28.263  51.327  1.00  0.00     0.143 C 
HETATM   25  C   UNL     1       6.061  27.803  52.770  1.00  0.00     0.146 C 
HETATM   26  N   UNL     1       6.309  26.364  52.862  1.00  0.00    -0.345 N 
HETATM   27  C   UNL     1       6.944  25.925  54.027  1.00  0.00     0.253 C 
HETATM   28  C   UNL     1       5.273  25.551  52.211  1.00  0.00     0.146 C 
HETATM   29  O   UNL     1       7.214  26.670  54.967  1.00  0.00    -0.267 OA
HETATM   30  C   UNL     1       4.948  26.015  50.775  1.00  0.00     0.143 C 
BRANCH  27  31
HETATM   31  C   UNL     1       7.384  24.510  54.115  1.00  0.00     0.032 A 
HETATM   32  C   UNL     1       7.173  23.767  55.281  1.00  0.00     0.017 A 
HETATM   33  C   UNL     1       7.499  22.409  55.310  1.00  0.00     0.007 A 
HETATM   34  C   UNL     1       8.034  21.782  54.176  1.00  0.00    -0.062 A 
HETATM   35  C   UNL     1       8.312  20.307  54.185  1.00  0.00     0.048 C 
HETATM   36  C   UNL     1       8.220  22.529  53.005  1.00  0.00     0.007 A 
HETATM   37  C   UNL     1       7.895  23.887  52.972  1.00  0.00     0.017 A 
ENDBRANCH  27  31
ENDBRANCH   1  23
TORSDOF 7
ENDMDL
MODEL 8
REMARK VINA RESULT:      -9.1      3.616     11.281
REMARK  7 active torsions:
REMARK  status: ('A' for Active; 'I' for Inactive)
REMARK    1  A    between atoms: C_5  and  C_6 
REMARK       I    between atoms: C_6  and  N_7 
REMARK    2  A    between atoms: N_10  and  C_11 
REMARK    3  A    between atoms: C_14  and  N_15 
REMARK    4  A    between atoms: N_15  and  C_16 
REMARK    5  A    between atoms: C_16  and  N_17 
REMARK       I    between atoms: N_17  and  C_18 
REMARK    6  A    between atoms: C_18  and  C_19 
REMARK    7  A    between atoms: C_22  and  O_23 
ROOT
HETATM    1  C   UNL     1       3.981  30.597  56.100  1.00  0.00     0.030 A 
HETATM    2  C   UNL     1       4.288  29.270  56.439  1.00  0.00     0.031 A 
HETATM    3  C   UNL     1       4.230  28.224  55.503  1.00  0.00     0.032 A 
HETATM    4  C   UNL     1       3.880  28.473  54.178  1.00  0.00     0.034 A 
HETATM    5  C   UNL     1       3.579  29.780  53.809  1.00  0.00     0.032 A 
HETATM    6  C   UNL     1       3.617  30.812  54.759  1.00  0.00     0.031 A 
ENDROOT
BRANCH   4   7
HETATM    7  N   UNL     1       3.745  27.365  53.307  1.00  0.00    -0.333 N 
HETATM    8  H   UNL     1       2.818  27.276  52.900  1.00  0.00     0.168 HD
BRANCH   7   9
HETATM    9  C   UNL     1       4.732  26.758  52.595  1.00  0.00     0.179 C 
HETATM   10  S   UNL     1       5.498  27.582  51.362  1.00  0.00    -0.040 SA
BRANCH   9  11
HETATM   11  N   UNL     1       5.064  25.449  52.840  1.00  0.00    -0.299 N 
HETATM   12  C   UNL     1       6.099  24.872  53.568  1.00  0.00     0.257 C 
HETATM   13  O   UNL     1       6.591  23.803  53.221  1.00  0.00    -0.267 OA
HETATM   14  H   UNL     1       4.537  24.777  52.298  1.00  0.00     0.171 HD
BRANCH  12  15
HETATM   15  C   UNL     1       6.576  25.555  54.801  1.00  0.00     0.032 A 
HETATM   16  C   UNL     1       7.370  26.704  54.732  1.00  0.00     0.020 A 
HETATM   17  C   UNL     1       7.780  27.339  55.907  1.00  0.00     0.038 A 
HETATM   18  C   UNL     1       7.386  26.852  57.155  1.00  0.00     0.068 A 
HETATM   19  C   UNL     1       6.572  25.719  57.222  1.00  0.00     0.038 A 
HETATM   20  C   UNL     1       6.161  25.076  56.048  1.00  0.00     0.020 A 
BRANCH  18  21
HETATM   21  O   UNL     1       7.860  27.569  58.219  1.00  0.00    -0.356 OA
HETATM   22  C   UNL     1       7.818  28.986  58.110  1.00  0.00     0.210 C 
ENDBRANCH  18  21
ENDBRANCH  12  15
ENDBRANCH   9  11
ENDBRANCH   7   9
ENDBRANCH   4   7
BRANCH   1  23
HETATM   23  N   UNL     1       3.941  31.642  57.035  1.00  0.00    -0.378 N 
HETATM   24  C   UNL     1       4.750  32.849  56.729  1.00  0.00     0.143 C 
HETATM   25  C   UNL     1       4.274  34.050  57.561  1.00  0.00     0.146 C 
HETATM   26  N   UNL     1       4.253  33.762  58.995  1.00  0.00    -0.345 N 
HETATM   27  C   UNL     1       4.237  34.873  59.843  1.00  0.00     0.253 C 
HETATM   28  C   UNL     1       3.511  32.540  59.333  1.00  0.00     0.146 C 
HETATM   29  O   UNL     1       4.164  36.030  59.433  1.00  0.00    -0.267 OA
HETATM   30  C   UNL     1       3.924  31.321  58.481  1.00  0.00     0.143 C 
BRANCH  27  31
HETATM   31  C   UNL     1       4.391  34.663  61.304  1.00  0.00     0.032 A 
HETATM   32  C   UNL     1       3.283  34.729  62.156  1.00  0.00     0.017 A 
HETATM   33  C   UNL     1       3.429  34.427  63.513  1.00  0.00     0.007 A 
HETATM   34  C   UNL     1       4.678  34.053  64.027  1.00  0.00    -0.062 A 
HETATM   35  C   UNL     1       4.816  33.655  65.467  1.00  0.00     0.048 C 
HETATM   36  C   UNL     1       5.776  33.966  63.162  1.00  0.00     0.007 A 
HETATM   37  C   UNL     1       5.635  34.268  61.805  1.00  0.00     0.017 A 
ENDBRANCH  27  31
ENDBRANCH   1  23
TORSDOF 7
ENDMDL
MODEL 9
REMARK VINA RESULT:      -9.1      3.813     12.380
REMARK  7 active torsions:
REMARK  status: ('A' for Active; 'I' for Inactive)
REMARK    1  A    between atoms: C_5  and  C_6 
REMARK       I    between atoms: C_6  and  N_7 
REMARK    2  A    between atoms: N_10  and  C_11 
REMARK    3  A    between atoms: C_14  and  N_15 
REMARK    4  A    between atoms: N_15  and  C_16 
REMARK    5  A    between atoms: C_16  and  N_17 
REMARK       I    between atoms: N_17  and  C_18 
REMARK    6  A    between atoms: C_18  and  C_19 
REMARK    7  A    between atoms: C_22  and  O_23 
ROOT
HETATM    1  C   UNL     1       3.893  30.394  56.117  1.00  0.00     0.030 A 
HETATM    2  C   UNL     1       4.341  29.089  56.379  1.00  0.00     0.031 A 
HETATM    3  C   UNL     1       4.413  28.106  55.378  1.00  0.00     0.032 A 
HETATM    4  C   UNL     1       4.057  28.400  54.064  1.00  0.00     0.034 A 
HETATM    5  C   UNL     1       3.618  29.687  53.772  1.00  0.00     0.032 A 
HETATM    6  C   UNL     1       3.528  30.654  54.785  1.00  0.00     0.031 A 
ENDROOT
BRANCH   4   7
HETATM    7  N   UNL     1       4.059  27.343  53.123  1.00  0.00    -0.333 N 
HETATM    8  H   UNL     1       3.132  27.093  52.789  1.00  0.00     0.168 HD
BRANCH   7   9
HETATM    9  C   UNL     1       5.072  26.994  52.285  1.00  0.00     0.179 C 
HETATM   10  S   UNL     1       4.785  25.945  51.019  1.00  0.00    -0.040 SA
BRANCH   9  11
HETATM   11  N   UNL     1       6.348  27.449  52.509  1.00  0.00    -0.299 N 
HETATM   12  C   UNL     1       7.344  27.031  53.383  1.00  0.00     0.257 C 
HETATM   13  O   UNL     1       8.130  27.838  53.872  1.00  0.00    -0.267 OA
HETATM   14  H   UNL     1       6.567  28.321  52.044  1.00  0.00     0.171 HD
BRANCH  12  15
HETATM   15  C   UNL     1       7.470  25.580  53.687  1.00  0.00     0.032 A 
HETATM   16  C   UNL     1       7.032  25.055  54.907  1.00  0.00     0.020 A 
HETATM   17  C   UNL     1       7.137  23.683  55.153  1.00  0.00     0.038 A 
HETATM   18  C   UNL     1       7.656  22.823  54.183  1.00  0.00     0.068 A 
HETATM   19  C   UNL     1       8.069  23.345  52.955  1.00  0.00     0.038 A 
HETATM   20  C   UNL     1       7.969  24.719  52.704  1.00  0.00     0.020 A 
BRANCH  18  21
HETATM   21  O   UNL     1       7.702  21.509  54.557  1.00  0.00    -0.356 OA
HETATM   22  C   UNL     1       8.843  21.088  55.294  1.00  0.00     0.210 C 
ENDBRANCH  18  21
ENDBRANCH  12  15
ENDBRANCH   9  11
ENDBRANCH   7   9
ENDBRANCH   4   7
BRANCH   1  23
HETATM   23  N   UNL     1       3.724  31.365  57.114  1.00  0.00    -0.378 N 
HETATM   24  C   UNL     1       4.263  32.719  56.832  1.00  0.00     0.143 C 
HETATM   25  C   UNL     1       3.630  33.764  57.765  1.00  0.00     0.146 C 
HETATM   26  N   UNL     1       3.769  33.409  59.177  1.00  0.00    -0.345 N 
HETATM   27  C   UNL     1       3.605  34.454  60.090  1.00  0.00     0.253 C 
HETATM   28  C   UNL     1       3.301  32.052  59.486  1.00  0.00     0.146 C 
HETATM   29  O   UNL     1       3.283  35.593  59.757  1.00  0.00    -0.267 OA
HETATM   30  C   UNL     1       3.875  30.978  58.537  1.00  0.00     0.143 C 
BRANCH  27  31
HETATM   31  C   UNL     1       3.903  34.209  61.523  1.00  0.00     0.032 A 
HETATM   32  C   UNL     1       5.219  34.019  61.957  1.00  0.00     0.017 A 
HETATM   33  C   UNL     1       5.492  33.893  63.322  1.00  0.00     0.007 A 
HETATM   34  C   UNL     1       4.455  33.960  64.262  1.00  0.00    -0.062 A 
HETATM   35  C   UNL     1       4.758  33.901  65.731  1.00  0.00     0.048 C 
HETATM   36  C   UNL     1       3.143  34.174  63.820  1.00  0.00     0.007 A 
HETATM   37  C   UNL     1       2.866  34.300  62.457  1.00  0.00     0.017 A 
ENDBRANCH  27  31
ENDBRANCH   1  23
TORSDOF 7
ENDMDL
MODEL 10
REMARK VINA RESULT:      -9.0      2.988      3.935
REMARK  7 active torsions:
REMARK  status: ('A' for Active; 'I' for Inactive)
REMARK    1  A    between atoms: C_5  and  C_6 
REMARK       I    between atoms: C_6  and  N_7 
REMARK    2  A    between atoms: N_10  and  C_11 
REMARK    3  A    between atoms: C_14  and  N_15 
REMARK    4  A    between atoms: N_15  and  C_16 
REMARK    5  A    between atoms: C_16  and  N_17 
REMARK       I    between atoms: N_17  and  C_18 
REMARK    6  A    between atoms: C_18  and  C_19 
REMARK    7  A    between atoms: C_22  and  O_23 
ROOT
HETATM    1  C   UNL     1       4.971  30.388  56.846  1.00  0.00     0.030 A 
HETATM    2  C   UNL     1       3.755  30.587  56.173  1.00  0.00     0.031 A 
HETATM    3  C   UNL     1       3.088  31.824  56.179  1.00  0.00     0.032 A 
HETATM    4  C   UNL     1       3.628  32.920  56.847  1.00  0.00     0.034 A 
HETATM    5  C   UNL     1       4.836  32.756  57.516  1.00  0.00     0.032 A 
HETATM    6  C   UNL     1       5.481  31.510  57.522  1.00  0.00     0.031 A 
ENDROOT
BRANCH   4   7
HETATM    7  N   UNL     1       2.862  34.110  56.898  1.00  0.00    -0.333 N 
HETATM    8  H   UNL     1       1.942  34.020  56.476  1.00  0.00     0.168 HD
BRANCH   7   9
HETATM    9  C   UNL     1       2.969  35.114  57.809  1.00  0.00     0.179 C 
HETATM   10  S   UNL     1       4.182  36.250  57.661  1.00  0.00    -0.040 SA
BRANCH   9  11
HETATM   11  N   UNL     1       2.122  35.167  58.888  1.00  0.00    -0.299 N 
HETATM   12  C   UNL     1       2.114  34.484  60.099  1.00  0.00     0.257 C 
HETATM   13  O   UNL     1       1.056  34.200  60.653  1.00  0.00    -0.267 OA
HETATM   14  H   UNL     1       1.281  35.710  58.733  1.00  0.00     0.171 HD
BRANCH  12  15
HETATM   15  C   UNL     1       3.413  34.136  60.734  1.00  0.00     0.032 A 
HETATM   16  C   UNL     1       4.239  35.124  61.282  1.00  0.00     0.020 A 
HETATM   17  C   UNL     1       5.441  34.765  61.897  1.00  0.00     0.038 A 
HETATM   18  C   UNL     1       5.820  33.424  61.992  1.00  0.00     0.068 A 
HETATM   19  C   UNL     1       4.983  32.436  61.468  1.00  0.00     0.038 A 
HETATM   20  C   UNL     1       3.778  32.791  60.847  1.00  0.00     0.020 A 
BRANCH  18  21
HETATM   21  O   UNL     1       7.019  33.217  62.617  1.00  0.00    -0.356 OA
HETATM   22  C   UNL     1       7.084  33.523  64.003  1.00  0.00     0.210 C 
ENDBRANCH  18  21
ENDBRANCH  12  15
ENDBRANCH   9  11
ENDBRANCH   7   9
ENDBRANCH   4   7
BRANCH   1  23
HETATM   23  N   UNL     1       5.609  29.142  56.932  1.00  0.00    -0.378 N 
HETATM   24  C   UNL     1       7.041  29.145  57.325  1.00  0.00     0.143 C 
HETATM   25  C   UNL     1       7.475  27.754  57.815  1.00  0.00     0.146 C 
HETATM   26  N   UNL     1       7.183  26.703  56.841  1.00  0.00    -0.345 N 
HETATM   27  C   UNL     1       7.888  25.507  57.001  1.00  0.00     0.253 C 
HETATM   28  C   UNL     1       5.788  26.704  56.382  1.00  0.00     0.146 C 
HETATM   29  O   UNL     1       8.652  25.298  57.942  1.00  0.00    -0.267 OA
HETATM   30  C   UNL     1       5.297  28.097  55.929  1.00  0.00     0.143 C 
BRANCH  27  31
HETATM   31  C   UNL     1       7.776  24.462  55.953  1.00  0.00     0.032 A 
HETATM   32  C   UNL     1       7.867  24.796  54.598  1.00  0.00     0.017 A 
HETATM   33  C   UNL     1       7.863  23.788  53.630  1.00  0.00     0.007 A 
HETATM   34  C   UNL     1       7.774  22.442  54.008  1.00  0.00    -0.062 A 
HETATM   35  C   UNL     1       7.847  21.357  52.972  1.00  0.00     0.048 C 
HETATM   36  C   UNL     1       7.707  22.115  55.368  1.00  0.00     0.007 A 
HETATM   37  C   UNL     1       7.710  23.120  56.339  1.00  0.00     0.017 A 
ENDBRANCH  27  31
ENDBRANCH   1  23
TORSDOF 7
ENDMDL
