MODEL 1
REMARK VINA RESULT:      -8.1      0.000      0.000
REMARK  3 active torsions:
REMARK  status: ('A' for Active; 'I' for Inactive)
REMARK    1  A    between atoms: C_2  and  C_3 
REMARK    2  A    between atoms: C_7  and  N_8 
REMARK       I    between atoms: N_8  and  C_9 
REMARK    3  A    between atoms: C_9  and  C_10 
ROOT
HETATM    1  N   UNL     1       7.619  25.728  55.353  1.00  0.00    -0.309 N 
HETATM    2  C   UNL     1       6.686  26.543  55.968  1.00  0.00     0.234 C 
HETATM    3  O   UNL     1       5.811  26.201  56.761  1.00  0.00    -0.272 OA
HETATM    4  H   UNL     1       8.277  26.143  54.710  1.00  0.00     0.170 HD
ENDROOT
BRANCH   2   5
HETATM    5  C   UNL     1       6.784  28.011  55.571  1.00  0.00     0.138 C 
HETATM    6  C   UNL     1       7.746  28.801  56.385  1.00  0.00    -0.008 A 
HETATM    7  C   UNL     1       8.878  29.063  55.627  1.00  0.00     0.076 A 
HETATM    8  C   UNL     1       7.658  29.216  57.703  1.00  0.00     0.030 A 
HETATM    9  C   UNL     1       9.965  29.733  56.146  1.00  0.00     0.039 A 
HETATM   10  O   UNL     1       8.821  28.543  54.361  1.00  0.00    -0.349 OA
HETATM   11  C   UNL     1       9.893  30.168  57.472  1.00  0.00     0.022 A 
HETATM   12  C   UNL     1       8.746  29.909  58.241  1.00  0.00     0.011 A 
HETATM   13 BR   UNL     1       8.678  30.497  60.037  1.00  0.00    -0.051 Br
HETATM   14  C   UNL     1       7.420  28.192  54.190  1.00  0.00     0.194 C 
ENDBRANCH   2   5
BRANCH   1  15
HETATM   15  C   UNL     1       7.774  24.375  55.574  1.00  0.00     0.158 A 
HETATM   16  N   UNL     1       8.237  23.838  56.700  1.00  0.00    -0.156 NA
HETATM   17  N   UNL     1       8.255  22.523  56.473  1.00  0.00    -0.280 N 
HETATM   18  C   UNL     1       7.813  22.174  55.228  1.00  0.00     0.037 A 
HETATM   19  H   UNL     1       8.594  21.917  57.213  1.00  0.00     0.189 HD
HETATM   20  C   UNL     1       7.467  23.365  54.610  1.00  0.00     0.010 A 
HETATM   21  C   UNL     1       6.919  23.543  53.242  1.00  0.00     0.054 C 
BRANCH  18  22
HETATM   22  C   UNL     1       7.778  20.755  54.779  1.00  0.00     0.055 C 
HETATM   23  C   UNL     1       8.667  20.529  53.566  1.00  0.00     0.011 C 
ENDBRANCH  18  22
ENDBRANCH   1  15
TORSDOF 3
ENDMDL
MODEL 2
REMARK VINA RESULT:      -7.6      3.270      6.883
REMARK  3 active torsions:
REMARK  status: ('A' for Active; 'I' for Inactive)
REMARK    1  A    between atoms: C_2  and  C_3 
REMARK    2  A    between atoms: C_7  and  N_8 
REMARK       I    between atoms: N_8  and  C_9 
REMARK    3  A    between atoms: C_9  and  C_10 
ROOT
HETATM    1  N   UNL     1       7.412  26.397  56.734  1.00  0.00    -0.309 N 
HETATM    2  C   UNL     1       7.889  25.236  57.312  1.00  0.00     0.234 C 
HETATM    3  O   UNL     1       8.687  25.143  58.244  1.00  0.00    -0.272 OA
HETATM    4  H   UNL     1       6.765  26.326  55.963  1.00  0.00     0.170 HD
ENDROOT
BRANCH   2   5
HETATM    5  C   UNL     1       7.353  23.959  56.677  1.00  0.00     0.138 C 
HETATM    6  C   UNL     1       7.225  24.019  55.196  1.00  0.00    -0.008 A 
HETATM    7  C   UNL     1       8.232  23.260  54.620  1.00  0.00     0.076 A 
HETATM    8  C   UNL     1       6.327  24.726  54.414  1.00  0.00     0.030 A 
HETATM    9  C   UNL     1       8.395  23.179  53.253  1.00  0.00     0.039 A 
HETATM   10  O   UNL     1       9.061  22.665  55.534  1.00  0.00    -0.349 OA
HETATM   11  C   UNL     1       7.493  23.878  52.446  1.00  0.00     0.022 A 
HETATM   12  C   UNL     1       6.469  24.643  53.026  1.00  0.00     0.011 A 
HETATM   13 BR   UNL     1       5.269  25.589  51.911  1.00  0.00    -0.051 Br
HETATM   14  C   UNL     1       8.345  22.798  56.793  1.00  0.00     0.194 C 
ENDBRANCH   2   5
BRANCH   1  15
HETATM   15  C   UNL     1       7.704  27.681  57.150  1.00  0.00     0.158 A 
HETATM   16  N   UNL     1       8.932  28.150  57.357  1.00  0.00    -0.156 NA
HETATM   17  N   UNL     1       8.755  29.403  57.777  1.00  0.00    -0.280 N 
HETATM   18  C   UNL     1       7.444  29.779  57.851  1.00  0.00     0.037 A 
HETATM   19  H   UNL     1       9.579  29.948  58.009  1.00  0.00     0.189 HD
HETATM   20  C   UNL     1       6.718  28.678  57.426  1.00  0.00     0.010 A 
HETATM   21  C   UNL     1       5.243  28.563  57.308  1.00  0.00     0.054 C 
BRANCH  18  22
HETATM   22  C   UNL     1       7.042  31.134  58.319  1.00  0.00     0.055 C 
HETATM   23  C   UNL     1       7.507  31.398  59.743  1.00  0.00     0.011 C 
ENDBRANCH  18  22
ENDBRANCH   1  15
TORSDOF 3
ENDMDL
MODEL 3
REMARK VINA RESULT:      -7.6      4.533      7.052
REMARK  3 active torsions:
REMARK  status: ('A' for Active; 'I' for Inactive)
REMARK    1  A    between atoms: C_2  and  C_3 
REMARK    2  A    between atoms: C_7  and  N_8 
REMARK       I    between atoms: N_8  and  C_9 
REMARK    3  A    between atoms: C_9  and  C_10 
ROOT
HETATM    1  N   UNL     1       5.444  26.773  52.729  1.00  0.00    -0.309 N 
HETATM    2  C   UNL     1       6.570  26.331  53.399  1.00  0.00     0.234 C 
HETATM    3  O   UNL     1       7.741  26.600  53.139  1.00  0.00    -0.272 OA
HETATM    4  H   UNL     1       4.537  26.461  53.045  1.00  0.00     0.170 HD
ENDROOT
BRANCH   2   5
HETATM    5  C   UNL     1       6.274  25.397  54.565  1.00  0.00     0.138 C 
HETATM    6  C   UNL     1       7.157  24.202  54.631  1.00  0.00    -0.008 A 
HETATM    7  C   UNL     1       8.063  24.360  55.669  1.00  0.00     0.076 A 
HETATM    8  C   UNL     1       7.197  23.085  53.813  1.00  0.00     0.030 A 
HETATM    9  C   UNL     1       9.045  23.428  55.931  1.00  0.00     0.039 A 
HETATM   10  O   UNL     1       7.916  25.541  56.350  1.00  0.00    -0.349 OA
HETATM   11  C   UNL     1       9.096  22.290  55.122  1.00  0.00     0.022 A 
HETATM   12  C   UNL     1       8.177  22.124  54.073  1.00  0.00     0.011 A 
HETATM   13 BR   UNL     1       8.277  20.580  52.985  1.00  0.00    -0.051 Br
HETATM   14  C   UNL     1       6.619  26.034  55.914  1.00  0.00     0.194 C 
ENDBRANCH   2   5
BRANCH   1  15
HETATM   15  C   UNL     1       5.433  27.659  51.671  1.00  0.00     0.158 A 
HETATM   16  N   UNL     1       5.791  28.938  51.750  1.00  0.00    -0.156 NA
HETATM   17  N   UNL     1       5.598  29.426  50.523  1.00  0.00    -0.280 N 
HETATM   18  C   UNL     1       5.125  28.504  49.633  1.00  0.00     0.037 A 
HETATM   19  H   UNL     1       5.801  30.407  50.364  1.00  0.00     0.189 HD
HETATM   20  C   UNL     1       5.022  27.320  50.345  1.00  0.00     0.010 A 
HETATM   21  C   UNL     1       4.563  26.002  49.839  1.00  0.00     0.054 C 
BRANCH  18  22
HETATM   22  C   UNL     1       4.827  28.861  48.219  1.00  0.00     0.055 C 
HETATM   23  C   UNL     1       5.598  27.985  47.244  1.00  0.00     0.011 C 
ENDBRANCH  18  22
ENDBRANCH   1  15
TORSDOF 3
ENDMDL
MODEL 4
REMARK VINA RESULT:      -7.6      4.901      7.573
REMARK  3 active torsions:
REMARK  status: ('A' for Active; 'I' for Inactive)
REMARK    1  A    between atoms: C_2  and  C_3 
REMARK    2  A    between atoms: C_7  and  N_8 
REMARK       I    between atoms: N_8  and  C_9 
REMARK    3  A    between atoms: C_9  and  C_10 
ROOT
HETATM    1  N   UNL     1       4.861  26.009  51.711  1.00  0.00    -0.309 N 
HETATM    2  C   UNL     1       6.020  25.622  52.359  1.00  0.00     0.234 C 
HETATM    3  O   UNL     1       7.176  25.811  51.988  1.00  0.00    -0.272 OA
HETATM    4  H   UNL     1       3.971  25.777  52.126  1.00  0.00     0.170 HD
ENDROOT
BRANCH   2   5
HETATM    5  C   UNL     1       5.781  24.867  53.661  1.00  0.00     0.138 C 
HETATM    6  C   UNL     1       6.848  23.889  54.005  1.00  0.00    -0.008 A 
HETATM    7  C   UNL     1       7.611  24.394  55.048  1.00  0.00     0.076 A 
HETATM    8  C   UNL     1       7.159  22.675  53.417  1.00  0.00     0.030 A 
HETATM    9  C   UNL     1       8.711  23.724  55.540  1.00  0.00     0.039 A 
HETATM   10  O   UNL     1       7.197  25.626  55.483  1.00  0.00    -0.349 OA
HETATM   11  C   UNL     1       9.035  22.491  54.966  1.00  0.00     0.022 A 
HETATM   12  C   UNL     1       8.262  21.975  53.913  1.00  0.00     0.011 A 
HETATM   13 BR   UNL     1       8.730  20.312  53.144  1.00  0.00    -0.051 Br
HETATM   14  C   UNL     1       5.881  25.783  54.884  1.00  0.00     0.194 C 
ENDBRANCH   2   5
BRANCH   1  15
HETATM   15  C   UNL     1       4.800  26.742  50.543  1.00  0.00     0.158 A 
HETATM   16  N   UNL     1       4.513  26.238  49.346  1.00  0.00    -0.156 NA
HETATM   17  N   UNL     1       4.596  27.273  48.508  1.00  0.00    -0.280 N 
HETATM   18  C   UNL     1       4.928  28.449  49.118  1.00  0.00     0.037 A 
HETATM   19  H   UNL     1       4.424  27.102  47.523  1.00  0.00     0.189 HD
HETATM   20  C   UNL     1       5.051  28.147  50.464  1.00  0.00     0.010 A 
HETATM   21  C   UNL     1       5.390  29.078  51.569  1.00  0.00     0.054 C 
BRANCH  18  22
HETATM   22  C   UNL     1       5.089  29.713  48.348  1.00  0.00     0.055 C 
HETATM   23  C   UNL     1       4.112  29.791  47.185  1.00  0.00     0.011 C 
ENDBRANCH  18  22
ENDBRANCH   1  15
TORSDOF 3
ENDMDL
MODEL 5
REMARK VINA RESULT:      -7.5      5.882      9.408
REMARK  3 active torsions:
REMARK  status: ('A' for Active; 'I' for Inactive)
REMARK    1  A    between atoms: C_2  and  C_3 
REMARK    2  A    between atoms: C_7  and  N_8 
REMARK       I    between atoms: N_8  and  C_9 
REMARK    3  A    between atoms: C_9  and  C_10 
ROOT
HETATM    1  N   UNL     1       5.979  31.867  60.851  1.00  0.00    -0.309 N 
HETATM    2  C   UNL     1       6.873  31.960  59.801  1.00  0.00     0.234 C 
HETATM    3  O   UNL     1       6.692  32.513  58.718  1.00  0.00    -0.272 OA
HETATM    4  H   UNL     1       6.257  31.369  61.684  1.00  0.00     0.170 HD
ENDROOT
BRANCH   2   5
HETATM    5  C   UNL     1       8.207  31.268  60.056  1.00  0.00     0.138 C 
HETATM    6  C   UNL     1       8.676  30.410  58.935  1.00  0.00    -0.008 A 
HETATM    7  C   UNL     1       9.725  31.043  58.284  1.00  0.00     0.076 A 
HETATM    8  C   UNL     1       8.188  29.193  58.488  1.00  0.00     0.030 A 
HETATM    9  C   UNL     1      10.322  30.502  57.165  1.00  0.00     0.039 A 
HETATM   10  O   UNL     1      10.052  32.258  58.826  1.00  0.00    -0.349 OA
HETATM   11  C   UNL     1       9.851  29.270  56.704  1.00  0.00     0.022 A 
HETATM   12  C   UNL     1       8.792  28.625  57.364  1.00  0.00     0.011 A 
HETATM   13 BR   UNL     1       8.164  26.964  56.711  1.00  0.00    -0.051 Br
HETATM   14  C   UNL     1       9.370  32.263  60.110  1.00  0.00     0.194 C 
ENDBRANCH   2   5
BRANCH   1  15
HETATM   15  C   UNL     1       4.725  32.443  60.893  1.00  0.00     0.158 A 
HETATM   16  N   UNL     1       3.621  31.894  60.394  1.00  0.00    -0.156 NA
HETATM   17  N   UNL     1       2.660  32.791  60.616  1.00  0.00    -0.280 N 
HETATM   18  C   UNL     1       3.095  33.919  61.252  1.00  0.00     0.037 A 
HETATM   19  H   UNL     1       1.722  32.573  60.295  1.00  0.00     0.189 HD
HETATM   20  C   UNL     1       4.449  33.721  61.471  1.00  0.00     0.010 A 
HETATM   21  C   UNL     1       5.398  34.646  62.140  1.00  0.00     0.054 C 
BRANCH  18  22
HETATM   22  C   UNL     1       2.175  35.045  61.570  1.00  0.00     0.055 C 
HETATM   23  C   UNL     1       0.785  34.812  60.999  1.00  0.00     0.011 C 
ENDBRANCH  18  22
ENDBRANCH   1  15
TORSDOF 3
ENDMDL
MODEL 6
REMARK VINA RESULT:      -7.4      4.375      6.798
REMARK  3 active torsions:
REMARK  status: ('A' for Active; 'I' for Inactive)
REMARK    1  A    between atoms: C_2  and  C_3 
REMARK    2  A    between atoms: C_7  and  N_8 
REMARK       I    between atoms: N_8  and  C_9 
REMARK    3  A    between atoms: C_9  and  C_10 
ROOT
HETATM    1  N   UNL     1       6.107  26.135  51.070  1.00  0.00    -0.309 N 
HETATM    2  C   UNL     1       6.043  25.253  52.133  1.00  0.00     0.234 C 
HETATM    3  O   UNL     1       5.030  24.783  52.647  1.00  0.00    -0.272 OA
HETATM    4  H   UNL     1       7.012  26.452  50.755  1.00  0.00     0.170 HD
ENDROOT
BRANCH   2   5
HETATM    5  C   UNL     1       7.402  24.868  52.705  1.00  0.00     0.138 C 
HETATM    6  C   UNL     1       7.503  24.998  54.183  1.00  0.00    -0.008 A 
HETATM    7  C   UNL     1       7.490  23.734  54.755  1.00  0.00     0.076 A 
HETATM    8  C   UNL     1       7.551  26.137  54.970  1.00  0.00     0.030 A 
HETATM    9  C   UNL     1       7.514  23.550  56.121  1.00  0.00     0.039 A 
HETATM   10  O   UNL     1       7.392  22.720  53.838  1.00  0.00    -0.349 OA
HETATM   11  C   UNL     1       7.572  24.686  56.932  1.00  0.00     0.022 A 
HETATM   12  C   UNL     1       7.590  25.967  56.356  1.00  0.00     0.011 A 
HETATM   13 BR   UNL     1       7.655  27.490  57.477  1.00  0.00    -0.051 Br
HETATM   14  C   UNL     1       7.680  23.368  52.568  1.00  0.00     0.194 C 
ENDBRANCH   2   5
BRANCH   1  15
HETATM   15  C   UNL     1       5.028  26.602  50.347  1.00  0.00     0.158 A 
HETATM   16  N   UNL     1       4.322  25.876  49.483  1.00  0.00    -0.156 NA
HETATM   17  N   UNL     1       3.410  26.716  48.993  1.00  0.00    -0.280 N 
HETATM   18  C   UNL     1       3.489  27.978  49.509  1.00  0.00     0.037 A 
HETATM   19  H   UNL     1       2.765  26.362  48.293  1.00  0.00     0.189 HD
HETATM   20  C   UNL     1       4.531  27.940  50.422  1.00  0.00     0.010 A 
HETATM   21  C   UNL     1       5.027  29.053  51.269  1.00  0.00     0.054 C 
BRANCH  18  22
HETATM   22  C   UNL     1       2.570  29.064  49.071  1.00  0.00     0.055 C 
HETATM   23  C   UNL     1       1.468  29.312  50.091  1.00  0.00     0.011 C 
ENDBRANCH  18  22
ENDBRANCH   1  15
TORSDOF 3
ENDMDL
MODEL 7
REMARK VINA RESULT:      -7.4      3.601      7.220
REMARK  3 active torsions:
REMARK  status: ('A' for Active; 'I' for Inactive)
REMARK    1  A    between atoms: C_2  and  C_3 
REMARK    2  A    between atoms: C_7  and  N_8 
REMARK       I    between atoms: N_8  and  C_9 
REMARK    3  A    between atoms: C_9  and  C_10 
ROOT
HETATM    1  N   UNL     1       7.647  29.386  55.864  1.00  0.00    -0.309 N 
HETATM    2  C   UNL     1       7.312  28.100  55.483  1.00  0.00     0.234 C 
HETATM    3  O   UNL     1       7.111  27.136  56.220  1.00  0.00    -0.272 OA
HETATM    4  H   UNL     1       7.796  30.082  55.148  1.00  0.00     0.170 HD
ENDROOT
BRANCH   2   5
HETATM    5  C   UNL     1       7.211  27.904  53.975  1.00  0.00     0.138 C 
HETATM    6  C   UNL     1       6.886  26.513  53.559  1.00  0.00    -0.008 A 
HETATM    7  C   UNL     1       5.569  26.461  53.127  1.00  0.00     0.076 A 
HETATM    8  C   UNL     1       7.668  25.371  53.604  1.00  0.00     0.030 A 
HETATM    9  C   UNL     1       4.975  25.280  52.734  1.00  0.00     0.039 A 
HETATM   10  O   UNL     1       4.924  27.668  53.190  1.00  0.00    -0.349 OA
HETATM   11  C   UNL     1       5.751  24.118  52.763  1.00  0.00     0.022 A 
HETATM   12  C   UNL     1       7.086  24.168  53.195  1.00  0.00     0.011 A 
HETATM   13 BR   UNL     1       8.110  22.578  53.238  1.00  0.00    -0.051 Br
HETATM   14  C   UNL     1       6.000  28.629  53.381  1.00  0.00     0.194 C 
ENDBRANCH   2   5
BRANCH   1  15
HETATM   15  C   UNL     1       7.757  29.836  57.164  1.00  0.00     0.158 A 
HETATM   16  N   UNL     1       6.728  30.145  57.949  1.00  0.00    -0.156 NA
HETATM   17  N   UNL     1       7.279  30.563  59.090  1.00  0.00    -0.280 N 
HETATM   18  C   UNL     1       8.644  30.537  59.084  1.00  0.00     0.037 A 
HETATM   19  H   UNL     1       6.659  30.865  59.834  1.00  0.00     0.189 HD
HETATM   20  C   UNL     1       9.000  30.044  57.838  1.00  0.00     0.010 A 
HETATM   21  C   UNL     1      10.371  29.809  57.322  1.00  0.00     0.054 C 
BRANCH  18  22
HETATM   22  C   UNL     1       9.442  30.985  60.258  1.00  0.00     0.055 C 
HETATM   23  C   UNL     1       8.565  31.636  61.317  1.00  0.00     0.011 C 
ENDBRANCH  18  22
ENDBRANCH   1  15
TORSDOF 3
ENDMDL
MODEL 8
REMARK VINA RESULT:      -7.2      3.539      7.013
REMARK  3 active torsions:
REMARK  status: ('A' for Active; 'I' for Inactive)
REMARK    1  A    between atoms: C_2  and  C_3 
REMARK    2  A    between atoms: C_7  and  N_8 
REMARK       I    between atoms: N_8  and  C_9 
REMARK    3  A    between atoms: C_9  and  C_10 
ROOT
HETATM    1  N   UNL     1       7.122  27.092  55.308  1.00  0.00    -0.309 N 
HETATM    2  C   UNL     1       6.871  25.835  54.789  1.00  0.00     0.234 C 
HETATM    3  O   UNL     1       5.836  25.181  54.895  1.00  0.00    -0.272 OA
HETATM    4  H   UNL     1       8.028  27.510  55.154  1.00  0.00     0.170 HD
ENDROOT
BRANCH   2   5
HETATM    5  C   UNL     1       8.044  25.232  54.026  1.00  0.00     0.138 C 
HETATM    6  C   UNL     1       8.166  23.755  54.160  1.00  0.00    -0.008 A 
HETATM    7  C   UNL     1       7.765  23.155  52.975  1.00  0.00     0.076 A 
HETATM    8  C   UNL     1       8.551  22.994  55.251  1.00  0.00     0.030 A 
HETATM    9  C   UNL     1       7.720  21.785  52.829  1.00  0.00     0.039 A 
HETATM   10  O   UNL     1       7.373  24.049  52.014  1.00  0.00    -0.349 OA
HETATM   11  C   UNL     1       8.113  20.999  53.917  1.00  0.00     0.022 A 
HETATM   12  C   UNL     1       8.524  21.604  55.116  1.00  0.00     0.011 A 
HETATM   13 BR   UNL     1       9.038  20.518  56.576  1.00  0.00    -0.051 Br
HETATM   14  C   UNL     1       7.855  25.329  52.509  1.00  0.00     0.194 C 
ENDBRANCH   2   5
BRANCH   1  15
HETATM   15  C   UNL     1       6.216  27.872  55.997  1.00  0.00     0.158 A 
HETATM   16  N   UNL     1       6.064  27.869  57.319  1.00  0.00    -0.156 NA
HETATM   17  N   UNL     1       5.073  28.731  57.554  1.00  0.00    -0.280 N 
HETATM   18  C   UNL     1       4.567  29.308  56.424  1.00  0.00     0.037 A 
HETATM   19  H   UNL     1       4.782  28.872  58.516  1.00  0.00     0.189 HD
HETATM   20  C   UNL     1       5.307  28.784  55.376  1.00  0.00     0.010 A 
HETATM   21  C   UNL     1       5.165  29.091  53.931  1.00  0.00     0.054 C 
BRANCH  18  22
HETATM   22  C   UNL     1       3.442  30.282  56.477  1.00  0.00     0.055 C 
HETATM   23  C   UNL     1       3.255  30.847  57.877  1.00  0.00     0.011 C 
ENDBRANCH  18  22
ENDBRANCH   1  15
TORSDOF 3
ENDMDL
MODEL 9
REMARK VINA RESULT:      -7.2      6.277      8.650
REMARK  3 active torsions:
REMARK  status: ('A' for Active; 'I' for Inactive)
REMARK    1  A    between atoms: C_2  and  C_3 
REMARK    2  A    between atoms: C_7  and  N_8 
REMARK       I    between atoms: N_8  and  C_9 
REMARK    3  A    between atoms: C_9  and  C_10 
ROOT
HETATM    1  N   UNL     1       7.166  32.018  59.855  1.00  0.00    -0.309 N 
HETATM    2  C   UNL     1       6.857  31.800  61.185  1.00  0.00     0.234 C 
HETATM    3  O   UNL     1       7.551  31.231  62.025  1.00  0.00    -0.272 OA
HETATM    4  H   UNL     1       6.493  32.492  59.271  1.00  0.00     0.170 HD
ENDROOT
BRANCH   2   5
HETATM    5  C   UNL     1       5.487  32.325  61.599  1.00  0.00     0.138 C 
HETATM    6  C   UNL     1       5.525  33.345  62.681  1.00  0.00    -0.008 A 
HETATM    7  C   UNL     1       5.259  34.594  62.139  1.00  0.00     0.076 A 
HETATM    8  C   UNL     1       5.819  33.199  64.026  1.00  0.00     0.030 A 
HETATM    9  C   UNL     1       5.283  35.742  62.903  1.00  0.00     0.039 A 
HETATM   10  O   UNL     1       5.034  34.569  60.788  1.00  0.00    -0.349 OA
HETATM   11  C   UNL     1       5.570  35.614  64.265  1.00  0.00     0.022 A 
HETATM   12  C   UNL     1       5.835  34.350  64.817  1.00  0.00     0.011 A 
HETATM   13 BR   UNL     1       6.232  34.206  66.661  1.00  0.00    -0.051 Br
HETATM   14  C   UNL     1       4.833  33.158  60.494  1.00  0.00     0.194 C 
ENDBRANCH   2   5
BRANCH   1  15
HETATM   15  C   UNL     1       8.356  31.684  59.241  1.00  0.00     0.158 A 
HETATM   16  N   UNL     1       9.454  32.435  59.257  1.00  0.00    -0.156 NA
HETATM   17  N   UNL     1      10.343  31.762  58.524  1.00  0.00    -0.280 N 
HETATM   18  C   UNL     1       9.864  30.584  58.025  1.00  0.00     0.037 A 
HETATM   19  H   UNL     1      11.261  32.173  58.394  1.00  0.00     0.189 HD
HETATM   20  C   UNL     1       8.563  30.485  58.492  1.00  0.00     0.010 A 
HETATM   21  C   UNL     1       7.600  29.383  58.245  1.00  0.00     0.054 C 
BRANCH  18  22
HETATM   22  C   UNL     1      10.698  29.701  57.165  1.00  0.00     0.055 C 
HETATM   23  C   UNL     1      10.173  29.647  55.739  1.00  0.00     0.011 C 
ENDBRANCH  18  22
ENDBRANCH   1  15
TORSDOF 3
ENDMDL
MODEL 10
REMARK VINA RESULT:      -7.2      3.894      5.093
REMARK  3 active torsions:
REMARK  status: ('A' for Active; 'I' for Inactive)
REMARK    1  A    between atoms: C_2  and  C_3 
REMARK    2  A    between atoms: C_7  and  N_8 
REMARK       I    between atoms: N_8  and  C_9 
REMARK    3  A    between atoms: C_9  and  C_10 
ROOT
HETATM    1  N   UNL     1       7.600  25.335  53.708  1.00  0.00    -0.309 N 
HETATM    2  C   UNL     1       6.421  25.872  54.193  1.00  0.00     0.234 C 
HETATM    3  O   UNL     1       5.477  25.261  54.690  1.00  0.00    -0.272 OA
HETATM    4  H   UNL     1       8.290  25.957  53.313  1.00  0.00     0.170 HD
ENDROOT
BRANCH   2   5
HETATM    5  C   UNL     1       6.324  27.386  54.056  1.00  0.00     0.138 C 
HETATM    6  C   UNL     1       5.451  27.845  52.943  1.00  0.00    -0.008 A 
HETATM    7  C   UNL     1       4.266  28.341  53.466  1.00  0.00     0.076 A 
HETATM    8  C   UNL     1       5.657  27.785  51.575  1.00  0.00     0.030 A 
HETATM    9  C   UNL     1       3.241  28.787  52.660  1.00  0.00     0.039 A 
HETATM   10  O   UNL     1       4.206  28.286  54.834  1.00  0.00    -0.349 OA
HETATM   11  C   UNL     1       3.433  28.743  51.276  1.00  0.00     0.022 A 
HETATM   12  C   UNL     1       4.633  28.246  50.743  1.00  0.00     0.011 A 
HETATM   13 BR   UNL     1       4.863  28.185  48.866  1.00  0.00    -0.051 Br
HETATM   14  C   UNL     1       5.580  28.024  55.233  1.00  0.00     0.194 C 
ENDBRANCH   2   5
BRANCH   1  15
HETATM   15  C   UNL     1       7.955  24.002  53.755  1.00  0.00     0.158 A 
HETATM   16  N   UNL     1       7.877  23.161  52.727  1.00  0.00    -0.156 NA
HETATM   17  N   UNL     1       8.280  21.986  53.213  1.00  0.00    -0.280 N 
HETATM   18  C   UNL     1       8.626  22.026  54.534  1.00  0.00     0.037 A 
HETATM   19  H   UNL     1       8.284  21.188  52.586  1.00  0.00     0.189 HD
HETATM   20  C   UNL     1       8.446  23.343  54.924  1.00  0.00     0.010 A 
HETATM   21  C   UNL     1       8.690  23.926  56.267  1.00  0.00     0.054 C 
BRANCH  18  22
HETATM   22  C   UNL     1       9.081  20.811  55.262  1.00  0.00     0.055 C 
HETATM   23  C   UNL     1       8.001  20.273  56.188  1.00  0.00     0.011 C 
ENDBRANCH  18  22
ENDBRANCH   1  15
TORSDOF 3
ENDMDL
