MODEL 1
REMARK VINA RESULT:      -9.0      0.000      0.000
REMARK  3 active torsions:
REMARK  status: ('A' for Active; 'I' for Inactive)
REMARK    1  A    between atoms: C_4  and  N_5 
REMARK       I    between atoms: N_5  and  C_6 
REMARK    2  A    between atoms: C_6  and  C_7 
REMARK    3  A    between atoms: C_7  and  C_8 
ROOT
HETATM    1  C   UNL     1       8.250  24.691  55.400  1.00  0.00     0.286 C 
HETATM    2  N   UNL     1       8.477  23.255  55.861  1.00  0.00    -0.056 N 
HETATM    3  H   UNL     1       9.413  22.960  55.556  1.00  0.00     0.278 HD
HETATM    4  H   UNL     1       8.523  23.265  56.904  1.00  0.00     0.278 HD
HETATM    5  C   UNL     1       7.426  22.277  55.415  1.00  0.00     0.209 C 
HETATM    6  C   UNL     1       7.347  22.315  53.870  1.00  0.00     0.115 C 
HETATM    7  N   UNL     1       7.207  23.682  53.369  1.00  0.00    -0.353 N 
HETATM    8  C   UNL     1       7.797  24.786  53.931  1.00  0.00     0.249 C 
HETATM    9  O   UNL     1       7.858  25.838  53.306  1.00  0.00    -0.271 OA
HETATM   10  C   UNL     1       7.769  20.890  55.960  1.00  0.00     0.035 C 
HETATM   11  C   UNL     1       8.974  20.251  55.273  1.00  0.00     0.002 C 
HETATM   12  C   UNL     1       8.813  20.244  53.757  1.00  0.00     0.002 C 
HETATM   13  C   UNL     1       8.562  21.645  53.210  1.00  0.00     0.027 C 
HETATM   14  H   UNL     1       6.922  23.815  52.400  1.00  0.00     0.163 HD
ENDROOT
BRANCH   1  15
HETATM   15  C   UNL     1       7.227  25.441  56.266  1.00  0.00     0.146 C 
BRANCH  15  16
HETATM   16  C   UNL     1       7.885  26.401  57.227  1.00  0.00     0.224 C 
HETATM   17  N   UNL     1       8.294  27.580  56.653  1.00  0.00    -0.327 N 
HETATM   18  H   UNL     1       8.353  27.631  55.641  1.00  0.00     0.169 HD
HETATM   19  O   UNL     1       7.966  26.089  58.415  1.00  0.00    -0.273 OA
BRANCH  17  20
HETATM   20  C   UNL     1       8.751  28.732  57.332  1.00  0.00     0.035 A 
HETATM   21  C   UNL     1       7.977  29.443  58.255  1.00  0.00     0.036 A 
HETATM   22  C   UNL     1       8.468  30.614  58.853  1.00  0.00    -0.060 A 
HETATM   23  C   UNL     1       7.626  31.377  59.835  1.00  0.00     0.048 C 
HETATM   24  C   UNL     1       9.764  31.044  58.555  1.00  0.00     0.007 A 
HETATM   25  C   UNL     1      10.543  30.340  57.639  1.00  0.00     0.003 A 
HETATM   26  C   UNL     1      10.033  29.198  57.020  1.00  0.00     0.029 A 
ENDBRANCH  17  20
ENDBRANCH  15  16
ENDBRANCH   1  15
TORSDOF 3
ENDMDL
MODEL 2
REMARK VINA RESULT:      -8.9      1.658      7.765
REMARK  3 active torsions:
REMARK  status: ('A' for Active; 'I' for Inactive)
REMARK    1  A    between atoms: C_4  and  N_5 
REMARK       I    between atoms: N_5  and  C_6 
REMARK    2  A    between atoms: C_6  and  C_7 
REMARK    3  A    between atoms: C_7  and  C_8 
ROOT
HETATM    1  C   UNL     1       7.071  27.215  56.099  1.00  0.00     0.286 C 
HETATM    2  N   UNL     1       8.486  27.784  56.106  1.00  0.00    -0.056 N 
HETATM    3  H   UNL     1       8.944  27.506  56.982  1.00  0.00     0.278 HD
HETATM    4  H   UNL     1       9.023  27.299  55.353  1.00  0.00     0.278 HD
HETATM    5  C   UNL     1       8.567  29.272  55.899  1.00  0.00     0.209 C 
HETATM    6  C   UNL     1       7.728  29.965  56.999  1.00  0.00     0.115 C 
HETATM    7  N   UNL     1       6.381  29.400  57.089  1.00  0.00    -0.353 N 
HETATM    8  C   UNL     1       6.073  28.078  56.892  1.00  0.00     0.249 C 
HETATM    9  O   UNL     1       4.985  27.639  57.249  1.00  0.00    -0.271 OA
HETATM   10  C   UNL     1      10.035  29.700  55.911  1.00  0.00     0.035 C 
HETATM   11  C   UNL     1      10.673  29.633  57.297  1.00  0.00     0.002 C 
HETATM   12  C   UNL     1       9.849  30.394  58.329  1.00  0.00     0.002 C 
HETATM   13  C   UNL     1       8.407  29.899  58.376  1.00  0.00     0.027 C 
HETATM   14  H   UNL     1       5.674  29.916  57.610  1.00  0.00     0.163 HD
ENDROOT
BRANCH   1  15
HETATM   15  C   UNL     1       6.514  27.018  54.681  1.00  0.00     0.146 C 
BRANCH  15  16
HETATM   16  C   UNL     1       6.378  25.560  54.317  1.00  0.00     0.224 C 
HETATM   17  N   UNL     1       7.550  24.848  54.398  1.00  0.00    -0.327 N 
HETATM   18  H   UNL     1       8.424  25.360  54.451  1.00  0.00     0.169 HD
HETATM   19  O   UNL     1       5.264  25.122  54.026  1.00  0.00    -0.273 OA
BRANCH  17  20
HETATM   20  C   UNL     1       7.689  23.444  54.313  1.00  0.00     0.035 A 
HETATM   21  C   UNL     1       7.737  22.603  55.430  1.00  0.00     0.036 A 
HETATM   22  C   UNL     1       7.935  21.222  55.281  1.00  0.00    -0.060 A 
HETATM   23  C   UNL     1       7.996  20.328  56.487  1.00  0.00     0.048 C 
HETATM   24  C   UNL     1       8.036  20.679  53.998  1.00  0.00     0.007 A 
HETATM   25  C   UNL     1       7.986  21.508  52.880  1.00  0.00     0.003 A 
HETATM   26  C   UNL     1       7.828  22.886  53.038  1.00  0.00     0.029 A 
ENDBRANCH  17  20
ENDBRANCH  15  16
ENDBRANCH   1  15
TORSDOF 3
ENDMDL
MODEL 3
REMARK VINA RESULT:      -8.9      4.826      8.312
REMARK  3 active torsions:
REMARK  status: ('A' for Active; 'I' for Inactive)
REMARK    1  A    between atoms: C_4  and  N_5 
REMARK       I    between atoms: N_5  and  C_6 
REMARK    2  A    between atoms: C_6  and  C_7 
REMARK    3  A    between atoms: C_7  and  C_8 
ROOT
HETATM    1  C   UNL     1       5.199  27.408  51.699  1.00  0.00     0.286 C 
HETATM    2  N   UNL     1       5.547  27.203  50.229  1.00  0.00    -0.056 N 
HETATM    3  H   UNL     1       6.085  28.016  49.906  1.00  0.00     0.278 HD
HETATM    4  H   UNL     1       6.211  26.399  50.174  1.00  0.00     0.278 HD
HETATM    5  C   UNL     1       4.368  26.940  49.333  1.00  0.00     0.209 C 
HETATM    6  C   UNL     1       3.379  28.123  49.467  1.00  0.00     0.115 C 
HETATM    7  N   UNL     1       3.071  28.414  50.867  1.00  0.00    -0.353 N 
HETATM    8  C   UNL     1       3.963  28.304  51.904  1.00  0.00     0.249 C 
HETATM    9  O   UNL     1       3.715  28.821  52.987  1.00  0.00    -0.271 OA
HETATM   10  C   UNL     1       4.863  26.736  47.901  1.00  0.00     0.035 C 
HETATM   11  C   UNL     1       5.359  28.022  47.243  1.00  0.00     0.002 C 
HETATM   12  C   UNL     1       4.319  29.133  47.335  1.00  0.00     0.002 C 
HETATM   13  C   UNL     1       3.897  29.394  48.777  1.00  0.00     0.027 C 
HETATM   14  H   UNL     1       2.271  29.012  51.072  1.00  0.00     0.163 HD
ENDROOT
BRANCH   1  15
HETATM   15  C   UNL     1       4.963  26.088  52.447  1.00  0.00     0.146 C 
BRANCH  15  16
HETATM   16  C   UNL     1       6.237  25.301  52.636  1.00  0.00     0.224 C 
HETATM   17  N   UNL     1       6.274  24.560  53.792  1.00  0.00    -0.327 N 
HETATM   18  H   UNL     1       5.599  24.765  54.520  1.00  0.00     0.169 HD
HETATM   19  O   UNL     1       7.097  25.346  51.756  1.00  0.00    -0.273 OA
BRANCH  17  20
HETATM   20  C   UNL     1       7.237  23.583  54.133  1.00  0.00     0.035 A 
HETATM   21  C   UNL     1       7.499  22.451  53.355  1.00  0.00     0.036 A 
HETATM   22  C   UNL     1       8.426  21.487  53.779  1.00  0.00    -0.060 A 
HETATM   23  C   UNL     1       8.694  20.269  52.942  1.00  0.00     0.048 C 
HETATM   24  C   UNL     1       9.130  21.690  54.969  1.00  0.00     0.007 A 
HETATM   25  C   UNL     1       8.877  22.816  55.750  1.00  0.00     0.003 A 
HETATM   26  C   UNL     1       7.925  23.751  55.340  1.00  0.00     0.029 A 
ENDBRANCH  17  20
ENDBRANCH  15  16
ENDBRANCH   1  15
TORSDOF 3
ENDMDL
MODEL 4
REMARK VINA RESULT:      -8.9      3.842      6.597
REMARK  3 active torsions:
REMARK  status: ('A' for Active; 'I' for Inactive)
REMARK    1  A    between atoms: C_4  and  N_5 
REMARK       I    between atoms: N_5  and  C_6 
REMARK    2  A    between atoms: C_6  and  C_7 
REMARK    3  A    between atoms: C_7  and  C_8 
ROOT
HETATM    1  C   UNL     1       6.556  24.542  54.702  1.00  0.00     0.286 C 
HETATM    2  N   UNL     1       7.042  23.311  53.945  1.00  0.00    -0.056 N 
HETATM    3  H   UNL     1       6.399  22.535  54.141  1.00  0.00     0.278 HD
HETATM    4  H   UNL     1       6.931  23.506  52.926  1.00  0.00     0.278 HD
HETATM    5  C   UNL     1       8.467  22.920  54.227  1.00  0.00     0.209 C 
HETATM    6  C   UNL     1       8.616  22.682  55.749  1.00  0.00     0.115 C 
HETATM    7  N   UNL     1       8.090  23.803  56.527  1.00  0.00    -0.353 N 
HETATM    8  C   UNL     1       6.995  24.553  56.178  1.00  0.00     0.249 C 
HETATM    9  O   UNL     1       6.460  25.284  57.004  1.00  0.00    -0.271 OA
HETATM   10  C   UNL     1       8.824  21.690  53.394  1.00  0.00     0.035 C 
HETATM   11  C   UNL     1       8.143  20.412  53.878  1.00  0.00     0.002 C 
HETATM   12  C   UNL     1       8.383  20.182  55.366  1.00  0.00     0.002 C 
HETATM   13  C   UNL     1       7.940  21.379  56.201  1.00  0.00     0.027 C 
HETATM   14  H   UNL     1       8.334  23.864  57.515  1.00  0.00     0.163 HD
ENDROOT
BRANCH   1  15
HETATM   15  C   UNL     1       7.013  25.859  54.057  1.00  0.00     0.146 C 
BRANCH  15  16
HETATM   16  C   UNL     1       6.753  25.889  52.571  1.00  0.00     0.224 C 
HETATM   17  N   UNL     1       5.657  26.633  52.206  1.00  0.00    -0.327 N 
HETATM   18  H   UNL     1       4.989  26.894  52.923  1.00  0.00     0.169 HD
HETATM   19  O   UNL     1       7.533  25.303  51.820  1.00  0.00    -0.273 OA
BRANCH  17  20
HETATM   20  C   UNL     1       5.291  27.003  50.892  1.00  0.00     0.035 A 
HETATM   21  C   UNL     1       4.620  26.153  50.007  1.00  0.00     0.036 A 
HETATM   22  C   UNL     1       4.336  26.561  48.695  1.00  0.00    -0.060 A 
HETATM   23  C   UNL     1       3.624  25.637  47.749  1.00  0.00     0.048 C 
HETATM   24  C   UNL     1       4.686  27.851  48.288  1.00  0.00     0.007 A 
HETATM   25  C   UNL     1       5.353  28.706  49.163  1.00  0.00     0.003 A 
HETATM   26  C   UNL     1       5.666  28.278  50.455  1.00  0.00     0.029 A 
ENDBRANCH  17  20
ENDBRANCH  15  16
ENDBRANCH   1  15
TORSDOF 3
ENDMDL
MODEL 5
REMARK VINA RESULT:      -8.8      1.694      1.972
REMARK  3 active torsions:
REMARK  status: ('A' for Active; 'I' for Inactive)
REMARK    1  A    between atoms: C_4  and  N_5 
REMARK       I    between atoms: N_5  and  C_6 
REMARK    2  A    between atoms: C_6  and  C_7 
REMARK    3  A    between atoms: C_7  and  C_8 
ROOT
HETATM    1  C   UNL     1       7.271  26.459  55.459  1.00  0.00     0.286 C 
HETATM    2  N   UNL     1       7.801  25.040  55.637  1.00  0.00    -0.056 N 
HETATM    3  H   UNL     1       8.686  24.958  55.123  1.00  0.00     0.278 HD
HETATM    4  H   UNL     1       8.059  24.926  56.642  1.00  0.00     0.278 HD
HETATM    5  C   UNL     1       6.839  23.955  55.241  1.00  0.00     0.209 C 
HETATM    6  C   UNL     1       6.437  24.173  53.762  1.00  0.00     0.115 C 
HETATM    7  N   UNL     1       5.994  25.545  53.518  1.00  0.00    -0.353 N 
HETATM    8  C   UNL     1       6.516  26.656  54.132  1.00  0.00     0.249 C 
HETATM    9  O   UNL     1       6.288  27.773  53.680  1.00  0.00    -0.271 OA
HETATM   10  C   UNL     1       7.490  22.594  55.487  1.00  0.00     0.035 C 
HETATM   11  C   UNL     1       8.608  22.270  54.499  1.00  0.00     0.002 C 
HETATM   12  C   UNL     1       8.141  22.426  53.056  1.00  0.00     0.002 C 
HETATM   13  C   UNL     1       7.576  23.818  52.794  1.00  0.00     0.027 C 
HETATM   14  H   UNL     1       5.498  25.747  52.652  1.00  0.00     0.163 HD
ENDROOT
BRANCH   1  15
HETATM   15  C   UNL     1       6.349  26.900  56.605  1.00  0.00     0.146 C 
BRANCH  15  16
HETATM   16  C   UNL     1       6.714  28.263  57.141  1.00  0.00     0.224 C 
HETATM   17  N   UNL     1       7.941  28.316  57.756  1.00  0.00    -0.327 N 
HETATM   18  H   UNL     1       8.389  27.444  58.017  1.00  0.00     0.169 HD
HETATM   19  O   UNL     1       5.936  29.200  56.959  1.00  0.00    -0.273 OA
BRANCH  17  20
HETATM   20  C   UNL     1       8.626  29.481  58.168  1.00  0.00     0.035 A 
HETATM   21  C   UNL     1       8.195  30.302  59.216  1.00  0.00     0.036 A 
HETATM   22  C   UNL     1       8.889  31.478  59.539  1.00  0.00    -0.060 A 
HETATM   23  C   UNL     1       8.413  32.359  60.658  1.00  0.00     0.048 C 
HETATM   24  C   UNL     1      10.052  31.803  58.834  1.00  0.00     0.007 A 
HETATM   25  C   UNL     1      10.490  30.990  57.791  1.00  0.00     0.003 A 
HETATM   26  C   UNL     1       9.772  29.842  57.451  1.00  0.00     0.029 A 
ENDBRANCH  17  20
ENDBRANCH  15  16
ENDBRANCH   1  15
TORSDOF 3
ENDMDL
MODEL 6
REMARK VINA RESULT:      -8.7      3.105      6.914
REMARK  3 active torsions:
REMARK  status: ('A' for Active; 'I' for Inactive)
REMARK    1  A    between atoms: C_4  and  N_5 
REMARK       I    between atoms: N_5  and  C_6 
REMARK    2  A    between atoms: C_6  and  C_7 
REMARK    3  A    between atoms: C_7  and  C_8 
ROOT
HETATM    1  C   UNL     1       6.853  26.932  55.752  1.00  0.00     0.286 C 
HETATM    2  N   UNL     1       6.981  26.208  54.416  1.00  0.00    -0.056 N 
HETATM    3  H   UNL     1       7.377  26.861  53.729  1.00  0.00     0.278 HD
HETATM    4  H   UNL     1       7.704  25.463  54.531  1.00  0.00     0.278 HD
HETATM    5  C   UNL     1       5.706  25.593  53.908  1.00  0.00     0.209 C 
HETATM    6  C   UNL     1       4.639  26.708  53.789  1.00  0.00     0.115 C 
HETATM    7  N   UNL     1       4.531  27.487  55.023  1.00  0.00    -0.353 N 
HETATM    8  C   UNL     1       5.583  27.798  55.846  1.00  0.00     0.249 C 
HETATM    9  O   UNL     1       5.462  28.671  56.698  1.00  0.00    -0.271 OA
HETATM   10  C   UNL     1       5.983  24.889  52.579  1.00  0.00     0.035 C 
HETATM   11  C   UNL     1       6.239  25.856  51.425  1.00  0.00     0.002 C 
HETATM   12  C   UNL     1       5.122  26.887  51.302  1.00  0.00     0.002 C 
HETATM   13  C   UNL     1       4.912  27.649  52.607  1.00  0.00     0.027 C 
HETATM   14  H   UNL     1       3.719  28.091  55.144  1.00  0.00     0.163 HD
ENDROOT
BRANCH   1  15
HETATM   15  C   UNL     1       6.871  25.975  56.953  1.00  0.00     0.146 C 
BRANCH  15  16
HETATM   16  C   UNL     1       7.776  24.789  56.727  1.00  0.00     0.224 C 
HETATM   17  N   UNL     1       7.120  23.646  56.339  1.00  0.00    -0.327 N 
HETATM   18  H   UNL     1       6.114  23.601  56.461  1.00  0.00     0.169 HD
HETATM   19  O   UNL     1       8.991  24.935  56.860  1.00  0.00    -0.273 OA
BRANCH  17  20
HETATM   20  C   UNL     1       7.713  22.454  55.867  1.00  0.00     0.035 A 
HETATM   21  C   UNL     1       7.744  22.087  54.518  1.00  0.00     0.036 A 
HETATM   22  C   UNL     1       8.299  20.860  54.120  1.00  0.00    -0.060 A 
HETATM   23  C   UNL     1       8.318  20.470  52.670  1.00  0.00     0.048 C 
HETATM   24  C   UNL     1       8.869  20.022  55.082  1.00  0.00     0.007 A 
HETATM   25  C   UNL     1       8.845  20.381  56.427  1.00  0.00     0.003 A 
HETATM   26  C   UNL     1       8.257  21.585  56.820  1.00  0.00     0.029 A 
ENDBRANCH  17  20
ENDBRANCH  15  16
ENDBRANCH   1  15
TORSDOF 3
ENDMDL
MODEL 7
REMARK VINA RESULT:      -8.6      2.711      7.820
REMARK  3 active torsions:
REMARK  status: ('A' for Active; 'I' for Inactive)
REMARK    1  A    between atoms: C_4  and  N_5 
REMARK       I    between atoms: N_5  and  C_6 
REMARK    2  A    between atoms: C_6  and  C_7 
REMARK    3  A    between atoms: C_7  and  C_8 
ROOT
HETATM    1  C   UNL     1       7.437  27.955  56.882  1.00  0.00     0.286 C 
HETATM    2  N   UNL     1       6.403  28.161  55.781  1.00  0.00    -0.056 N 
HETATM    3  H   UNL     1       6.766  28.859  55.121  1.00  0.00     0.278 HD
HETATM    4  H   UNL     1       6.348  27.273  55.234  1.00  0.00     0.278 HD
HETATM    5  C   UNL     1       5.030  28.535  56.268  1.00  0.00     0.209 C 
HETATM    6  C   UNL     1       5.147  29.826  57.113  1.00  0.00     0.115 C 
HETATM    7  N   UNL     1       6.184  29.711  58.138  1.00  0.00    -0.353 N 
HETATM    8  C   UNL     1       7.364  29.029  57.983  1.00  0.00     0.249 C 
HETATM    9  O   UNL     1       8.286  29.207  58.772  1.00  0.00    -0.271 OA
HETATM   10  C   UNL     1       4.098  28.690  55.067  1.00  0.00     0.035 C 
HETATM   11  C   UNL     1       4.386  29.938  54.235  1.00  0.00     0.002 C 
HETATM   12  C   UNL     1       4.414  31.192  55.101  1.00  0.00     0.002 C 
HETATM   13  C   UNL     1       5.415  31.065  56.245  1.00  0.00     0.027 C 
HETATM   14  H   UNL     1       6.200  30.398  58.890  1.00  0.00     0.163 HD
ENDROOT
BRANCH   1  15
HETATM   15  C   UNL     1       7.332  26.577  57.551  1.00  0.00     0.146 C 
BRANCH  15  16
HETATM   16  C   UNL     1       6.947  25.494  56.573  1.00  0.00     0.224 C 
HETATM   17  N   UNL     1       8.005  24.964  55.875  1.00  0.00    -0.327 N 
HETATM   18  H   UNL     1       8.885  25.468  55.875  1.00  0.00     0.169 HD
HETATM   19  O   UNL     1       5.767  25.148  56.503  1.00  0.00    -0.273 OA
BRANCH  17  20
HETATM   20  C   UNL     1       7.979  23.816  55.051  1.00  0.00     0.035 A 
HETATM   21  C   UNL     1       8.212  22.520  55.524  1.00  0.00     0.036 A 
HETATM   22  C   UNL     1       8.229  21.427  54.643  1.00  0.00    -0.060 A 
HETATM   23  C   UNL     1       8.489  20.040  55.158  1.00  0.00     0.048 C 
HETATM   24  C   UNL     1       7.962  21.635  53.287  1.00  0.00     0.007 A 
HETATM   25  C   UNL     1       7.727  22.922  52.809  1.00  0.00     0.003 A 
HETATM   26  C   UNL     1       7.749  24.009  53.685  1.00  0.00     0.029 A 
ENDBRANCH  17  20
ENDBRANCH  15  16
ENDBRANCH   1  15
TORSDOF 3
ENDMDL
MODEL 8
REMARK VINA RESULT:      -8.3      3.090      8.204
REMARK  3 active torsions:
REMARK  status: ('A' for Active; 'I' for Inactive)
REMARK    1  A    between atoms: C_4  and  N_5 
REMARK       I    between atoms: N_5  and  C_6 
REMARK    2  A    between atoms: C_6  and  C_7 
REMARK    3  A    between atoms: C_7  and  C_8 
ROOT
HETATM    1  C   UNL     1       6.183  27.544  54.876  1.00  0.00     0.286 C 
HETATM    2  N   UNL     1       5.832  28.984  54.518  1.00  0.00    -0.056 N 
HETATM    3  H   UNL     1       6.386  29.611  55.113  1.00  0.00     0.278 HD
HETATM    4  H   UNL     1       6.173  29.158  53.548  1.00  0.00     0.278 HD
HETATM    5  C   UNL     1       4.366  29.313  54.600  1.00  0.00     0.209 C 
HETATM    6  C   UNL     1       3.875  29.004  56.035  1.00  0.00     0.115 C 
HETATM    7  N   UNL     1       4.256  27.657  56.459  1.00  0.00    -0.353 N 
HETATM    8  C   UNL     1       5.429  27.031  56.116  1.00  0.00     0.249 C 
HETATM    9  O   UNL     1       5.794  26.032  56.724  1.00  0.00    -0.271 OA
HETATM   10  C   UNL     1       4.158  30.774  54.201  1.00  0.00     0.035 C 
HETATM   11  C   UNL     1       4.667  31.765  55.245  1.00  0.00     0.002 C 
HETATM   12  C   UNL     1       4.094  31.464  56.626  1.00  0.00     0.002 C 
HETATM   13  C   UNL     1       4.386  30.030  57.057  1.00  0.00     0.027 C 
HETATM   14  H   UNL     1       3.803  27.262  57.281  1.00  0.00     0.163 HD
ENDROOT
BRANCH   1  15
HETATM   15  C   UNL     1       5.930  26.563  53.722  1.00  0.00     0.146 C 
BRANCH  15  16
HETATM   16  C   UNL     1       6.958  25.460  53.671  1.00  0.00     0.224 C 
HETATM   17  N   UNL     1       6.583  24.310  54.322  1.00  0.00    -0.327 N 
HETATM   18  H   UNL     1       5.799  24.352  54.965  1.00  0.00     0.169 HD
HETATM   19  O   UNL     1       8.000  25.648  53.041  1.00  0.00    -0.273 OA
BRANCH  17  20
HETATM   20  C   UNL     1       7.243  23.062  54.272  1.00  0.00     0.035 A 
HETATM   21  C   UNL     1       7.700  22.383  55.407  1.00  0.00     0.036 A 
HETATM   22  C   UNL     1       8.401  21.173  55.286  1.00  0.00    -0.060 A 
HETATM   23  C   UNL     1       8.897  20.457  56.509  1.00  0.00     0.048 C 
HETATM   24  C   UNL     1       8.598  20.619  54.018  1.00  0.00     0.007 A 
HETATM   25  C   UNL     1       8.143  21.286  52.883  1.00  0.00     0.003 A 
HETATM   26  C   UNL     1       7.481  22.509  53.009  1.00  0.00     0.029 A 
ENDBRANCH  17  20
ENDBRANCH  15  16
ENDBRANCH   1  15
TORSDOF 3
ENDMDL
MODEL 9
REMARK VINA RESULT:      -8.2      2.331      7.804
REMARK  3 active torsions:
REMARK  status: ('A' for Active; 'I' for Inactive)
REMARK    1  A    between atoms: C_4  and  N_5 
REMARK       I    between atoms: N_5  and  C_6 
REMARK    2  A    between atoms: C_6  and  C_7 
REMARK    3  A    between atoms: C_7  and  C_8 
ROOT
HETATM    1  C   UNL     1       5.563  27.336  54.830  1.00  0.00     0.286 C 
HETATM    2  N   UNL     1       6.681  27.479  55.857  1.00  0.00    -0.056 N 
HETATM    3  H   UNL     1       6.273  27.386  56.795  1.00  0.00     0.278 HD
HETATM    4  H   UNL     1       7.310  26.653  55.751  1.00  0.00     0.278 HD
HETATM    5  C   UNL     1       7.488  28.742  55.738  1.00  0.00     0.209 C 
HETATM    6  C   UNL     1       6.526  29.950  55.853  1.00  0.00     0.115 C 
HETATM    7  N   UNL     1       5.389  29.825  54.941  1.00  0.00    -0.353 N 
HETATM    8  C   UNL     1       4.774  28.642  54.615  1.00  0.00     0.249 C 
HETATM    9  O   UNL     1       3.675  28.648  54.072  1.00  0.00    -0.271 OA
HETATM   10  C   UNL     1       8.577  28.744  56.811  1.00  0.00     0.035 C 
HETATM   11  C   UNL     1       8.035  28.959  58.222  1.00  0.00     0.002 C 
HETATM   12  C   UNL     1       7.157  30.202  58.300  1.00  0.00     0.002 C 
HETATM   13  C   UNL     1       6.016  30.151  57.288  1.00  0.00     0.027 C 
HETATM   14  H   UNL     1       4.817  30.649  54.764  1.00  0.00     0.163 HD
ENDROOT
BRANCH   1  15
HETATM   15  C   UNL     1       6.066  26.850  53.463  1.00  0.00     0.146 C 
BRANCH  15  16
HETATM   16  C   UNL     1       6.194  25.348  53.401  1.00  0.00     0.224 C 
HETATM   17  N   UNL     1       7.302  24.851  54.044  1.00  0.00    -0.327 N 
HETATM   18  H   UNL     1       8.047  25.493  54.290  1.00  0.00     0.169 HD
HETATM   19  O   UNL     1       5.312  24.699  52.839  1.00  0.00    -0.273 OA
BRANCH  17  20
HETATM   20  C   UNL     1       7.574  23.492  54.323  1.00  0.00     0.035 A 
HETATM   21  C   UNL     1       7.914  22.555  53.342  1.00  0.00     0.036 A 
HETATM   22  C   UNL     1       8.116  21.207  53.676  1.00  0.00    -0.060 A 
HETATM   23  C   UNL     1       8.471  20.205  52.615  1.00  0.00     0.048 C 
HETATM   24  C   UNL     1       8.023  20.811  55.013  1.00  0.00     0.007 A 
HETATM   25  C   UNL     1       7.687  21.739  55.997  1.00  0.00     0.003 A 
HETATM   26  C   UNL     1       7.450  23.070  55.651  1.00  0.00     0.029 A 
ENDBRANCH  17  20
ENDBRANCH  15  16
ENDBRANCH   1  15
TORSDOF 3
ENDMDL
MODEL 10
REMARK VINA RESULT:      -8.2      5.940      9.102
REMARK  3 active torsions:
REMARK  status: ('A' for Active; 'I' for Inactive)
REMARK    1  A    between atoms: C_4  and  N_5 
REMARK       I    between atoms: N_5  and  C_6 
REMARK    2  A    between atoms: C_6  and  C_7 
REMARK    3  A    between atoms: C_7  and  C_8 
ROOT
HETATM    1  C   UNL     1       4.310  26.920  49.603  1.00  0.00     0.286 C 
HETATM    2  N   UNL     1       3.338  27.907  50.241  1.00  0.00    -0.056 N 
HETATM    3  H   UNL     1       2.380  27.598  50.034  1.00  0.00     0.278 HD
HETATM    4  H   UNL     1       3.435  27.816  51.276  1.00  0.00     0.278 HD
HETATM    5  C   UNL     1       3.545  29.342  49.842  1.00  0.00     0.209 C 
HETATM    6  C   UNL     1       3.441  29.440  48.301  1.00  0.00     0.115 C 
HETATM    7  N   UNL     1       4.298  28.458  47.636  1.00  0.00    -0.353 N 
HETATM    8  C   UNL     1       4.547  27.193  48.106  1.00  0.00     0.249 C 
HETATM    9  O   UNL     1       5.043  26.349  47.368  1.00  0.00    -0.271 OA
HETATM   10  C   UNL     1       2.520  30.216  50.565  1.00  0.00     0.035 C 
HETATM   11  C   UNL     1       1.098  30.042  50.038  1.00  0.00     0.002 C 
HETATM   12  C   UNL     1       1.036  30.224  48.526  1.00  0.00     0.002 C 
HETATM   13  C   UNL     1       1.996  29.283  47.805  1.00  0.00     0.027 C 
HETATM   14  H   UNL     1       4.486  28.574  46.642  1.00  0.00     0.163 HD
ENDROOT
BRANCH   1  15
HETATM   15  C   UNL     1       5.675  26.887  50.306  1.00  0.00     0.146 C 
BRANCH  15  16
HETATM   16  C   UNL     1       5.781  25.755  51.297  1.00  0.00     0.224 C 
HETATM   17  N   UNL     1       7.070  25.433  51.648  1.00  0.00    -0.327 N 
HETATM   18  H   UNL     1       7.829  25.781  51.072  1.00  0.00     0.169 HD
HETATM   19  O   UNL     1       4.747  25.249  51.734  1.00  0.00    -0.273 OA
BRANCH  17  20
HETATM   20  C   UNL     1       7.466  24.565  52.691  1.00  0.00     0.035 A 
HETATM   21  C   UNL     1       7.780  23.216  52.496  1.00  0.00     0.036 A 
HETATM   22  C   UNL     1       8.111  22.392  53.583  1.00  0.00    -0.060 A 
HETATM   23  C   UNL     1       8.437  20.942  53.367  1.00  0.00     0.048 C 
HETATM   24  C   UNL     1       8.175  22.942  54.866  1.00  0.00     0.007 A 
HETATM   25  C   UNL     1       7.866  24.286  55.068  1.00  0.00     0.003 A 
HETATM   26  C   UNL     1       7.500  25.090  53.987  1.00  0.00     0.029 A 
ENDBRANCH  17  20
ENDBRANCH  15  16
ENDBRANCH   1  15
TORSDOF 3
ENDMDL
