MODEL 1
REMARK VINA RESULT:      -9.2      0.000      0.000
REMARK  8 active torsions:
REMARK  status: ('A' for Active; 'I' for Inactive)
REMARK    1  A    between atoms: N_2  and  C_4 
REMARK    2  A    between atoms: N_2  and  C_28 
REMARK    3  A    between atoms: N_7  and  C_8 
REMARK    4  A    between atoms: C_11  and  C_12 
REMARK       I    between atoms: C_12  and  N_13 
REMARK    5  A    between atoms: N_13  and  C_14 
REMARK    6  A    between atoms: C_14  and  C_15 
REMARK    7  A    between atoms: C_15  and  N_16 
REMARK    8  A    between atoms: C_28  and  C_29 
ROOT
HETATM    1  C   UNL     1       7.683  28.423  56.459  1.00  0.00     0.030 A 
HETATM    2  C   UNL     1       9.064  28.636  56.585  1.00  0.00     0.030 A 
HETATM    3  C   UNL     1       9.587  29.616  57.445  1.00  0.00     0.019 A 
HETATM    4  C   UNL     1       8.727  30.409  58.207  1.00  0.00     0.032 A 
HETATM    5  C   UNL     1       7.350  30.215  58.102  1.00  0.00     0.019 A 
HETATM    6  C   UNL     1       6.841  29.240  57.234  1.00  0.00     0.030 A 
ENDROOT
BRANCH   1   7
HETATM    7  N   UNL     1       7.130  27.408  55.669  1.00  0.00    -0.381 N 
HETATM    8  C   UNL     1       7.125  26.043  56.190  1.00  0.00     0.125 C 
HETATM    9  C   UNL     1       6.048  25.233  55.472  1.00  0.00     0.053 C 
HETATM   10  C   UNL     1       6.182  25.285  53.941  1.00  0.00     0.191 C 
HETATM   11  C   UNL     1       6.221  26.758  53.502  1.00  0.00     0.053 C 
HETATM   12  C   UNL     1       7.305  27.558  54.221  1.00  0.00     0.125 C 
BRANCH  10  13
HETATM   13  N   UNL     1       7.399  24.482  53.440  1.00  0.00    -0.067 N 
HETATM   14  C   UNL     1       8.105  25.119  52.258  1.00  0.00     0.270 C 
HETATM   15  H   UNL     1       8.095  24.432  54.192  1.00  0.00     0.280 HD
BRANCH  13  16
HETATM   16  C   UNL     1       7.053  23.033  53.088  1.00  0.00     0.273 C 
BRANCH  16  17
HETATM   17  C   UNL     1       7.757  22.049  53.968  1.00  0.00    -0.026 A 
HETATM   18  C   UNL     1       8.138  22.292  55.276  1.00  0.00     0.058 A 
HETATM   19  S   UNL     1       8.899  20.949  56.009  1.00  0.00    -0.113 SA
HETATM   20  C   UNL     1       8.771  20.027  54.579  1.00  0.00     0.050 A 
HETATM   21  C   UNL     1       8.150  20.725  53.567  1.00  0.00     0.016 A 
ENDBRANCH  16  17
ENDBRANCH  13  16
ENDBRANCH  10  13
ENDBRANCH   1   7
BRANCH   4  22
HETATM   22  C   UNL     1       9.238  31.389  59.201  1.00  0.00     0.251 C 
HETATM   23  N   UNL     1       8.920  31.174  60.523  1.00  0.00    -0.355 N 
HETATM   24  H   UNL     1       8.368  30.353  60.750  1.00  0.00     0.162 HD
HETATM   25  O   UNL     1       9.930  32.339  58.841  1.00  0.00    -0.268 OA
BRANCH  23  26
HETATM   26  C   UNL     1       9.071  32.171  61.582  1.00  0.00     0.150 C 
BRANCH  26  27
HETATM   27  C   UNL     1       8.417  31.848  62.945  1.00  0.00     0.254 C 
BRANCH  27  28
HETATM   28  N   UNL     1       7.149  32.627  63.196  1.00  0.00    -0.066 N 
HETATM   29  H   UNL     1       7.199  33.459  62.570  1.00  0.00     0.280 HD
HETATM   30  C   UNL     1       5.865  31.903  62.824  1.00  0.00     0.261 C 
HETATM   31  C   UNL     1       4.666  32.830  63.059  1.00  0.00     0.195 C 
HETATM   32  O   UNL     1       4.625  33.273  64.419  1.00  0.00    -0.388 OA
HETATM   33  C   UNL     1       5.797  34.021  64.762  1.00  0.00     0.195 C 
HETATM   34  C   UNL     1       7.058  33.164  64.615  1.00  0.00     0.261 C 
ENDBRANCH  27  28
ENDBRANCH  26  27
ENDBRANCH  23  26
ENDBRANCH   4  22
TORSDOF 8
ENDMDL
MODEL 2
REMARK VINA RESULT:      -8.5      4.817     11.832
REMARK  8 active torsions:
REMARK  status: ('A' for Active; 'I' for Inactive)
REMARK    1  A    between atoms: N_2  and  C_4 
REMARK    2  A    between atoms: N_2  and  C_28 
REMARK    3  A    between atoms: N_7  and  C_8 
REMARK    4  A    between atoms: C_11  and  C_12 
REMARK       I    between atoms: C_12  and  N_13 
REMARK    5  A    between atoms: N_13  and  C_14 
REMARK    6  A    between atoms: C_14  and  C_15 
REMARK    7  A    between atoms: C_15  and  N_16 
REMARK    8  A    between atoms: C_28  and  C_29 
ROOT
HETATM    1  C   UNL     1       7.334  32.551  62.460  1.00  0.00     0.030 A 
HETATM    2  C   UNL     1       8.670  32.121  62.497  1.00  0.00     0.030 A 
HETATM    3  C   UNL     1       9.354  31.729  61.333  1.00  0.00     0.019 A 
HETATM    4  C   UNL     1       8.707  31.765  60.096  1.00  0.00     0.032 A 
HETATM    5  C   UNL     1       7.381  32.192  60.033  1.00  0.00     0.019 A 
HETATM    6  C   UNL     1       6.707  32.570  61.202  1.00  0.00     0.030 A 
ENDROOT
BRANCH   1   7
HETATM    7  N   UNL     1       6.646  33.017  63.587  1.00  0.00    -0.381 N 
HETATM    8  C   UNL     1       5.230  33.351  63.451  1.00  0.00     0.125 C 
HETATM    9  C   UNL     1       4.567  33.306  64.826  1.00  0.00     0.053 C 
HETATM   10  C   UNL     1       5.288  34.180  65.866  1.00  0.00     0.191 C 
HETATM   11  C   UNL     1       6.772  33.779  65.899  1.00  0.00     0.053 C 
HETATM   12  C   UNL     1       7.427  33.833  64.521  1.00  0.00     0.125 C 
BRANCH  10  13
HETATM   13  N   UNL     1       5.083  35.684  65.598  1.00  0.00    -0.067 N 
HETATM   14  C   UNL     1       4.855  36.503  66.854  1.00  0.00     0.270 C 
HETATM   15  H   UNL     1       5.934  36.062  65.165  1.00  0.00     0.280 HD
BRANCH  13  16
HETATM   16  C   UNL     1       3.947  35.965  64.612  1.00  0.00     0.273 C 
BRANCH  16  17
HETATM   17  C   UNL     1       4.384  36.825  63.468  1.00  0.00    -0.026 A 
HETATM   18  C   UNL     1       3.529  37.427  62.562  1.00  0.00     0.058 A 
HETATM   19  S   UNL     1       4.349  38.363  61.390  1.00  0.00    -0.113 SA
HETATM   20  C   UNL     1       5.869  37.949  62.046  1.00  0.00     0.050 A 
HETATM   21  C   UNL     1       5.753  37.125  63.143  1.00  0.00     0.016 A 
ENDBRANCH  16  17
ENDBRANCH  13  16
ENDBRANCH  10  13
ENDBRANCH   1   7
BRANCH   4  22
HETATM   22  C   UNL     1       9.421  31.454  58.830  1.00  0.00     0.251 C 
HETATM   23  N   UNL     1       8.892  30.463  58.033  1.00  0.00    -0.355 N 
HETATM   24  H   UNL     1       8.039  30.011  58.343  1.00  0.00     0.162 HD
HETATM   25  O   UNL     1      10.431  32.078  58.514  1.00  0.00    -0.268 OA
BRANCH  23  26
HETATM   26  C   UNL     1       9.605  29.824  56.929  1.00  0.00     0.150 C 
BRANCH  26  27
HETATM   27  C   UNL     1       8.748  29.064  55.890  1.00  0.00     0.254 C 
BRANCH  27  28
HETATM   28  N   UNL     1       7.388  28.672  56.414  1.00  0.00    -0.066 N 
HETATM   29  H   UNL     1       7.435  28.798  57.448  1.00  0.00     0.280 HD
HETATM   30  C   UNL     1       6.240  29.548  55.939  1.00  0.00     0.261 C 
HETATM   31  C   UNL     1       4.935  29.087  56.601  1.00  0.00     0.195 C 
HETATM   32  O   UNL     1       4.677  27.708  56.312  1.00  0.00    -0.388 OA
HETATM   33  C   UNL     1       5.717  26.864  56.820  1.00  0.00     0.195 C 
HETATM   34  C   UNL     1       7.065  27.206  56.176  1.00  0.00     0.261 C 
ENDBRANCH  27  28
ENDBRANCH  26  27
ENDBRANCH  23  26
ENDBRANCH   4  22
TORSDOF 8
ENDMDL
MODEL 3
REMARK VINA RESULT:      -8.2      2.164      2.880
REMARK  8 active torsions:
REMARK  status: ('A' for Active; 'I' for Inactive)
REMARK    1  A    between atoms: N_2  and  C_4 
REMARK    2  A    between atoms: N_2  and  C_28 
REMARK    3  A    between atoms: N_7  and  C_8 
REMARK    4  A    between atoms: C_11  and  C_12 
REMARK       I    between atoms: C_12  and  N_13 
REMARK    5  A    between atoms: N_13  and  C_14 
REMARK    6  A    between atoms: C_14  and  C_15 
REMARK    7  A    between atoms: C_15  and  N_16 
REMARK    8  A    between atoms: C_28  and  C_29 
ROOT
HETATM    1  C   UNL     1       6.081  29.040  57.442  1.00  0.00     0.030 A 
HETATM    2  C   UNL     1       7.100  29.889  57.902  1.00  0.00     0.030 A 
HETATM    3  C   UNL     1       6.833  31.200  58.333  1.00  0.00     0.019 A 
HETATM    4  C   UNL     1       5.525  31.689  58.316  1.00  0.00     0.032 A 
HETATM    5  C   UNL     1       4.495  30.864  57.867  1.00  0.00     0.019 A 
HETATM    6  C   UNL     1       4.776  29.562  57.429  1.00  0.00     0.030 A 
ENDROOT
BRANCH   1   7
HETATM    7  N   UNL     1       6.300  27.707  57.074  1.00  0.00    -0.381 N 
HETATM    8  C   UNL     1       7.647  27.305  56.676  1.00  0.00     0.125 C 
HETATM    9  C   UNL     1       7.793  25.795  56.843  1.00  0.00     0.053 C 
HETATM   10  C   UNL     1       6.696  25.003  56.112  1.00  0.00     0.191 C 
HETATM   11  C   UNL     1       5.325  25.531  56.568  1.00  0.00     0.053 C 
HETATM   12  C   UNL     1       5.187  27.041  56.391  1.00  0.00     0.125 C 
BRANCH  10  13
HETATM   13  N   UNL     1       6.872  25.050  54.582  1.00  0.00    -0.067 N 
HETATM   14  C   UNL     1       5.717  24.433  53.815  1.00  0.00     0.270 C 
HETATM   15  H   UNL     1       6.918  26.031  54.283  1.00  0.00     0.280 HD
BRANCH  13  16
HETATM   16  C   UNL     1       8.178  24.404  54.112  1.00  0.00     0.273 C 
BRANCH  16  17
HETATM   17  C   UNL     1       8.125  22.910  54.160  1.00  0.00    -0.026 A 
HETATM   18  C   UNL     1       8.334  22.150  55.298  1.00  0.00     0.058 A 
HETATM   19  S   UNL     1       8.179  20.471  55.016  1.00  0.00    -0.113 SA
HETATM   20  C   UNL     1       7.869  20.724  53.356  1.00  0.00     0.050 A 
HETATM   21  C   UNL     1       7.872  22.061  53.027  1.00  0.00     0.016 A 
ENDBRANCH  16  17
ENDBRANCH  13  16
ENDBRANCH  10  13
ENDBRANCH   1   7
BRANCH   4  22
HETATM   22  C   UNL     1       5.184  33.032  58.855  1.00  0.00     0.251 C 
HETATM   23  N   UNL     1       4.929  33.126  60.205  1.00  0.00    -0.355 N 
HETATM   24  H   UNL     1       5.003  32.281  60.761  1.00  0.00     0.162 HD
HETATM   25  O   UNL     1       5.151  34.011  58.113  1.00  0.00    -0.268 OA
BRANCH  23  26
HETATM   26  C   UNL     1       4.294  34.276  60.847  1.00  0.00     0.150 C 
BRANCH  26  27
HETATM   27  C   UNL     1       5.197  35.171  61.727  1.00  0.00     0.254 C 
BRANCH  27  28
HETATM   28  N   UNL     1       5.066  34.880  63.202  1.00  0.00    -0.066 N 
HETATM   29  H   UNL     1       5.432  35.725  63.691  1.00  0.00     0.280 HD
HETATM   30  C   UNL     1       3.640  34.696  63.696  1.00  0.00     0.261 C 
HETATM   31  C   UNL     1       3.648  34.481  65.215  1.00  0.00     0.195 C 
HETATM   32  O   UNL     1       4.458  33.354  65.566  1.00  0.00    -0.388 OA
HETATM   33  C   UNL     1       5.821  33.547  65.171  1.00  0.00     0.195 C 
HETATM   34  C   UNL     1       5.934  33.717  63.652  1.00  0.00     0.261 C 
ENDBRANCH  27  28
ENDBRANCH  26  27
ENDBRANCH  23  26
ENDBRANCH   4  22
TORSDOF 8
ENDMDL
MODEL 4
REMARK VINA RESULT:      -8.2      1.561      2.127
REMARK  8 active torsions:
REMARK  status: ('A' for Active; 'I' for Inactive)
REMARK    1  A    between atoms: N_2  and  C_4 
REMARK    2  A    between atoms: N_2  and  C_28 
REMARK    3  A    between atoms: N_7  and  C_8 
REMARK    4  A    between atoms: C_11  and  C_12 
REMARK       I    between atoms: C_12  and  N_13 
REMARK    5  A    between atoms: N_13  and  C_14 
REMARK    6  A    between atoms: C_14  and  C_15 
REMARK    7  A    between atoms: C_15  and  N_16 
REMARK    8  A    between atoms: C_28  and  C_29 
ROOT
HETATM    1  C   UNL     1       5.791  28.157  56.211  1.00  0.00     0.030 A 
HETATM    2  C   UNL     1       4.781  29.129  56.267  1.00  0.00     0.030 A 
HETATM    3  C   UNL     1       4.886  30.260  57.094  1.00  0.00     0.019 A 
HETATM    4  C   UNL     1       6.021  30.443  57.888  1.00  0.00     0.032 A 
HETATM    5  C   UNL     1       7.040  29.492  57.847  1.00  0.00     0.019 A 
HETATM    6  C   UNL     1       6.918  28.363  57.026  1.00  0.00     0.030 A 
ENDROOT
BRANCH   1   7
HETATM    7  N   UNL     1       5.751  27.057  55.345  1.00  0.00    -0.381 N 
HETATM    8  C   UNL     1       6.050  25.733  55.885  1.00  0.00     0.125 C 
HETATM    9  C   UNL     1       5.446  24.668  54.972  1.00  0.00     0.053 C 
HETATM   10  C   UNL     1       5.877  24.824  53.504  1.00  0.00     0.191 C 
HETATM   11  C   UNL     1       5.559  26.258  53.049  1.00  0.00     0.053 C 
HETATM   12  C   UNL     1       6.173  27.315  53.964  1.00  0.00     0.125 C 
BRANCH  10  13
HETATM   13  N   UNL     1       7.356  24.446  53.293  1.00  0.00    -0.067 N 
HETATM   14  C   UNL     1       8.093  25.373  52.344  1.00  0.00     0.270 C 
HETATM   15  H   UNL     1       7.847  24.514  54.192  1.00  0.00     0.280 HD
BRANCH  13  16
HETATM   16  C   UNL     1       7.542  23.003  52.819  1.00  0.00     0.273 C 
BRANCH  16  17
HETATM   17  C   UNL     1       7.946  22.085  53.929  1.00  0.00    -0.026 A 
HETATM   18  C   UNL     1       8.310  22.497  55.199  1.00  0.00     0.058 A 
HETATM   19  S   UNL     1       8.693  21.194  56.238  1.00  0.00    -0.113 SA
HETATM   20  C   UNL     1       8.419  20.054  54.997  1.00  0.00     0.050 A 
HETATM   21  C   UNL     1       8.032  20.654  53.819  1.00  0.00     0.016 A 
ENDBRANCH  16  17
ENDBRANCH  13  16
ENDBRANCH  10  13
ENDBRANCH   1   7
BRANCH   4  22
HETATM   22  C   UNL     1       6.218  31.671  58.702  1.00  0.00     0.251 C 
HETATM   23  N   UNL     1       6.475  31.504  60.045  1.00  0.00    -0.355 N 
HETATM   24  H   UNL     1       6.531  30.557  60.403  1.00  0.00     0.162 HD
HETATM   25  O   UNL     1       6.167  32.781  58.178  1.00  0.00    -0.268 OA
BRANCH  23  26
HETATM   26  C   UNL     1       6.396  32.573  61.039  1.00  0.00     0.150 C 
BRANCH  26  27
HETATM   27  C   UNL     1       6.535  32.159  62.523  1.00  0.00     0.254 C 
BRANCH  27  28
HETATM   28  N   UNL     1       5.442  32.717  63.400  1.00  0.00    -0.066 N 
HETATM   29  H   UNL     1       4.852  31.902  63.672  1.00  0.00     0.280 HD
HETATM   30  C   UNL     1       5.919  33.339  64.703  1.00  0.00     0.261 C 
HETATM   31  C   UNL     1       4.709  33.798  65.527  1.00  0.00     0.195 C 
HETATM   32  O   UNL     1       3.908  34.723  64.784  1.00  0.00    -0.388 OA
HETATM   33  C   UNL     1       3.391  34.126  63.589  1.00  0.00     0.195 C 
HETATM   34  C   UNL     1       4.526  33.680  62.662  1.00  0.00     0.261 C 
ENDBRANCH  27  28
ENDBRANCH  26  27
ENDBRANCH  23  26
ENDBRANCH   4  22
TORSDOF 8
ENDMDL
MODEL 5
REMARK VINA RESULT:      -8.0      4.456     11.784
REMARK  8 active torsions:
REMARK  status: ('A' for Active; 'I' for Inactive)
REMARK    1  A    between atoms: N_2  and  C_4 
REMARK    2  A    between atoms: N_2  and  C_28 
REMARK    3  A    between atoms: N_7  and  C_8 
REMARK    4  A    between atoms: C_11  and  C_12 
REMARK       I    between atoms: C_12  and  N_13 
REMARK    5  A    between atoms: N_13  and  C_14 
REMARK    6  A    between atoms: C_14  and  C_15 
REMARK    7  A    between atoms: C_15  and  N_16 
REMARK    8  A    between atoms: C_28  and  C_29 
ROOT
HETATM    1  C   UNL     1       7.324  30.025  57.980  1.00  0.00     0.030 A 
HETATM    2  C   UNL     1       6.608  30.268  56.797  1.00  0.00     0.030 A 
HETATM    3  C   UNL     1       6.407  29.264  55.835  1.00  0.00     0.019 A 
HETATM    4  C   UNL     1       6.918  27.982  56.044  1.00  0.00     0.032 A 
HETATM    5  C   UNL     1       7.629  27.715  57.213  1.00  0.00     0.019 A 
HETATM    6  C   UNL     1       7.833  28.727  58.160  1.00  0.00     0.030 A 
ENDROOT
BRANCH   1   7
HETATM    7  N   UNL     1       7.481  30.980  58.992  1.00  0.00    -0.381 N 
HETATM    8  C   UNL     1       8.617  30.852  59.902  1.00  0.00     0.125 C 
HETATM    9  C   UNL     1       8.911  32.209  60.536  1.00  0.00     0.053 C 
HETATM   10  C   UNL     1       7.678  32.834  61.209  1.00  0.00     0.191 C 
HETATM   11  C   UNL     1       6.532  32.884  60.184  1.00  0.00     0.053 C 
HETATM   12  C   UNL     1       6.242  31.521  59.560  1.00  0.00     0.125 C 
BRANCH  10  13
HETATM   13  N   UNL     1       7.287  32.093  62.503  1.00  0.00    -0.067 N 
HETATM   14  C   UNL     1       5.797  31.840  62.635  1.00  0.00     0.270 C 
HETATM   15  H   UNL     1       7.732  31.168  62.501  1.00  0.00     0.280 HD
BRANCH  13  16
HETATM   16  C   UNL     1       7.783  32.798  63.767  1.00  0.00     0.273 C 
BRANCH  16  17
HETATM   17  C   UNL     1       6.779  33.764  64.313  1.00  0.00    -0.026 A 
HETATM   18  C   UNL     1       6.244  33.708  65.588  1.00  0.00     0.058 A 
HETATM   19  S   UNL     1       5.142  34.975  65.904  1.00  0.00    -0.113 SA
HETATM   20  C   UNL     1       5.326  35.602  64.328  1.00  0.00     0.050 A 
HETATM   21  C   UNL     1       6.220  34.867  63.580  1.00  0.00     0.016 A 
ENDBRANCH  16  17
ENDBRANCH  13  16
ENDBRANCH  10  13
ENDBRANCH   1   7
BRANCH   4  22
HETATM   22  C   UNL     1       6.645  26.865  55.101  1.00  0.00     0.251 C 
HETATM   23  N   UNL     1       7.628  25.914  54.946  1.00  0.00    -0.355 N 
HETATM   24  H   UNL     1       8.476  26.015  55.493  1.00  0.00     0.162 HD
HETATM   25  O   UNL     1       5.572  26.802  54.505  1.00  0.00    -0.268 OA
BRANCH  23  26
HETATM   26  C   UNL     1       7.664  24.933  53.862  1.00  0.00     0.150 C 
BRANCH  26  27
HETATM   27  C   UNL     1       6.948  23.586  54.114  1.00  0.00     0.254 C 
BRANCH  27  28
HETATM   28  N   UNL     1       7.897  22.418  54.216  1.00  0.00    -0.066 N 
HETATM   29  H   UNL     1       8.855  22.827  54.193  1.00  0.00     0.280 HD
HETATM   30  C   UNL     1       7.811  21.632  55.515  1.00  0.00     0.261 C 
HETATM   31  C   UNL     1       8.873  20.525  55.516  1.00  0.00     0.195 C 
HETATM   32  O   UNL     1       8.710  19.661  54.386  1.00  0.00    -0.388 OA
HETATM   33  C   UNL     1       8.862  20.376  53.155  1.00  0.00     0.195 C 
HETATM   34  C   UNL     1       7.805  21.478  53.025  1.00  0.00     0.261 C 
ENDBRANCH  27  28
ENDBRANCH  26  27
ENDBRANCH  23  26
ENDBRANCH   4  22
TORSDOF 8
ENDMDL
MODEL 6
REMARK VINA RESULT:      -8.0      4.243     10.652
REMARK  8 active torsions:
REMARK  status: ('A' for Active; 'I' for Inactive)
REMARK    1  A    between atoms: N_2  and  C_4 
REMARK    2  A    between atoms: N_2  and  C_28 
REMARK    3  A    between atoms: N_7  and  C_8 
REMARK    4  A    between atoms: C_11  and  C_12 
REMARK       I    between atoms: C_12  and  N_13 
REMARK    5  A    between atoms: N_13  and  C_14 
REMARK    6  A    between atoms: C_14  and  C_15 
REMARK    7  A    between atoms: C_15  and  N_16 
REMARK    8  A    between atoms: C_28  and  C_29 
ROOT
HETATM    1  C   UNL     1       4.823  29.563  56.650  1.00  0.00     0.030 A 
HETATM    2  C   UNL     1       5.257  28.290  57.053  1.00  0.00     0.030 A 
HETATM    3  C   UNL     1       5.382  27.228  56.143  1.00  0.00     0.019 A 
HETATM    4  C   UNL     1       5.076  27.422  54.794  1.00  0.00     0.032 A 
HETATM    5  C   UNL     1       4.646  28.678  54.368  1.00  0.00     0.019 A 
HETATM    6  C   UNL     1       4.516  29.727  55.288  1.00  0.00     0.030 A 
ENDROOT
BRANCH   1   7
HETATM    7  N   UNL     1       4.757  30.662  57.515  1.00  0.00    -0.381 N 
HETATM    8  C   UNL     1       6.007  31.267  57.971  1.00  0.00     0.125 C 
HETATM    9  C   UNL     1       5.737  32.700  58.423  1.00  0.00     0.053 C 
HETATM   10  C   UNL     1       4.613  32.796  59.469  1.00  0.00     0.191 C 
HETATM   11  C   UNL     1       3.363  32.096  58.909  1.00  0.00     0.053 C 
HETATM   12  C   UNL     1       3.641  30.662  58.466  1.00  0.00     0.125 C 
BRANCH  10  13
HETATM   13  N   UNL     1       5.048  32.236  60.837  1.00  0.00    -0.067 N 
HETATM   14  C   UNL     1       3.916  32.137  61.843  1.00  0.00     0.270 C 
HETATM   15  H   UNL     1       5.396  31.279  60.708  1.00  0.00     0.280 HD
BRANCH  13  16
HETATM   16  C   UNL     1       6.200  33.023  61.465  1.00  0.00     0.273 C 
BRANCH  16  17
HETATM   17  C   UNL     1       7.486  32.258  61.454  1.00  0.00    -0.026 A 
HETATM   18  C   UNL     1       7.752  31.152  62.242  1.00  0.00     0.058 A 
HETATM   19  S   UNL     1       9.307  30.498  61.969  1.00  0.00    -0.113 SA
HETATM   20  C   UNL     1       9.673  31.706  60.820  1.00  0.00     0.050 A 
HETATM   21  C   UNL     1       8.626  32.582  60.639  1.00  0.00     0.016 A 
ENDBRANCH  16  17
ENDBRANCH  13  16
ENDBRANCH  10  13
ENDBRANCH   1   7
BRANCH   4  22
HETATM   22  C   UNL     1       5.287  26.355  53.781  1.00  0.00     0.251 C 
HETATM   23  N   UNL     1       5.884  25.189  54.206  1.00  0.00    -0.355 N 
HETATM   24  H   UNL     1       6.132  25.113  55.186  1.00  0.00     0.162 HD
HETATM   25  O   UNL     1       4.923  26.518  52.619  1.00  0.00    -0.268 OA
BRANCH  23  26
HETATM   26  C   UNL     1       6.438  24.172  53.313  1.00  0.00     0.150 C 
BRANCH  26  27
HETATM   27  C   UNL     1       7.893  23.725  53.580  1.00  0.00     0.254 C 
BRANCH  27  28
HETATM   28  N   UNL     1       7.987  22.465  54.404  1.00  0.00    -0.066 N 
HETATM   29  H   UNL     1       7.011  22.109  54.491  1.00  0.00     0.280 HD
HETATM   30  C   UNL     1       8.785  21.338  53.766  1.00  0.00     0.261 C 
HETATM   31  C   UNL     1       8.738  20.100  54.671  1.00  0.00     0.195 C 
HETATM   32  O   UNL     1       9.240  20.404  55.977  1.00  0.00    -0.388 OA
HETATM   33  C   UNL     1       8.452  21.413  56.619  1.00  0.00     0.195 C 
HETATM   34  C   UNL     1       8.477  22.720  55.820  1.00  0.00     0.261 C 
ENDBRANCH  27  28
ENDBRANCH  26  27
ENDBRANCH  23  26
ENDBRANCH   4  22
TORSDOF 8
ENDMDL
MODEL 7
REMARK VINA RESULT:      -7.9      6.678     10.468
REMARK  8 active torsions:
REMARK  status: ('A' for Active; 'I' for Inactive)
REMARK    1  A    between atoms: N_2  and  C_4 
REMARK    2  A    between atoms: N_2  and  C_28 
REMARK    3  A    between atoms: N_7  and  C_8 
REMARK    4  A    between atoms: C_11  and  C_12 
REMARK       I    between atoms: C_12  and  N_13 
REMARK    5  A    between atoms: N_13  and  C_14 
REMARK    6  A    between atoms: C_14  and  C_15 
REMARK    7  A    between atoms: C_15  and  N_16 
REMARK    8  A    between atoms: C_28  and  C_29 
ROOT
HETATM    1  C   UNL     1       5.254  26.454  51.229  1.00  0.00     0.030 A 
HETATM    2  C   UNL     1       5.142  25.145  51.722  1.00  0.00     0.030 A 
HETATM    3  C   UNL     1       5.471  24.823  53.050  1.00  0.00     0.019 A 
HETATM    4  C   UNL     1       5.918  25.819  53.921  1.00  0.00     0.032 A 
HETATM    5  C   UNL     1       6.033  27.128  53.456  1.00  0.00     0.019 A 
HETATM    6  C   UNL     1       5.713  27.434  52.126  1.00  0.00     0.030 A 
ENDROOT
BRANCH   1   7
HETATM    7  N   UNL     1       4.866  26.823  49.935  1.00  0.00    -0.381 N 
HETATM    8  C   UNL     1       4.742  28.245  49.623  1.00  0.00     0.125 C 
HETATM    9  C   UNL     1       4.851  28.441  48.113  1.00  0.00     0.053 C 
HETATM   10  C   UNL     1       3.859  27.569  47.323  1.00  0.00     0.191 C 
HETATM   11  C   UNL     1       4.042  26.105  47.756  1.00  0.00     0.053 C 
HETATM   12  C   UNL     1       3.926  25.918  49.266  1.00  0.00     0.125 C 
BRANCH  10  13
HETATM   13  N   UNL     1       2.407  28.060  47.481  1.00  0.00    -0.067 N 
HETATM   14  C   UNL     1       1.381  27.150  46.831  1.00  0.00     0.270 C 
HETATM   15  H   UNL     1       2.171  28.082  48.480  1.00  0.00     0.280 HD
BRANCH  13  16
HETATM   16  C   UNL     1       2.199  29.486  46.967  1.00  0.00     0.273 C 
BRANCH  16  17
HETATM   17  C   UNL     1       1.319  30.295  47.867  1.00  0.00    -0.026 A 
HETATM   18  C   UNL     1       1.569  30.535  49.206  1.00  0.00     0.058 A 
HETATM   19  S   UNL     1       0.378  31.517  49.941  1.00  0.00    -0.113 SA
HETATM   20  C   UNL     1      -0.519  31.607  48.492  1.00  0.00     0.050 A 
HETATM   21  C   UNL     1       0.084  30.913  47.466  1.00  0.00     0.016 A 
ENDBRANCH  16  17
ENDBRANCH  13  16
ENDBRANCH  10  13
ENDBRANCH   1   7
BRANCH   4  22
HETATM   22  C   UNL     1       6.182  25.543  55.358  1.00  0.00     0.251 C 
HETATM   23  N   UNL     1       7.469  25.727  55.810  1.00  0.00    -0.355 N 
HETATM   24  H   UNL     1       8.163  26.055  55.147  1.00  0.00     0.162 HD
HETATM   25  O   UNL     1       5.272  25.182  56.100  1.00  0.00    -0.268 OA
BRANCH  23  26
HETATM   26  C   UNL     1       7.975  25.226  57.088  1.00  0.00     0.150 C 
BRANCH  26  27
HETATM   27  C   UNL     1       8.853  23.955  57.042  1.00  0.00     0.254 C 
BRANCH  27  28
HETATM   28  N   UNL     1       8.254  22.849  56.208  1.00  0.00    -0.066 N 
HETATM   29  H   UNL     1       7.229  23.034  56.186  1.00  0.00     0.280 HD
HETATM   30  C   UNL     1       8.705  22.822  54.756  1.00  0.00     0.261 C 
HETATM   31  C   UNL     1       7.969  21.702  54.011  1.00  0.00     0.195 C 
HETATM   32  O   UNL     1       8.199  20.436  54.638  1.00  0.00    -0.388 OA
HETATM   33  C   UNL     1       7.712  20.423  55.985  1.00  0.00     0.195 C 
HETATM   34  C   UNL     1       8.428  21.476  56.838  1.00  0.00     0.261 C 
ENDBRANCH  27  28
ENDBRANCH  26  27
ENDBRANCH  23  26
ENDBRANCH   4  22
TORSDOF 8
ENDMDL
MODEL 8
REMARK VINA RESULT:      -7.8      6.886     11.259
REMARK  8 active torsions:
REMARK  status: ('A' for Active; 'I' for Inactive)
REMARK    1  A    between atoms: N_2  and  C_4 
REMARK    2  A    between atoms: N_2  and  C_28 
REMARK    3  A    between atoms: N_7  and  C_8 
REMARK    4  A    between atoms: C_11  and  C_12 
REMARK       I    between atoms: C_12  and  N_13 
REMARK    5  A    between atoms: N_13  and  C_14 
REMARK    6  A    between atoms: C_14  and  C_15 
REMARK    7  A    between atoms: C_15  and  N_16 
REMARK    8  A    between atoms: C_28  and  C_29 
ROOT
HETATM    1  C   UNL     1       5.639  28.166  51.821  1.00  0.00     0.030 A 
HETATM    2  C   UNL     1       5.712  29.446  51.251  1.00  0.00     0.030 A 
HETATM    3  C   UNL     1       5.375  29.679  49.907  1.00  0.00     0.019 A 
HETATM    4  C   UNL     1       4.947  28.623  49.100  1.00  0.00     0.032 A 
HETATM    5  C   UNL     1       4.861  27.342  49.644  1.00  0.00     0.019 A 
HETATM    6  C   UNL     1       5.211  27.121  50.983  1.00  0.00     0.030 A 
ENDROOT
BRANCH   1   7
HETATM    7  N   UNL     1       5.897  27.911  53.173  1.00  0.00    -0.381 N 
HETATM    8  C   UNL     1       7.180  27.314  53.538  1.00  0.00     0.125 C 
HETATM    9  C   UNL     1       7.477  27.614  55.005  1.00  0.00     0.053 C 
HETATM   10  C   UNL     1       6.335  27.191  55.945  1.00  0.00     0.191 C 
HETATM   11  C   UNL     1       5.029  27.836  55.450  1.00  0.00     0.053 C 
HETATM   12  C   UNL     1       4.738  27.525  53.984  1.00  0.00     0.125 C 
BRANCH  10  13
HETATM   13  N   UNL     1       6.231  25.659  56.075  1.00  0.00    -0.067 N 
HETATM   14  C   UNL     1       5.150  25.200  57.034  1.00  0.00     0.270 C 
HETATM   15  H   UNL     1       5.983  25.265  55.160  1.00  0.00     0.280 HD
BRANCH  13  16
HETATM   16  C   UNL     1       7.556  25.003  56.472  1.00  0.00     0.273 C 
BRANCH  16  17
HETATM   17  C   UNL     1       7.854  23.783  55.659  1.00  0.00    -0.026 A 
HETATM   18  C   UNL     1       8.353  22.598  56.171  1.00  0.00     0.058 A 
HETATM   19  S   UNL     1       8.559  21.391  54.978  1.00  0.00    -0.113 SA
HETATM   20  C   UNL     1       8.022  22.442  53.745  1.00  0.00     0.050 A 
HETATM   21  C   UNL     1       7.681  23.683  54.235  1.00  0.00     0.016 A 
ENDBRANCH  16  17
ENDBRANCH  13  16
ENDBRANCH  10  13
ENDBRANCH   1   7
BRANCH   4  22
HETATM   22  C   UNL     1       4.486  28.840  47.703  1.00  0.00     0.251 C 
HETATM   23  N   UNL     1       4.097  30.115  47.357  1.00  0.00    -0.355 N 
HETATM   24  H   UNL     1       4.160  30.838  48.065  1.00  0.00     0.162 HD
HETATM   25  O   UNL     1       4.475  27.912  46.899  1.00  0.00    -0.268 OA
BRANCH  23  26
HETATM   26  C   UNL     1       3.344  30.449  46.149  1.00  0.00     0.150 C 
BRANCH  26  27
HETATM   27  C   UNL     1       1.850  30.803  46.331  1.00  0.00     0.254 C 
BRANCH  27  28
HETATM   28  N   UNL     1       0.920  29.713  45.859  1.00  0.00    -0.066 N 
HETATM   29  H   UNL     1       1.326  29.360  44.966  1.00  0.00     0.280 HD
HETATM   30  C   UNL     1       0.825  28.506  46.779  1.00  0.00     0.261 C 
HETATM   31  C   UNL     1      -0.091  27.450  46.148  1.00  0.00     0.195 C 
HETATM   32  O   UNL     1      -1.389  27.993  45.885  1.00  0.00    -0.388 OA
HETATM   33  C   UNL     1      -1.322  29.086  44.961  1.00  0.00     0.195 C 
HETATM   34  C   UNL     1      -0.470  30.228  45.523  1.00  0.00     0.261 C 
ENDBRANCH  27  28
ENDBRANCH  26  27
ENDBRANCH  23  26
ENDBRANCH   4  22
TORSDOF 8
ENDMDL
MODEL 9
REMARK VINA RESULT:      -7.7      4.226     11.695
REMARK  8 active torsions:
REMARK  status: ('A' for Active; 'I' for Inactive)
REMARK    1  A    between atoms: N_2  and  C_4 
REMARK    2  A    between atoms: N_2  and  C_28 
REMARK    3  A    between atoms: N_7  and  C_8 
REMARK    4  A    between atoms: C_11  and  C_12 
REMARK       I    between atoms: C_12  and  N_13 
REMARK    5  A    between atoms: N_13  and  C_14 
REMARK    6  A    between atoms: C_14  and  C_15 
REMARK    7  A    between atoms: C_15  and  N_16 
REMARK    8  A    between atoms: C_28  and  C_29 
ROOT
HETATM    1  C   UNL     1       7.823  30.883  59.385  1.00  0.00     0.030 A 
HETATM    2  C   UNL     1       9.074  30.410  58.960  1.00  0.00     0.030 A 
HETATM    3  C   UNL     1       9.225  29.689  57.764  1.00  0.00     0.019 A 
HETATM    4  C   UNL     1       8.115  29.429  56.958  1.00  0.00     0.032 A 
HETATM    5  C   UNL     1       6.862  29.892  57.357  1.00  0.00     0.019 A 
HETATM    6  C   UNL     1       6.722  30.601  58.557  1.00  0.00     0.030 A 
ENDROOT
BRANCH   1   7
HETATM    7  N   UNL     1       7.647  31.667  60.532  1.00  0.00    -0.381 N 
HETATM    8  C   UNL     1       8.092  31.132  61.817  1.00  0.00     0.125 C 
HETATM    9  C   UNL     1       8.313  32.284  62.793  1.00  0.00     0.053 C 
HETATM   10  C   UNL     1       7.086  33.202  62.923  1.00  0.00     0.191 C 
HETATM   11  C   UNL     1       6.676  33.674  61.518  1.00  0.00     0.053 C 
HETATM   12  C   UNL     1       6.451  32.514  60.551  1.00  0.00     0.125 C 
BRANCH  10  13
HETATM   13  N   UNL     1       5.932  32.520  63.683  1.00  0.00    -0.067 N 
HETATM   14  C   UNL     1       5.128  31.554  62.832  1.00  0.00     0.270 C 
HETATM   15  H   UNL     1       6.324  31.962  64.450  1.00  0.00     0.280 HD
BRANCH  13  16
HETATM   16  C   UNL     1       4.974  33.519  64.335  1.00  0.00     0.273 C 
BRANCH  16  17
HETATM   17  C   UNL     1       5.363  33.846  65.743  1.00  0.00    -0.026 A 
HETATM   18  C   UNL     1       4.470  34.116  66.765  1.00  0.00     0.058 A 
HETATM   19  S   UNL     1       5.240  34.429  68.258  1.00  0.00    -0.113 SA
HETATM   20  C   UNL     1       6.787  34.250  67.559  1.00  0.00     0.050 A 
HETATM   21  C   UNL     1       6.717  33.946  66.217  1.00  0.00     0.016 A 
ENDBRANCH  16  17
ENDBRANCH  13  16
ENDBRANCH  10  13
ENDBRANCH   1   7
BRANCH   4  22
HETATM   22  C   UNL     1       8.244  28.756  55.638  1.00  0.00     0.251 C 
HETATM   23  N   UNL     1       7.331  27.770  55.339  1.00  0.00    -0.355 N 
HETATM   24  H   UNL     1       6.612  27.566  56.025  1.00  0.00     0.162 HD
HETATM   25  O   UNL     1       9.126  29.091  54.852  1.00  0.00    -0.268 OA
BRANCH  23  26
HETATM   26  C   UNL     1       7.480  26.810  54.246  1.00  0.00     0.150 C 
BRANCH  26  27
HETATM   27  C   UNL     1       6.397  25.713  54.127  1.00  0.00     0.254 C 
BRANCH  27  28
HETATM   28  N   UNL     1       6.958  24.314  54.192  1.00  0.00    -0.066 N 
HETATM   29  H   UNL     1       6.179  23.711  54.531  1.00  0.00     0.280 HD
HETATM   30  C   UNL     1       7.386  23.731  52.855  1.00  0.00     0.261 C 
HETATM   31  C   UNL     1       7.866  22.288  53.054  1.00  0.00     0.195 C 
HETATM   32  O   UNL     1       8.939  22.234  53.999  1.00  0.00    -0.388 OA
HETATM   33  C   UNL     1       8.529  22.713  55.285  1.00  0.00     0.195 C 
HETATM   34  C   UNL     1       8.080  24.176  55.209  1.00  0.00     0.261 C 
ENDBRANCH  27  28
ENDBRANCH  26  27
ENDBRANCH  23  26
ENDBRANCH   4  22
TORSDOF 8
ENDMDL
MODEL 10
REMARK VINA RESULT:      -7.7      7.511     12.039
REMARK  8 active torsions:
REMARK  status: ('A' for Active; 'I' for Inactive)
REMARK    1  A    between atoms: N_2  and  C_4 
REMARK    2  A    between atoms: N_2  and  C_28 
REMARK    3  A    between atoms: N_7  and  C_8 
REMARK    4  A    between atoms: C_11  and  C_12 
REMARK       I    between atoms: C_12  and  N_13 
REMARK    5  A    between atoms: N_13  and  C_14 
REMARK    6  A    between atoms: C_14  and  C_15 
REMARK    7  A    between atoms: C_15  and  N_16 
REMARK    8  A    between atoms: C_28  and  C_29 
ROOT
HETATM    1  C   UNL     1       4.913  27.004  51.126  1.00  0.00     0.030 A 
HETATM    2  C   UNL     1       4.200  28.127  50.680  1.00  0.00     0.030 A 
HETATM    3  C   UNL     1       3.493  28.121  49.466  1.00  0.00     0.019 A 
HETATM    4  C   UNL     1       3.482  26.975  48.668  1.00  0.00     0.032 A 
HETATM    5  C   UNL     1       4.179  25.845  49.091  1.00  0.00     0.019 A 
HETATM    6  C   UNL     1       4.890  25.867  50.299  1.00  0.00     0.030 A 
ENDROOT
BRANCH   1   7
HETATM    7  N   UNL     1       5.568  26.950  52.362  1.00  0.00    -0.381 N 
HETATM    8  C   UNL     1       6.847  26.249  52.445  1.00  0.00     0.125 C 
HETATM    9  C   UNL     1       7.619  26.750  53.663  1.00  0.00     0.053 C 
HETATM   10  C   UNL     1       6.806  26.661  54.965  1.00  0.00     0.191 C 
HETATM   11  C   UNL     1       5.468  27.390  54.758  1.00  0.00     0.053 C 
HETATM   12  C   UNL     1       4.700  26.877  53.542  1.00  0.00     0.125 C 
BRANCH  10  13
HETATM   13  N   UNL     1       6.625  25.205  55.434  1.00  0.00    -0.067 N 
HETATM   14  C   UNL     1       5.803  25.069  56.702  1.00  0.00     0.270 C 
HETATM   15  H   UNL     1       6.115  24.685  54.711  1.00  0.00     0.280 HD
BRANCH  13  16
HETATM   16  C   UNL     1       7.953  24.470  55.626  1.00  0.00     0.273 C 
BRANCH  16  17
HETATM   17  C   UNL     1       7.982  23.150  54.921  1.00  0.00    -0.026 A 
HETATM   18  C   UNL     1       7.958  21.919  55.551  1.00  0.00     0.058 A 
HETATM   19  S   UNL     1       7.979  20.608  54.455  1.00  0.00    -0.113 SA
HETATM   20  C   UNL     1       8.060  21.660  53.114  1.00  0.00     0.050 A 
HETATM   21  C   UNL     1       8.060  22.984  53.494  1.00  0.00     0.016 A 
ENDBRANCH  16  17
ENDBRANCH  13  16
ENDBRANCH  10  13
ENDBRANCH   1   7
BRANCH   4  22
HETATM   22  C   UNL     1       2.667  26.892  47.427  1.00  0.00     0.251 C 
HETATM   23  N   UNL     1       1.528  27.663  47.366  1.00  0.00    -0.355 N 
HETATM   24  H   UNL     1       1.313  28.256  48.160  1.00  0.00     0.162 HD
HETATM   25  O   UNL     1       3.021  26.172  46.497  1.00  0.00    -0.268 OA
BRANCH  23  26
HETATM   26  C   UNL     1       0.465  27.488  46.377  1.00  0.00     0.150 C 
BRANCH  26  27
HETATM   27  C   UNL     1      -0.511  28.671  46.184  1.00  0.00     0.254 C 
BRANCH  27  28
HETATM   28  N   UNL     1      -0.059  29.648  45.127  1.00  0.00    -0.066 N 
HETATM   29  H   UNL     1       0.651  29.141  44.556  1.00  0.00     0.280 HD
HETATM   30  C   UNL     1      -1.141  30.087  44.153  1.00  0.00     0.261 C 
HETATM   31  C   UNL     1      -0.532  31.017  43.095  1.00  0.00     0.195 C 
HETATM   32  O   UNL     1       0.090  32.150  43.710  1.00  0.00    -0.388 OA
HETATM   33  C   UNL     1       1.161  31.754  44.575  1.00  0.00     0.195 C 
HETATM   34  C   UNL     1       0.648  30.861  45.710  1.00  0.00     0.261 C 
ENDBRANCH  27  28
ENDBRANCH  26  27
ENDBRANCH  23  26
ENDBRANCH   4  22
TORSDOF 8
ENDMDL
