MODEL 1
REMARK VINA RESULT:      -8.9      0.000      0.000
REMARK  3 active torsions:
REMARK  status: ('A' for Active; 'I' for Inactive)
REMARK    1  A    between atoms: C_7  and  N_8 
REMARK    2  A    between atoms: N_8  and  C_9 
REMARK    3  A    between atoms: C_9  and  C_10 
ROOT
HETATM    1  C   UNL     1       8.069  32.389  61.582  1.00  0.00    -0.041 A 
HETATM    2  C   UNL     1       6.771  32.247  61.073  1.00  0.00     0.035 A 
HETATM    3  C   UNL     1       5.664  32.316  61.925  1.00  0.00     0.070 A 
HETATM    4 CL   UNL     1       4.091  32.113  61.239  1.00  0.00    -0.081 Cl
HETATM    5  C   UNL     1       5.836  32.562  63.291  1.00  0.00     0.123 A 
HETATM    6  C   UNL     1       7.129  32.719  63.800  1.00  0.00     0.104 A 
HETATM    7  O   UNL     1       7.388  32.879  65.135  1.00  0.00    -0.348 OA
HETATM    8  C   UNL     1       6.844  34.097  65.645  1.00  0.00     0.178 C 
HETATM    9  C   UNL     1       5.369  33.962  65.994  1.00  0.00     0.053 C 
HETATM   10  C   UNL     1       4.518  33.804  64.743  1.00  0.00     0.178 C 
HETATM   11  O   UNL     1       4.739  32.542  64.114  1.00  0.00    -0.346 OA
HETATM   12  C   UNL     1       8.237  32.621  62.956  1.00  0.00     0.048 A 
ENDROOT
BRANCH   1  13
HETATM   13  C   UNL     1       9.269  32.326  60.667  1.00  0.00     0.132 C 
BRANCH  13  14
HETATM   14  N   UNL     1       8.802  32.296  59.293  1.00  0.00    -0.272 NA
HETATM   15  H   UNL     1       7.798  32.369  59.186  1.00  0.00     0.129 HD
BRANCH  14  16
HETATM   16  C   UNL     1       9.352  31.298  58.489  1.00  0.00     0.117 A 
HETATM   17  C   UNL     1       8.590  30.193  58.053  1.00  0.00     0.040 A 
HETATM   18  C   UNL     1       7.217  29.809  58.251  1.00  0.00     0.025 A 
HETATM   19  C   UNL     1       9.249  29.262  57.266  1.00  0.00     0.112 A 
HETATM   20  C   UNL     1       6.903  28.622  57.627  1.00  0.00     0.053 A 
HETATM   21  S   UNL     1       8.247  27.963  56.801  1.00  0.00    -0.081 SA
HETATM   22  N   UNL     1      10.533  29.313  56.875  1.00  0.00    -0.234 NA
HETATM   23  C   UNL     1      11.154  30.404  57.326  1.00  0.00     0.236 A 
HETATM   24  N   UNL     1      10.644  31.379  58.097  1.00  0.00    -0.229 NA
ENDBRANCH  14  16
ENDBRANCH  13  14
ENDBRANCH   1  13
TORSDOF 3
ENDMDL
MODEL 2
REMARK VINA RESULT:      -8.6      6.706     10.310
REMARK  3 active torsions:
REMARK  status: ('A' for Active; 'I' for Inactive)
REMARK    1  A    between atoms: C_7  and  N_8 
REMARK    2  A    between atoms: N_8  and  C_9 
REMARK    3  A    between atoms: C_9  and  C_10 
ROOT
HETATM    1  C   UNL     1       7.546  25.287  56.017  1.00  0.00    -0.041 A 
HETATM    2  C   UNL     1       7.529  25.381  54.618  1.00  0.00     0.035 A 
HETATM    3  C   UNL     1       7.938  24.300  53.831  1.00  0.00     0.070 A 
HETATM    4 CL   UNL     1       7.914  24.484  52.113  1.00  0.00    -0.081 Cl
HETATM    5  C   UNL     1       8.335  23.099  54.428  1.00  0.00     0.123 A 
HETATM    6  C   UNL     1       8.339  22.998  55.823  1.00  0.00     0.104 A 
HETATM    7  O   UNL     1       8.791  21.889  56.487  1.00  0.00    -0.348 OA
HETATM    8  C   UNL     1       7.985  20.739  56.224  1.00  0.00     0.178 C 
HETATM    9  C   UNL     1       8.369  20.058  54.918  1.00  0.00     0.053 C 
HETATM   10  C   UNL     1       7.995  20.915  53.719  1.00  0.00     0.178 C 
HETATM   11  O   UNL     1       8.808  22.085  53.635  1.00  0.00    -0.346 OA
HETATM   12  C   UNL     1       7.960  24.086  56.612  1.00  0.00     0.048 A 
ENDROOT
BRANCH   1  13
HETATM   13  C   UNL     1       7.097  26.448  56.874  1.00  0.00     0.132 C 
BRANCH  13  14
HETATM   14  N   UNL     1       7.364  27.683  56.158  1.00  0.00    -0.272 NA
HETATM   15  H   UNL     1       8.106  27.621  55.472  1.00  0.00     0.129 HD
BRANCH  14  16
HETATM   16  C   UNL     1       7.461  28.829  56.946  1.00  0.00     0.117 A 
HETATM   17  C   UNL     1       8.704  29.442  57.213  1.00  0.00     0.040 A 
HETATM   18  C   UNL     1      10.053  29.142  56.811  1.00  0.00     0.025 A 
HETATM   19  C   UNL     1       8.673  30.572  58.016  1.00  0.00     0.112 A 
HETATM   20  C   UNL     1      10.970  30.032  57.324  1.00  0.00     0.053 A 
HETATM   21  S   UNL     1      10.222  31.231  58.287  1.00  0.00    -0.081 SA
HETATM   22  N   UNL     1       7.582  31.139  58.555  1.00  0.00    -0.234 NA
HETATM   23  C   UNL     1       6.463  30.491  58.225  1.00  0.00     0.236 A 
HETATM   24  N   UNL     1       6.346  29.390  57.467  1.00  0.00    -0.229 NA
ENDBRANCH  14  16
ENDBRANCH  13  14
ENDBRANCH   1  13
TORSDOF 3
ENDMDL
MODEL 3
REMARK VINA RESULT:      -8.4      4.611      6.690
REMARK  3 active torsions:
REMARK  status: ('A' for Active; 'I' for Inactive)
REMARK    1  A    between atoms: C_7  and  N_8 
REMARK    2  A    between atoms: N_8  and  C_9 
REMARK    3  A    between atoms: C_9  and  C_10 
ROOT
HETATM    1  C   UNL     1       7.546  28.531  57.266  1.00  0.00    -0.041 A 
HETATM    2  C   UNL     1       8.928  28.652  57.063  1.00  0.00     0.035 A 
HETATM    3  C   UNL     1       9.619  29.771  57.540  1.00  0.00     0.070 A 
HETATM    4 CL   UNL     1      11.317  29.871  57.241  1.00  0.00    -0.081 Cl
HETATM    5  C   UNL     1       8.946  30.766  58.256  1.00  0.00     0.123 A 
HETATM    6  C   UNL     1       7.571  30.642  58.472  1.00  0.00     0.104 A 
HETATM    7  O   UNL     1       6.824  31.610  59.089  1.00  0.00    -0.348 OA
HETATM    8  C   UNL     1       7.206  31.795  60.453  1.00  0.00     0.178 C 
HETATM    9  C   UNL     1       8.417  32.706  60.589  1.00  0.00     0.053 C 
HETATM   10  C   UNL     1       9.674  32.034  60.058  1.00  0.00     0.178 C 
HETATM   11  O   UNL     1       9.633  31.890  58.639  1.00  0.00    -0.346 OA
HETATM   12  C   UNL     1       6.873  29.540  57.971  1.00  0.00     0.048 A 
ENDROOT
BRANCH   1  13
HETATM   13  C   UNL     1       6.794  27.321  56.762  1.00  0.00     0.132 C 
BRANCH  13  14
HETATM   14  N   UNL     1       7.556  26.719  55.683  1.00  0.00    -0.272 NA
HETATM   15  H   UNL     1       7.214  26.930  54.754  1.00  0.00     0.129 HD
BRANCH  14  16
HETATM   16  C   UNL     1       7.866  25.368  55.843  1.00  0.00     0.117 A 
HETATM   17  C   UNL     1       7.892  24.480  54.747  1.00  0.00     0.040 A 
HETATM   18  C   UNL     1       7.662  24.653  53.337  1.00  0.00     0.025 A 
HETATM   19  C   UNL     1       8.204  23.159  55.032  1.00  0.00     0.112 A 
HETATM   20  C   UNL     1       7.797  23.479  52.629  1.00  0.00     0.053 A 
HETATM   21  S   UNL     1       8.200  22.166  53.646  1.00  0.00    -0.081 SA
HETATM   22  N   UNL     1       8.489  22.650  56.241  1.00  0.00    -0.234 NA
HETATM   23  C   UNL     1       8.453  23.577  57.200  1.00  0.00     0.236 A 
HETATM   24  N   UNL     1       8.162  24.882  57.069  1.00  0.00    -0.229 NA
ENDBRANCH  14  16
ENDBRANCH  13  14
ENDBRANCH   1  13
TORSDOF 3
ENDMDL
MODEL 4
REMARK VINA RESULT:      -8.4      6.795     10.359
REMARK  3 active torsions:
REMARK  status: ('A' for Active; 'I' for Inactive)
REMARK    1  A    between atoms: C_7  and  N_8 
REMARK    2  A    between atoms: N_8  and  C_9 
REMARK    3  A    between atoms: C_9  and  C_10 
ROOT
HETATM    1  C   UNL     1       7.799  24.942  56.516  1.00  0.00    -0.041 A 
HETATM    2  C   UNL     1       7.667  25.297  55.166  1.00  0.00     0.035 A 
HETATM    3  C   UNL     1       7.993  24.384  54.158  1.00  0.00     0.070 A 
HETATM    4 CL   UNL     1       7.828  24.888  52.514  1.00  0.00    -0.081 Cl
HETATM    5  C   UNL     1       8.422  23.093  54.484  1.00  0.00     0.123 A 
HETATM    6  C   UNL     1       8.541  22.731  55.829  1.00  0.00     0.104 A 
HETATM    7  O   UNL     1       9.033  21.518  56.233  1.00  0.00    -0.348 OA
HETATM    8  C   UNL     1       8.192  20.436  55.828  1.00  0.00     0.178 C 
HETATM    9  C   UNL     1       8.456  20.015  54.390  1.00  0.00     0.053 C 
HETATM   10  C   UNL     1       7.994  21.081  53.409  1.00  0.00     0.178 C 
HETATM   11  O   UNL     1       8.813  22.248  53.477  1.00  0.00    -0.346 OA
HETATM   12  C   UNL     1       8.245  23.651  56.838  1.00  0.00     0.048 A 
ENDROOT
BRANCH   1  13
HETATM   13  C   UNL     1       7.439  25.920  57.611  1.00  0.00     0.132 C 
BRANCH  13  14
HETATM   14  N   UNL     1       8.270  27.102  57.467  1.00  0.00    -0.272 NA
HETATM   15  H   UNL     1       9.187  27.028  57.890  1.00  0.00     0.129 HD
BRANCH  14  16
HETATM   16  C   UNL     1       7.647  28.316  57.753  1.00  0.00     0.117 A 
HETATM   17  C   UNL     1       6.385  28.646  57.214  1.00  0.00     0.040 A 
HETATM   18  C   UNL     1       5.472  27.945  56.350  1.00  0.00     0.025 A 
HETATM   19  C   UNL     1       5.872  29.886  57.563  1.00  0.00     0.112 A 
HETATM   20  C   UNL     1       4.334  28.671  56.079  1.00  0.00     0.053 A 
HETATM   21  S   UNL     1       4.351  30.194  56.856  1.00  0.00    -0.081 SA
HETATM   22  N   UNL     1       6.452  30.794  58.364  1.00  0.00    -0.234 NA
HETATM   23  C   UNL     1       7.630  30.373  58.831  1.00  0.00     0.236 A 
HETATM   24  N   UNL     1       8.247  29.209  58.573  1.00  0.00    -0.229 NA
ENDBRANCH  14  16
ENDBRANCH  13  14
ENDBRANCH   1  13
TORSDOF 3
ENDMDL
MODEL 5
REMARK VINA RESULT:      -8.1      7.684     10.878
REMARK  3 active torsions:
REMARK  status: ('A' for Active; 'I' for Inactive)
REMARK    1  A    between atoms: C_7  and  N_8 
REMARK    2  A    between atoms: N_8  and  C_9 
REMARK    3  A    between atoms: C_9  and  C_10 
ROOT
HETATM    1  C   UNL     1       6.810  25.145  55.917  1.00  0.00    -0.041 A 
HETATM    2  C   UNL     1       6.996  25.426  54.556  1.00  0.00     0.035 A 
HETATM    3  C   UNL     1       7.652  24.510  53.727  1.00  0.00     0.070 A 
HETATM    4 CL   UNL     1       7.869  24.922  52.063  1.00  0.00    -0.081 Cl
HETATM    5  C   UNL     1       8.098  23.286  54.237  1.00  0.00     0.123 A 
HETATM    6  C   UNL     1       7.900  22.997  55.591  1.00  0.00     0.104 A 
HETATM    7  O   UNL     1       8.379  21.861  56.187  1.00  0.00    -0.348 OA
HETATM    8  C   UNL     1       7.772  20.680  55.659  1.00  0.00     0.178 C 
HETATM    9  C   UNL     1       8.433  20.227  54.365  1.00  0.00     0.053 C 
HETATM   10  C   UNL     1       8.144  21.196  53.229  1.00  0.00     0.178 C 
HETATM   11  O   UNL     1       8.809  22.444  53.421  1.00  0.00    -0.346 OA
HETATM   12  C   UNL     1       7.273  23.923  56.427  1.00  0.00     0.048 A 
ENDROOT
BRANCH   1  13
HETATM   13  C   UNL     1       6.094  26.126  56.817  1.00  0.00     0.132 C 
BRANCH  13  14
HETATM   14  N   UNL     1       4.887  26.573  56.146  1.00  0.00    -0.272 NA
HETATM   15  H   UNL     1       4.672  26.079  55.289  1.00  0.00     0.129 HD
BRANCH  14  16
HETATM   16  C   UNL     1       4.743  27.954  56.017  1.00  0.00     0.117 A 
HETATM   17  C   UNL     1       4.272  28.541  54.823  1.00  0.00     0.040 A 
HETATM   18  C   UNL     1       3.842  27.994  53.563  1.00  0.00     0.025 A 
HETATM   19  C   UNL     1       4.181  29.924  54.811  1.00  0.00     0.112 A 
HETATM   20  C   UNL     1       3.460  28.966  52.665  1.00  0.00     0.053 A 
HETATM   21  S   UNL     1       3.613  30.536  53.324  1.00  0.00    -0.081 SA
HETATM   22  N   UNL     1       4.488  30.753  55.821  1.00  0.00    -0.234 NA
HETATM   23  C   UNL     1       4.905  30.094  56.904  1.00  0.00     0.236 A 
HETATM   24  N   UNL     1       5.047  28.767  57.054  1.00  0.00    -0.229 NA
ENDBRANCH  14  16
ENDBRANCH  13  14
ENDBRANCH   1  13
TORSDOF 3
ENDMDL
MODEL 6
REMARK VINA RESULT:      -8.0      9.105     11.595
REMARK  3 active torsions:
REMARK  status: ('A' for Active; 'I' for Inactive)
REMARK    1  A    between atoms: C_7  and  N_8 
REMARK    2  A    between atoms: N_8  and  C_9 
REMARK    3  A    between atoms: C_9  and  C_10 
ROOT
HETATM    1  C   UNL     1       6.156  24.923  52.859  1.00  0.00    -0.041 A 
HETATM    2  C   UNL     1       6.788  23.680  52.714  1.00  0.00     0.035 A 
HETATM    3  C   UNL     1       7.752  23.263  53.637  1.00  0.00     0.070 A 
HETATM    4 CL   UNL     1       8.510  21.731  53.392  1.00  0.00    -0.081 Cl
HETATM    5  C   UNL     1       8.072  24.066  54.738  1.00  0.00     0.123 A 
HETATM    6  C   UNL     1       7.433  25.299  54.893  1.00  0.00     0.104 A 
HETATM    7  O   UNL     1       7.748  26.180  55.894  1.00  0.00    -0.348 OA
HETATM    8  C   UNL     1       7.445  25.654  57.187  1.00  0.00     0.178 C 
HETATM    9  C   UNL     1       8.546  24.741  57.705  1.00  0.00     0.053 C 
HETATM   10  C   UNL     1       8.609  23.446  56.909  1.00  0.00     0.178 C 
HETATM   11  O   UNL     1       9.079  23.670  55.580  1.00  0.00    -0.346 OA
HETATM   12  C   UNL     1       6.492  25.731  53.956  1.00  0.00     0.048 A 
ENDROOT
BRANCH   1  13
HETATM   13  C   UNL     1       5.106  25.376  51.871  1.00  0.00     0.132 C 
BRANCH  13  14
HETATM   14  N   UNL     1       5.772  26.010  50.747  1.00  0.00    -0.272 NA
HETATM   15  H   UNL     1       6.755  26.204  50.893  1.00  0.00     0.129 HD
BRANCH  14  16
HETATM   16  C   UNL     1       5.095  27.087  50.173  1.00  0.00     0.117 A 
HETATM   17  C   UNL     1       4.168  26.905  49.125  1.00  0.00     0.040 A 
HETATM   18  C   UNL     1       3.686  25.739  48.432  1.00  0.00     0.025 A 
HETATM   19  C   UNL     1       3.566  28.051  48.630  1.00  0.00     0.112 A 
HETATM   20  C   UNL     1       2.765  26.046  47.455  1.00  0.00     0.053 A 
HETATM   21  S   UNL     1       2.472  27.727  47.363  1.00  0.00    -0.081 SA
HETATM   22  N   UNL     1       3.772  29.308  49.054  1.00  0.00    -0.234 NA
HETATM   23  C   UNL     1       4.651  29.363  50.056  1.00  0.00     0.236 A 
HETATM   24  N   UNL     1       5.311  28.342  50.627  1.00  0.00    -0.229 NA
ENDBRANCH  14  16
ENDBRANCH  13  14
ENDBRANCH   1  13
TORSDOF 3
ENDMDL
MODEL 7
REMARK VINA RESULT:      -7.9      4.354      7.919
REMARK  3 active torsions:
REMARK  status: ('A' for Active; 'I' for Inactive)
REMARK    1  A    between atoms: C_7  and  N_8 
REMARK    2  A    between atoms: N_8  and  C_9 
REMARK    3  A    between atoms: C_9  and  C_10 
ROOT
HETATM    1  C   UNL     1       8.208  31.497  59.339  1.00  0.00    -0.041 A 
HETATM    2  C   UNL     1       9.498  31.245  58.852  1.00  0.00     0.035 A 
HETATM    3  C   UNL     1       9.712  30.246  57.897  1.00  0.00     0.070 A 
HETATM    4 CL   UNL     1      11.327  29.970  57.351  1.00  0.00    -0.081 Cl
HETATM    5  C   UNL     1       8.637  29.508  57.391  1.00  0.00     0.123 A 
HETATM    6  C   UNL     1       7.347  29.767  57.864  1.00  0.00     0.104 A 
HETATM    7  O   UNL     1       6.254  29.035  57.483  1.00  0.00    -0.348 OA
HETATM    8  C   UNL     1       5.968  29.182  56.091  1.00  0.00     0.178 C 
HETATM    9  C   UNL     1       6.826  28.264  55.232  1.00  0.00     0.053 C 
HETATM   10  C   UNL     1       8.283  28.701  55.244  1.00  0.00     0.178 C 
HETATM   11  O   UNL     1       8.887  28.480  56.518  1.00  0.00    -0.346 OA
HETATM   12  C   UNL     1       7.135  30.744  58.840  1.00  0.00     0.048 A 
ENDROOT
BRANCH   1  13
HETATM   13  C   UNL     1       7.967  32.581  60.364  1.00  0.00     0.132 C 
BRANCH  13  14
HETATM   14  N   UNL     1       7.667  31.956  61.639  1.00  0.00    -0.272 NA
HETATM   15  H   UNL     1       7.795  30.951  61.657  1.00  0.00     0.129 HD
BRANCH  14  16
HETATM   16  C   UNL     1       6.473  32.352  62.240  1.00  0.00     0.117 A 
HETATM   17  C   UNL     1       6.444  32.898  63.541  1.00  0.00     0.040 A 
HETATM   18  C   UNL     1       7.472  33.191  64.505  1.00  0.00     0.025 A 
HETATM   19  C   UNL     1       5.197  33.247  64.036  1.00  0.00     0.112 A 
HETATM   20  C   UNL     1       6.969  33.729  65.670  1.00  0.00     0.053 A 
HETATM   21  S   UNL     1       5.268  33.887  65.614  1.00  0.00    -0.081 SA
HETATM   22  N   UNL     1       4.022  33.122  63.398  1.00  0.00    -0.234 NA
HETATM   23  C   UNL     1       4.166  32.613  62.173  1.00  0.00     0.236 A 
HETATM   24  N   UNL     1       5.304  32.228  61.572  1.00  0.00    -0.229 NA
ENDBRANCH  14  16
ENDBRANCH  13  14
ENDBRANCH   1  13
TORSDOF 3
ENDMDL
MODEL 8
REMARK VINA RESULT:      -7.9      5.726      9.321
REMARK  3 active torsions:
REMARK  status: ('A' for Active; 'I' for Inactive)
REMARK    1  A    between atoms: C_7  and  N_8 
REMARK    2  A    between atoms: N_8  and  C_9 
REMARK    3  A    between atoms: C_9  and  C_10 
ROOT
HETATM    1  C   UNL     1       6.021  26.795  56.636  1.00  0.00    -0.041 A 
HETATM    2  C   UNL     1       7.085  26.213  57.340  1.00  0.00     0.035 A 
HETATM    3  C   UNL     1       7.673  25.029  56.884  1.00  0.00     0.070 A 
HETATM    4 CL   UNL     1       8.966  24.351  57.806  1.00  0.00    -0.081 Cl
HETATM    5  C   UNL     1       7.230  24.428  55.701  1.00  0.00     0.123 A 
HETATM    6  C   UNL     1       6.179  25.014  54.989  1.00  0.00     0.104 A 
HETATM    7  O   UNL     1       5.632  24.446  53.869  1.00  0.00    -0.348 OA
HETATM    8  C   UNL     1       6.566  24.379  52.790  1.00  0.00     0.178 C 
HETATM    9  C   UNL     1       7.481  23.168  52.902  1.00  0.00     0.053 C 
HETATM   10  C   UNL     1       8.446  23.312  54.069  1.00  0.00     0.178 C 
HETATM   11  O   UNL     1       7.769  23.226  55.323  1.00  0.00    -0.346 OA
HETATM   12  C   UNL     1       5.570  26.180  55.458  1.00  0.00     0.048 A 
ENDROOT
BRANCH   1  13
HETATM   13  C   UNL     1       5.387  28.079  57.117  1.00  0.00     0.132 C 
BRANCH  13  14
HETATM   14  N   UNL     1       6.028  29.193  56.442  1.00  0.00    -0.272 NA
HETATM   15  H   UNL     1       6.464  28.958  55.559  1.00  0.00     0.129 HD
BRANCH  14  16
HETATM   16  C   UNL     1       6.843  29.995  57.241  1.00  0.00     0.117 A 
HETATM   17  C   UNL     1       8.249  29.975  57.122  1.00  0.00     0.040 A 
HETATM   18  C   UNL     1       9.151  29.250  56.266  1.00  0.00     0.025 A 
HETATM   19  C   UNL     1       8.951  30.810  57.977  1.00  0.00     0.112 A 
HETATM   20  C   UNL     1      10.472  29.552  56.510  1.00  0.00     0.053 A 
HETATM   21  S   UNL     1      10.640  30.705  57.762  1.00  0.00    -0.081 SA
HETATM   22  N   UNL     1       8.427  31.636  58.896  1.00  0.00    -0.234 NA
HETATM   23  C   UNL     1       7.093  31.589  58.911  1.00  0.00     0.236 A 
HETATM   24  N   UNL     1       6.289  30.829  58.150  1.00  0.00    -0.229 NA
ENDBRANCH  14  16
ENDBRANCH  13  14
ENDBRANCH   1  13
TORSDOF 3
ENDMDL
MODEL 9
REMARK VINA RESULT:      -7.8     10.235     12.022
REMARK  3 active torsions:
REMARK  status: ('A' for Active; 'I' for Inactive)
REMARK    1  A    between atoms: C_7  and  N_8 
REMARK    2  A    between atoms: N_8  and  C_9 
REMARK    3  A    between atoms: C_9  and  C_10 
ROOT
HETATM    1  C   UNL     1       5.105  26.355  53.038  1.00  0.00    -0.041 A 
HETATM    2  C   UNL     1       4.506  27.590  53.320  1.00  0.00     0.035 A 
HETATM    3  C   UNL     1       4.073  28.422  52.282  1.00  0.00     0.070 A 
HETATM    4 CL   UNL     1       3.360  29.941  52.694  1.00  0.00    -0.081 Cl
HETATM    5  C   UNL     1       4.201  28.016  50.950  1.00  0.00     0.123 A 
HETATM    6  C   UNL     1       4.785  26.777  50.665  1.00  0.00     0.104 A 
HETATM    7  O   UNL     1       5.023  26.343  49.389  1.00  0.00    -0.348 OA
HETATM    8  C   UNL     1       3.813  26.145  48.654  1.00  0.00     0.178 C 
HETATM    9  C   UNL     1       3.284  27.445  48.065  1.00  0.00     0.053 C 
HETATM   10  C   UNL     1       2.775  28.377  49.154  1.00  0.00     0.178 C 
HETATM   11  O   UNL     1       3.844  28.885  49.952  1.00  0.00    -0.346 OA
HETATM   12  C   UNL     1       5.245  25.959  51.699  1.00  0.00     0.048 A 
ENDROOT
BRANCH   1  13
HETATM   13  C   UNL     1       5.566  25.447  54.154  1.00  0.00     0.132 C 
BRANCH  13  14
HETATM   14  N   UNL     1       6.562  24.532  53.626  1.00  0.00    -0.272 NA
HETATM   15  H   UNL     1       6.266  24.012  52.809  1.00  0.00     0.129 HD
BRANCH  14  16
HETATM   16  C   UNL     1       7.204  23.728  54.567  1.00  0.00     0.117 A 
HETATM   17  C   UNL     1       7.693  22.446  54.236  1.00  0.00     0.040 A 
HETATM   18  C   UNL     1       7.703  21.684  53.015  1.00  0.00     0.025 A 
HETATM   19  C   UNL     1       8.305  21.738  55.259  1.00  0.00     0.112 A 
HETATM   20  C   UNL     1       8.300  20.452  53.163  1.00  0.00     0.053 A 
HETATM   21  S   UNL     1       8.852  20.201  54.761  1.00  0.00    -0.081 SA
HETATM   22  N   UNL     1       8.481  22.153  56.523  1.00  0.00    -0.234 NA
HETATM   23  C   UNL     1       7.998  23.381  56.722  1.00  0.00     0.236 A 
HETATM   24  N   UNL     1       7.381  24.174  55.831  1.00  0.00    -0.229 NA
ENDBRANCH  14  16
ENDBRANCH  13  14
ENDBRANCH   1  13
TORSDOF 3
ENDMDL
MODEL 10
REMARK VINA RESULT:      -7.8      4.265      7.735
REMARK  3 active torsions:
REMARK  status: ('A' for Active; 'I' for Inactive)
REMARK    1  A    between atoms: C_7  and  N_8 
REMARK    2  A    between atoms: N_8  and  C_9 
REMARK    3  A    between atoms: C_9  and  C_10 
ROOT
HETATM    1  C   UNL     1       7.536  31.197  59.671  1.00  0.00    -0.041 A 
HETATM    2  C   UNL     1       6.545  31.727  58.833  1.00  0.00     0.035 A 
HETATM    3  C   UNL     1       6.276  31.138  57.593  1.00  0.00     0.070 A 
HETATM    4 CL   UNL     1       5.057  31.849  56.597  1.00  0.00    -0.081 Cl
HETATM    5  C   UNL     1       6.968  29.991  57.189  1.00  0.00     0.123 A 
HETATM    6  C   UNL     1       7.947  29.451  58.030  1.00  0.00     0.104 A 
HETATM    7  O   UNL     1       8.726  28.383  57.674  1.00  0.00    -0.348 OA
HETATM    8  C   UNL     1       7.957  27.191  57.503  1.00  0.00     0.178 C 
HETATM    9  C   UNL     1       7.311  27.121  56.127  1.00  0.00     0.053 C 
HETATM   10  C   UNL     1       6.211  28.160  55.981  1.00  0.00     0.178 C 
HETATM   11  O   UNL     1       6.742  29.484  55.936  1.00  0.00    -0.346 OA
HETATM   12  C   UNL     1       8.238  30.056  59.255  1.00  0.00     0.048 A 
ENDROOT
BRANCH   1  13
HETATM   13  C   UNL     1       7.825  31.822  61.016  1.00  0.00     0.132 C 
BRANCH  13  14
HETATM   14  N   UNL     1       6.990  31.179  62.015  1.00  0.00    -0.272 NA
HETATM   15  H   UNL     1       6.668  30.253  61.763  1.00  0.00     0.129 HD
BRANCH  14  16
HETATM   16  C   UNL     1       5.976  31.970  62.553  1.00  0.00     0.117 A 
HETATM   17  C   UNL     1       6.183  32.757  63.706  1.00  0.00     0.040 A 
HETATM   18  C   UNL     1       7.326  32.977  64.552  1.00  0.00     0.025 A 
HETATM   19  C   UNL     1       5.096  33.493  64.152  1.00  0.00     0.112 A 
HETATM   20  C   UNL     1       7.061  33.845  65.588  1.00  0.00     0.053 A 
HETATM   21  S   UNL     1       5.444  34.402  65.553  1.00  0.00    -0.081 SA
HETATM   22  N   UNL     1       3.876  33.535  63.593  1.00  0.00    -0.234 NA
HETATM   23  C   UNL     1       3.796  32.770  62.503  1.00  0.00     0.236 A 
HETATM   24  N   UNL     1       4.759  32.005  61.964  1.00  0.00    -0.229 NA
ENDBRANCH  14  16
ENDBRANCH  13  14
ENDBRANCH   1  13
TORSDOF 3
ENDMDL
