MODEL 1
REMARK VINA RESULT:      -8.3      0.000      0.000
REMARK  8 active torsions:
REMARK  status: ('A' for Active; 'I' for Inactive)
REMARK    1  A    between atoms: C_4  and  C_5 
REMARK    2  A    between atoms: C_5  and  N_6 
REMARK    3  A    between atoms: N_6  and  C_9 
REMARK    4  A    between atoms: C_9  and  C_10 
REMARK    5  A    between atoms: C_10  and  C_11 
REMARK    6  A    between atoms: C_11  and  N_12 
REMARK       I    between atoms: N_12  and  C_13 
REMARK    7  A    between atoms: C_13  and  C_14 
REMARK    8  A    between atoms: C_16  and  O_17 
ROOT
HETATM    1  C   UNL     1       6.400  27.769  55.011  1.00  0.00     0.047 C 
ENDROOT
BRANCH   1   2
HETATM    2  C   UNL     1       7.196  28.912  55.626  1.00  0.00     0.235 C 
BRANCH   2   3
HETATM    3  N   UNL     1       8.001  28.434  56.792  1.00  0.00    -0.067 N 
HETATM    4  H   UNL     1       8.081  27.406  56.741  1.00  0.00     0.277 HD
HETATM    5  H   UNL     1       7.520  28.603  57.684  1.00  0.00     0.277 HD
BRANCH   3   6
HETATM    6  C   UNL     1       9.398  28.988  56.907  1.00  0.00     0.223 C 
HETATM    7  C   UNL     1       9.908  29.409  55.528  1.00  0.00     0.046 C 
BRANCH   6   8
HETATM    8  C   UNL     1       9.461  30.133  57.868  1.00  0.00     0.032 A 
HETATM    9  S   UNL     1       8.381  30.283  59.199  1.00  0.00    -0.076 SA
HETATM   10  C   UNL     1       9.116  31.778  59.624  1.00  0.00     0.071 A 
HETATM   11  C   UNL     1       8.631  32.568  60.791  1.00  0.00     0.078 C 
HETATM   12  N   UNL     1      10.113  32.145  58.850  1.00  0.00    -0.257 NA
HETATM   13  C   UNL     1      10.307  31.224  57.847  1.00  0.00     0.134 A 
ENDBRANCH   6   8
ENDBRANCH   3   6
ENDBRANCH   2   3
ENDBRANCH   1   2
BRANCH   1  14
HETATM   14  C   UNL     1       7.206  26.975  53.983  1.00  0.00     0.124 C 
BRANCH  14  15
HETATM   15  N   UNL     1       7.263  25.568  54.299  1.00  0.00    -0.357 N 
HETATM   16  C   UNL     1       7.837  24.663  53.428  1.00  0.00     0.251 C 
HETATM   17  O   UNL     1       8.254  24.990  52.322  1.00  0.00    -0.268 OA
HETATM   18  H   UNL     1       6.811  25.227  55.141  1.00  0.00     0.162 HD
BRANCH  16  19
HETATM   19  C   UNL     1       7.872  23.250  53.889  1.00  0.00     0.034 A 
HETATM   20  C   UNL     1       8.054  22.236  52.943  1.00  0.00     0.053 A 
HETATM   21  C   UNL     1       8.063  20.910  53.365  1.00  0.00     0.066 A 
HETATM   22  C   UNL     1       7.911  20.584  54.709  1.00  0.00     0.036 A 
HETATM   23  C   UNL     1       7.753  21.595  55.656  1.00  0.00     0.004 A 
HETATM   24  C   UNL     1       7.736  22.930  55.249  1.00  0.00     0.017 A 
BRANCH  21  25
HETATM   25  O   UNL     1       8.217  19.881  52.484  1.00  0.00    -0.361 OA
HETATM   26  H   UNL     1       7.353  19.473  52.307  1.00  0.00     0.217 HD
ENDBRANCH  21  25
ENDBRANCH  16  19
ENDBRANCH  14  15
ENDBRANCH   1  14
TORSDOF 8
ENDMDL
MODEL 2
REMARK VINA RESULT:      -8.3      1.721      2.127
REMARK  8 active torsions:
REMARK  status: ('A' for Active; 'I' for Inactive)
REMARK    1  A    between atoms: C_4  and  C_5 
REMARK    2  A    between atoms: C_5  and  N_6 
REMARK    3  A    between atoms: N_6  and  C_9 
REMARK    4  A    between atoms: C_9  and  C_10 
REMARK    5  A    between atoms: C_10  and  C_11 
REMARK    6  A    between atoms: C_11  and  N_12 
REMARK       I    between atoms: N_12  and  C_13 
REMARK    7  A    between atoms: C_13  and  C_14 
REMARK    8  A    between atoms: C_16  and  O_17 
ROOT
HETATM    1  C   UNL     1       8.037  26.951  57.128  1.00  0.00     0.047 C 
ENDROOT
BRANCH   1   2
HETATM    2  C   UNL     1       7.705  27.927  56.009  1.00  0.00     0.235 C 
BRANCH   2   3
HETATM    3  N   UNL     1       8.116  29.318  56.375  1.00  0.00    -0.067 N 
HETATM    4  H   UNL     1       7.340  29.769  56.885  1.00  0.00     0.277 HD
HETATM    5  H   UNL     1       8.246  29.909  55.544  1.00  0.00     0.277 HD
BRANCH   3   6
HETATM    6  C   UNL     1       9.350  29.443  57.230  1.00  0.00     0.223 C 
HETATM    7  C   UNL     1      10.572  29.704  56.347  1.00  0.00     0.046 C 
BRANCH   6   8
HETATM    8  C   UNL     1       9.202  30.517  58.261  1.00  0.00     0.032 A 
HETATM    9  S   UNL     1       7.861  30.587  59.337  1.00  0.00    -0.076 SA
HETATM   10  C   UNL     1       8.483  32.039  60.015  1.00  0.00     0.071 A 
HETATM   11  C   UNL     1       7.757  32.751  61.104  1.00  0.00     0.078 C 
HETATM   12  N   UNL     1       9.622  32.447  59.500  1.00  0.00    -0.257 NA
HETATM   13  C   UNL     1      10.029  31.597  58.499  1.00  0.00     0.134 A 
ENDBRANCH   6   8
ENDBRANCH   3   6
ENDBRANCH   2   3
ENDBRANCH   1   2
BRANCH   1  14
HETATM   14  C   UNL     1       7.024  25.810  57.236  1.00  0.00     0.124 C 
BRANCH  14  15
HETATM   15  N   UNL     1       7.207  24.816  56.206  1.00  0.00    -0.357 N 
HETATM   16  C   UNL     1       7.980  23.693  56.425  1.00  0.00     0.251 C 
HETATM   17  O   UNL     1       8.607  23.521  57.465  1.00  0.00    -0.268 OA
HETATM   18  H   UNL     1       6.819  24.978  55.282  1.00  0.00     0.162 HD
BRANCH  16  19
HETATM   19  C   UNL     1       8.053  22.724  55.300  1.00  0.00     0.034 A 
HETATM   20  C   UNL     1       8.504  21.426  55.557  1.00  0.00     0.053 A 
HETATM   21  C   UNL     1       8.598  20.521  54.503  1.00  0.00     0.066 A 
HETATM   22  C   UNL     1       8.236  20.885  53.210  1.00  0.00     0.036 A 
HETATM   23  C   UNL     1       7.763  22.172  52.958  1.00  0.00     0.004 A 
HETATM   24  C   UNL     1       7.668  23.094  54.001  1.00  0.00     0.017 A 
BRANCH  21  25
HETATM   25  O   UNL     1       9.050  19.249  54.692  1.00  0.00    -0.361 OA
HETATM   26  H   UNL     1       9.386  18.894  53.852  1.00  0.00     0.217 HD
ENDBRANCH  21  25
ENDBRANCH  16  19
ENDBRANCH  14  15
ENDBRANCH   1  14
TORSDOF 8
ENDMDL
MODEL 3
REMARK VINA RESULT:      -7.8      1.543      1.901
REMARK  8 active torsions:
REMARK  status: ('A' for Active; 'I' for Inactive)
REMARK    1  A    between atoms: C_4  and  C_5 
REMARK    2  A    between atoms: C_5  and  N_6 
REMARK    3  A    between atoms: N_6  and  C_9 
REMARK    4  A    between atoms: C_9  and  C_10 
REMARK    5  A    between atoms: C_10  and  C_11 
REMARK    6  A    between atoms: C_11  and  N_12 
REMARK       I    between atoms: N_12  and  C_13 
REMARK    7  A    between atoms: C_13  and  C_14 
REMARK    8  A    between atoms: C_16  and  O_17 
ROOT
HETATM    1  C   UNL     1       8.042  27.254  56.786  1.00  0.00     0.047 C 
ENDROOT
BRANCH   1   2
HETATM    2  C   UNL     1       7.215  28.278  57.550  1.00  0.00     0.235 C 
BRANCH   2   3
HETATM    3  N   UNL     1       7.849  29.630  57.487  1.00  0.00    -0.067 N 
HETATM    4  H   UNL     1       7.117  30.347  57.611  1.00  0.00     0.277 HD
HETATM    5  H   UNL     1       8.237  29.828  56.555  1.00  0.00     0.277 HD
BRANCH   3   6
HETATM    6  C   UNL     1       8.926  29.907  58.505  1.00  0.00     0.223 C 
HETATM    7  C   UNL     1      10.119  30.585  57.830  1.00  0.00     0.046 C 
BRANCH   6   8
HETATM    8  C   UNL     1       8.415  30.740  59.638  1.00  0.00     0.032 A 
HETATM    9  S   UNL     1       9.154  30.739  61.192  1.00  0.00    -0.076 SA
HETATM   10  C   UNL     1       7.951  31.828  61.762  1.00  0.00     0.071 A 
HETATM   11  C   UNL     1       7.950  32.299  63.175  1.00  0.00     0.078 C 
HETATM   12  N   UNL     1       7.064  32.194  60.863  1.00  0.00    -0.257 NA
HETATM   13  C   UNL     1       7.314  31.573  59.661  1.00  0.00     0.134 A 
ENDBRANCH   6   8
ENDBRANCH   3   6
ENDBRANCH   2   3
ENDBRANCH   1   2
BRANCH   1  14
HETATM   14  C   UNL     1       7.267  26.605  55.638  1.00  0.00     0.124 C 
BRANCH  14  15
HETATM   15  N   UNL     1       7.390  25.168  55.637  1.00  0.00    -0.357 N 
HETATM   16  C   UNL     1       7.762  24.484  54.496  1.00  0.00     0.251 C 
HETATM   17  O   UNL     1       7.930  25.047  53.419  1.00  0.00    -0.268 OA
HETATM   18  H   UNL     1       7.132  24.644  56.466  1.00  0.00     0.162 HD
BRANCH  16  19
HETATM   19  C   UNL     1       7.896  23.010  54.636  1.00  0.00     0.034 A 
HETATM   20  C   UNL     1       8.000  22.230  53.480  1.00  0.00     0.053 A 
HETATM   21  C   UNL     1       8.102  20.847  53.604  1.00  0.00     0.066 A 
HETATM   22  C   UNL     1       8.116  20.238  54.855  1.00  0.00     0.036 A 
HETATM   23  C   UNL     1       8.037  21.017  56.008  1.00  0.00     0.004 A 
HETATM   24  C   UNL     1       7.929  22.404  55.902  1.00  0.00     0.017 A 
BRANCH  21  25
HETATM   25  O   UNL     1       8.186  20.036  52.511  1.00  0.00    -0.361 OA
HETATM   26  H   UNL     1       8.785  20.433  51.858  1.00  0.00     0.217 HD
ENDBRANCH  21  25
ENDBRANCH  16  19
ENDBRANCH  14  15
ENDBRANCH   1  14
TORSDOF 8
ENDMDL
MODEL 4
REMARK VINA RESULT:      -7.7      4.515      6.211
REMARK  8 active torsions:
REMARK  status: ('A' for Active; 'I' for Inactive)
REMARK    1  A    between atoms: C_4  and  C_5 
REMARK    2  A    between atoms: C_5  and  N_6 
REMARK    3  A    between atoms: N_6  and  C_9 
REMARK    4  A    between atoms: C_9  and  C_10 
REMARK    5  A    between atoms: C_10  and  C_11 
REMARK    6  A    between atoms: C_11  and  N_12 
REMARK       I    between atoms: N_12  and  C_13 
REMARK    7  A    between atoms: C_13  and  C_14 
REMARK    8  A    between atoms: C_16  and  O_17 
ROOT
HETATM    1  C   UNL     1       4.990  26.106  56.989  1.00  0.00     0.047 C 
ENDROOT
BRANCH   1   2
HETATM    2  C   UNL     1       5.146  27.340  56.112  1.00  0.00     0.235 C 
BRANCH   2   3
HETATM    3  N   UNL     1       4.843  27.019  54.683  1.00  0.00    -0.067 N 
HETATM    4  H   UNL     1       3.899  27.369  54.457  1.00  0.00     0.277 HD
HETATM    5  H   UNL     1       4.779  26.005  54.524  1.00  0.00     0.277 HD
BRANCH   3   6
HETATM    6  C   UNL     1       5.791  27.589  53.659  1.00  0.00     0.223 C 
HETATM    7  C   UNL     1       7.125  26.843  53.710  1.00  0.00     0.046 C 
BRANCH   6   8
HETATM    8  C   UNL     1       5.209  27.540  52.281  1.00  0.00     0.032 A 
HETATM    9  S   UNL     1       5.543  26.259  51.181  1.00  0.00    -0.076 SA
HETATM   10  C   UNL     1       4.587  27.040  49.985  1.00  0.00     0.071 A 
HETATM   11  C   UNL     1       4.422  26.448  48.627  1.00  0.00     0.078 C 
HETATM   12  N   UNL     1       4.032  28.169  50.368  1.00  0.00    -0.257 NA
HETATM   13  C   UNL     1       4.389  28.464  51.663  1.00  0.00     0.134 A 
ENDBRANCH   6   8
ENDBRANCH   3   6
ENDBRANCH   2   3
ENDBRANCH   1   2
BRANCH   1  14
HETATM   14  C   UNL     1       6.318  25.392  57.244  1.00  0.00     0.124 C 
BRANCH  14  15
HETATM   15  N   UNL     1       6.628  24.427  56.218  1.00  0.00    -0.357 N 
HETATM   16  C   UNL     1       7.748  23.624  56.306  1.00  0.00     0.251 C 
HETATM   17  O   UNL     1       8.568  23.740  57.210  1.00  0.00    -0.268 OA
HETATM   18  H   UNL     1       6.054  24.386  55.382  1.00  0.00     0.162 HD
BRANCH  16  19
HETATM   19  C   UNL     1       7.931  22.641  55.206  1.00  0.00     0.034 A 
HETATM   20  C   UNL     1       8.403  21.361  55.517  1.00  0.00     0.053 A 
HETATM   21  C   UNL     1       8.600  20.444  54.489  1.00  0.00     0.066 A 
HETATM   22  C   UNL     1       8.321  20.777  53.168  1.00  0.00     0.036 A 
HETATM   23  C   UNL     1       7.827  22.043  52.859  1.00  0.00     0.004 A 
HETATM   24  C   UNL     1       7.629  22.978  53.877  1.00  0.00     0.017 A 
BRANCH  21  25
HETATM   25  O   UNL     1       9.077  19.190  54.732  1.00  0.00    -0.361 OA
HETATM   26  H   UNL     1       9.975  19.108  54.371  1.00  0.00     0.217 HD
ENDBRANCH  21  25
ENDBRANCH  16  19
ENDBRANCH  14  15
ENDBRANCH   1  14
TORSDOF 8
ENDMDL
MODEL 5
REMARK VINA RESULT:      -7.7      1.929      2.747
REMARK  8 active torsions:
REMARK  status: ('A' for Active; 'I' for Inactive)
REMARK    1  A    between atoms: C_4  and  C_5 
REMARK    2  A    between atoms: C_5  and  N_6 
REMARK    3  A    between atoms: N_6  and  C_9 
REMARK    4  A    between atoms: C_9  and  C_10 
REMARK    5  A    between atoms: C_10  and  C_11 
REMARK    6  A    between atoms: C_11  and  N_12 
REMARK       I    between atoms: N_12  and  C_13 
REMARK    7  A    between atoms: C_13  and  C_14 
REMARK    8  A    between atoms: C_16  and  O_17 
ROOT
HETATM    1  C   UNL     1       4.914  26.726  52.669  1.00  0.00     0.047 C 
ENDROOT
BRANCH   1   2
HETATM    2  C   UNL     1       5.319  28.010  53.380  1.00  0.00     0.235 C 
BRANCH   2   3
HETATM    3  N   UNL     1       6.128  27.710  54.601  1.00  0.00    -0.067 N 
HETATM    4  H   UNL     1       7.129  27.782  54.362  1.00  0.00     0.277 HD
HETATM    5  H   UNL     1       6.014  26.734  54.906  1.00  0.00     0.277 HD
BRANCH   3   6
HETATM    6  C   UNL     1       5.885  28.598  55.794  1.00  0.00     0.223 C 
HETATM    7  C   UNL     1       4.994  27.879  56.808  1.00  0.00     0.046 C 
BRANCH   6   8
HETATM    8  C   UNL     1       7.168  29.032  56.430  1.00  0.00     0.032 A 
HETATM    9  S   UNL     1       8.674  28.983  55.600  1.00  0.00    -0.076 SA
HETATM   10  C   UNL     1       9.470  29.549  57.015  1.00  0.00     0.071 A 
HETATM   11  C   UNL     1      10.947  29.747  57.038  1.00  0.00     0.078 C 
HETATM   12  N   UNL     1       8.679  29.785  58.039  1.00  0.00    -0.257 NA
HETATM   13  C   UNL     1       7.376  29.483  57.718  1.00  0.00     0.134 A 
ENDBRANCH   6   8
ENDBRANCH   3   6
ENDBRANCH   2   3
ENDBRANCH   1   2
BRANCH   1  14
HETATM   14  C   UNL     1       6.073  26.082  51.908  1.00  0.00     0.124 C 
BRANCH  14  15
HETATM   15  N   UNL     1       6.404  24.774  52.419  1.00  0.00    -0.357 N 
HETATM   16  C   UNL     1       7.323  24.615  53.438  1.00  0.00     0.251 C 
HETATM   17  O   UNL     1       7.955  25.558  53.902  1.00  0.00    -0.268 OA
HETATM   18  H   UNL     1       6.008  23.950  51.977  1.00  0.00     0.162 HD
BRANCH  16  19
HETATM   19  C   UNL     1       7.543  23.221  53.904  1.00  0.00     0.034 A 
HETATM   20  C   UNL     1       7.817  22.229  52.958  1.00  0.00     0.053 A 
HETATM   21  C   UNL     1       8.000  20.917  53.386  1.00  0.00     0.066 A 
HETATM   22  C   UNL     1       7.929  20.586  54.735  1.00  0.00     0.036 A 
HETATM   23  C   UNL     1       7.680  21.579  55.681  1.00  0.00     0.004 A 
HETATM   24  C   UNL     1       7.488  22.899  55.269  1.00  0.00     0.017 A 
BRANCH  21  25
HETATM   25  O   UNL     1       8.250  19.907  52.505  1.00  0.00    -0.361 OA
HETATM   26  H   UNL     1       8.946  19.330  52.861  1.00  0.00     0.217 HD
ENDBRANCH  21  25
ENDBRANCH  16  19
ENDBRANCH  14  15
ENDBRANCH   1  14
TORSDOF 8
ENDMDL
MODEL 6
REMARK VINA RESULT:      -7.5      1.556      1.816
REMARK  8 active torsions:
REMARK  status: ('A' for Active; 'I' for Inactive)
REMARK    1  A    between atoms: C_4  and  C_5 
REMARK    2  A    between atoms: C_5  and  N_6 
REMARK    3  A    between atoms: N_6  and  C_9 
REMARK    4  A    between atoms: C_9  and  C_10 
REMARK    5  A    between atoms: C_10  and  C_11 
REMARK    6  A    between atoms: C_11  and  N_12 
REMARK       I    between atoms: N_12  and  C_13 
REMARK    7  A    between atoms: C_13  and  C_14 
REMARK    8  A    between atoms: C_16  and  O_17 
ROOT
HETATM    1  C   UNL     1       5.422  27.480  53.766  1.00  0.00     0.047 C 
ENDROOT
BRANCH   1   2
HETATM    2  C   UNL     1       6.699  28.154  54.248  1.00  0.00     0.235 C 
BRANCH   2   3
HETATM    3  N   UNL     1       6.396  29.198  55.275  1.00  0.00    -0.067 N 
HETATM    4  H   UNL     1       5.411  29.488  55.173  1.00  0.00     0.277 HD
HETATM    5  H   UNL     1       6.929  30.062  55.111  1.00  0.00     0.277 HD
BRANCH   3   6
HETATM    6  C   UNL     1       6.599  28.794  56.713  1.00  0.00     0.223 C 
HETATM    7  C   UNL     1       7.655  27.691  56.801  1.00  0.00     0.046 C 
BRANCH   6   8
HETATM    8  C   UNL     1       6.980  29.962  57.566  1.00  0.00     0.032 A 
HETATM    9  S   UNL     1       8.395  29.969  58.546  1.00  0.00    -0.076 SA
HETATM   10  C   UNL     1       7.982  31.532  59.129  1.00  0.00     0.071 A 
HETATM   11  C   UNL     1       8.836  32.229  60.132  1.00  0.00     0.078 C 
HETATM   12  N   UNL     1       6.878  32.039  58.624  1.00  0.00    -0.257 NA
HETATM   13  C   UNL     1       6.300  31.150  57.746  1.00  0.00     0.134 A 
ENDBRANCH   6   8
ENDBRANCH   3   6
ENDBRANCH   2   3
ENDBRANCH   1   2
BRANCH   1  14
HETATM   14  C   UNL     1       5.672  26.482  52.635  1.00  0.00     0.124 C 
BRANCH  14  15
HETATM   15  N   UNL     1       6.007  25.168  53.127  1.00  0.00    -0.357 N 
HETATM   16  C   UNL     1       7.308  24.705  53.102  1.00  0.00     0.251 C 
HETATM   17  O   UNL     1       8.222  25.348  52.596  1.00  0.00    -0.268 OA
HETATM   18  H   UNL     1       5.266  24.545  53.432  1.00  0.00     0.162 HD
BRANCH  16  19
HETATM   19  C   UNL     1       7.529  23.353  53.678  1.00  0.00     0.034 A 
HETATM   20  C   UNL     1       7.803  22.288  52.814  1.00  0.00     0.053 A 
HETATM   21  C   UNL     1       7.987  21.015  53.345  1.00  0.00     0.066 A 
HETATM   22  C   UNL     1       7.917  20.793  54.717  1.00  0.00     0.036 A 
HETATM   23  C   UNL     1       7.669  21.858  55.581  1.00  0.00     0.004 A 
HETATM   24  C   UNL     1       7.476  23.141  55.065  1.00  0.00     0.017 A 
BRANCH  21  25
HETATM   25  O   UNL     1       8.236  19.938  52.548  1.00  0.00    -0.361 OA
HETATM   26  H   UNL     1       7.966  20.138  51.636  1.00  0.00     0.217 HD
ENDBRANCH  21  25
ENDBRANCH  16  19
ENDBRANCH  14  15
ENDBRANCH   1  14
TORSDOF 8
ENDMDL
MODEL 7
REMARK VINA RESULT:      -7.4      4.248      6.810
REMARK  8 active torsions:
REMARK  status: ('A' for Active; 'I' for Inactive)
REMARK    1  A    between atoms: C_4  and  C_5 
REMARK    2  A    between atoms: C_5  and  N_6 
REMARK    3  A    between atoms: N_6  and  C_9 
REMARK    4  A    between atoms: C_9  and  C_10 
REMARK    5  A    between atoms: C_10  and  C_11 
REMARK    6  A    between atoms: C_11  and  N_12 
REMARK       I    between atoms: N_12  and  C_13 
REMARK    7  A    between atoms: C_13  and  C_14 
REMARK    8  A    between atoms: C_16  and  O_17 
ROOT
HETATM    1  C   UNL     1       5.750  27.119  55.050  1.00  0.00     0.047 C 
ENDROOT
BRANCH   1   2
HETATM    2  C   UNL     1       5.720  27.903  53.745  1.00  0.00     0.235 C 
BRANCH   2   3
HETATM    3  N   UNL     1       4.758  27.291  52.778  1.00  0.00    -0.067 N 
HETATM    4  H   UNL     1       4.213  28.044  52.330  1.00  0.00     0.277 HD
HETATM    5  H   UNL     1       4.048  26.719  53.254  1.00  0.00     0.277 HD
BRANCH   3   6
HETATM    6  C   UNL     1       5.362  26.457  51.677  1.00  0.00     0.223 C 
HETATM    7  C   UNL     1       4.951  24.994  51.845  1.00  0.00     0.046 C 
BRANCH   6   8
HETATM    8  C   UNL     1       4.974  26.964  50.324  1.00  0.00     0.032 A 
HETATM    9  S   UNL     1       5.221  28.598  49.843  1.00  0.00    -0.076 SA
HETATM   10  C   UNL     1       4.482  28.262  48.328  1.00  0.00     0.071 A 
HETATM   11  C   UNL     1       4.316  29.329  47.301  1.00  0.00     0.078 C 
HETATM   12  N   UNL     1       4.091  27.017  48.166  1.00  0.00    -0.257 NA
HETATM   13  C   UNL     1       4.357  26.279  49.296  1.00  0.00     0.134 A 
ENDBRANCH   6   8
ENDBRANCH   3   6
ENDBRANCH   2   3
ENDBRANCH   1   2
BRANCH   1  14
HETATM   14  C   UNL     1       7.155  26.641  55.419  1.00  0.00     0.124 C 
BRANCH  14  15
HETATM   15  N   UNL     1       7.257  25.202  55.442  1.00  0.00    -0.357 N 
HETATM   16  C   UNL     1       7.778  24.504  54.370  1.00  0.00     0.251 C 
HETATM   17  O   UNL     1       8.106  25.057  53.326  1.00  0.00    -0.268 OA
HETATM   18  H   UNL     1       6.874  24.687  56.229  1.00  0.00     0.162 HD
BRANCH  16  19
HETATM   19  C   UNL     1       7.869  23.030  54.536  1.00  0.00     0.034 A 
HETATM   20  C   UNL     1       8.012  22.231  53.397  1.00  0.00     0.053 A 
HETATM   21  C   UNL     1       8.074  20.848  53.544  1.00  0.00     0.066 A 
HETATM   22  C   UNL     1       8.010  20.257  54.801  1.00  0.00     0.036 A 
HETATM   23  C   UNL     1       7.891  21.054  55.939  1.00  0.00     0.004 A 
HETATM   24  C   UNL     1       7.823  22.442  55.810  1.00  0.00     0.017 A 
BRANCH  21  25
HETATM   25  O   UNL     1       8.193  20.021  52.467  1.00  0.00    -0.361 OA
HETATM   26  H   UNL     1       7.376  20.050  51.942  1.00  0.00     0.217 HD
ENDBRANCH  21  25
ENDBRANCH  16  19
ENDBRANCH  14  15
ENDBRANCH   1  14
TORSDOF 8
ENDMDL
MODEL 8
REMARK VINA RESULT:      -7.4      2.038      2.673
REMARK  8 active torsions:
REMARK  status: ('A' for Active; 'I' for Inactive)
REMARK    1  A    between atoms: C_4  and  C_5 
REMARK    2  A    between atoms: C_5  and  N_6 
REMARK    3  A    between atoms: N_6  and  C_9 
REMARK    4  A    between atoms: C_9  and  C_10 
REMARK    5  A    between atoms: C_10  and  C_11 
REMARK    6  A    between atoms: C_11  and  N_12 
REMARK       I    between atoms: N_12  and  C_13 
REMARK    7  A    between atoms: C_13  and  C_14 
REMARK    8  A    between atoms: C_16  and  O_17 
ROOT
HETATM    1  C   UNL     1       7.995  27.735  56.811  1.00  0.00     0.047 C 
ENDROOT
BRANCH   1   2
HETATM    2  C   UNL     1       7.708  29.221  56.967  1.00  0.00     0.235 C 
BRANCH   2   3
HETATM    3  N   UNL     1       7.405  29.559  58.392  1.00  0.00    -0.067 N 
HETATM    4  H   UNL     1       7.022  28.721  58.858  1.00  0.00     0.277 HD
HETATM    5  H   UNL     1       6.650  30.253  58.469  1.00  0.00     0.277 HD
BRANCH   3   6
HETATM    6  C   UNL     1       8.566  30.043  59.222  1.00  0.00     0.223 C 
HETATM    7  C   UNL     1       9.630  30.665  58.317  1.00  0.00     0.046 C 
BRANCH   6   8
HETATM    8  C   UNL     1       8.127  31.017  60.271  1.00  0.00     0.032 A 
HETATM    9  S   UNL     1       8.744  30.985  61.877  1.00  0.00    -0.076 SA
HETATM   10  C   UNL     1       7.710  32.293  62.297  1.00  0.00     0.071 A 
HETATM   11  C   UNL     1       7.691  32.842  63.682  1.00  0.00     0.078 C 
HETATM   12  N   UNL     1       6.965  32.749  61.314  1.00  0.00    -0.257 NA
HETATM   13  C   UNL     1       7.188  32.023  60.167  1.00  0.00     0.134 A 
ENDBRANCH   6   8
ENDBRANCH   3   6
ENDBRANCH   2   3
ENDBRANCH   1   2
BRANCH   1  14
HETATM   14  C   UNL     1       6.999  27.036  55.884  1.00  0.00     0.124 C 
BRANCH  14  15
HETATM   15  N   UNL     1       7.428  25.708  55.520  1.00  0.00    -0.357 N 
HETATM   16  C   UNL     1       6.573  24.828  54.887  1.00  0.00     0.251 C 
HETATM   17  O   UNL     1       5.395  25.099  54.672  1.00  0.00    -0.268 OA
HETATM   18  H   UNL     1       8.351  25.388  55.796  1.00  0.00     0.162 HD
BRANCH  16  19
HETATM   19  C   UNL     1       7.149  23.506  54.525  1.00  0.00     0.034 A 
HETATM   20  C   UNL     1       7.348  22.559  55.535  1.00  0.00     0.053 A 
HETATM   21  C   UNL     1       7.909  21.328  55.208  1.00  0.00     0.066 A 
HETATM   22  C   UNL     1       8.258  21.025  53.896  1.00  0.00     0.036 A 
HETATM   23  C   UNL     1       8.038  21.960  52.885  1.00  0.00     0.004 A 
HETATM   24  C   UNL     1       7.481  23.201  53.196  1.00  0.00     0.017 A 
BRANCH  21  25
HETATM   25  O   UNL     1       8.144  20.376  56.154  1.00  0.00    -0.361 OA
HETATM   26  H   UNL     1       7.751  20.652  56.998  1.00  0.00     0.217 HD
ENDBRANCH  21  25
ENDBRANCH  16  19
ENDBRANCH  14  15
ENDBRANCH   1  14
TORSDOF 8
ENDMDL
MODEL 9
REMARK VINA RESULT:      -7.3      3.049      4.068
REMARK  8 active torsions:
REMARK  status: ('A' for Active; 'I' for Inactive)
REMARK    1  A    between atoms: C_4  and  C_5 
REMARK    2  A    between atoms: C_5  and  N_6 
REMARK    3  A    between atoms: N_6  and  C_9 
REMARK    4  A    between atoms: C_9  and  C_10 
REMARK    5  A    between atoms: C_10  and  C_11 
REMARK    6  A    between atoms: C_11  and  N_12 
REMARK       I    between atoms: N_12  and  C_13 
REMARK    7  A    between atoms: C_13  and  C_14 
REMARK    8  A    between atoms: C_16  and  O_17 
ROOT
HETATM    1  C   UNL     1       5.765  26.282  51.630  1.00  0.00     0.047 C 
ENDROOT
BRANCH   1   2
HETATM    2  C   UNL     1       5.211  27.679  51.389  1.00  0.00     0.235 C 
BRANCH   2   3
HETATM    3  N   UNL     1       5.849  28.671  52.307  1.00  0.00    -0.067 N 
HETATM    4  H   UNL     1       6.221  29.453  51.745  1.00  0.00     0.277 HD
HETATM    5  H   UNL     1       6.679  28.282  52.774  1.00  0.00     0.277 HD
BRANCH   3   6
HETATM    6  C   UNL     1       4.957  29.265  53.367  1.00  0.00     0.223 C 
HETATM    7  C   UNL     1       3.498  28.904  53.084  1.00  0.00     0.046 C 
BRANCH   6   8
HETATM    8  C   UNL     1       5.356  28.819  54.739  1.00  0.00     0.032 A 
HETATM    9  S   UNL     1       7.002  28.687  55.225  1.00  0.00    -0.076 SA
HETATM   10  C   UNL     1       6.498  28.107  56.764  1.00  0.00     0.071 A 
HETATM   11  C   UNL     1       7.495  27.731  57.806  1.00  0.00     0.078 C 
HETATM   12  N   UNL     1       5.196  28.031  56.928  1.00  0.00    -0.257 NA
HETATM   13  C   UNL     1       4.544  28.422  55.782  1.00  0.00     0.134 A 
ENDBRANCH   6   8
ENDBRANCH   3   6
ENDBRANCH   2   3
ENDBRANCH   1   2
BRANCH   1  14
HETATM   14  C   UNL     1       5.241  25.653  52.921  1.00  0.00     0.124 C 
BRANCH  14  15
HETATM   15  N   UNL     1       5.849  24.374  53.195  1.00  0.00    -0.357 N 
HETATM   16  C   UNL     1       6.877  24.252  54.109  1.00  0.00     0.251 C 
HETATM   17  O   UNL     1       7.372  25.223  54.672  1.00  0.00    -0.268 OA
HETATM   18  H   UNL     1       5.567  23.562  52.657  1.00  0.00     0.162 HD
BRANCH  16  19
HETATM   19  C   UNL     1       7.388  22.875  54.333  1.00  0.00     0.034 A 
HETATM   20  C   UNL     1       7.638  22.059  53.224  1.00  0.00     0.053 A 
HETATM   21  C   UNL     1       8.093  20.760  53.428  1.00  0.00     0.066 A 
HETATM   22  C   UNL     1       8.316  20.271  54.711  1.00  0.00     0.036 A 
HETATM   23  C   UNL     1       8.091  21.091  55.816  1.00  0.00     0.004 A 
HETATM   24  C   UNL     1       7.629  22.395  55.630  1.00  0.00     0.017 A 
BRANCH  21  25
HETATM   25  O   UNL     1       8.334  19.915  52.386  1.00  0.00    -0.361 OA
HETATM   26  H   UNL     1       7.929  20.273  51.578  1.00  0.00     0.217 HD
ENDBRANCH  21  25
ENDBRANCH  16  19
ENDBRANCH  14  15
ENDBRANCH   1  14
TORSDOF 8
ENDMDL
MODEL 10
REMARK VINA RESULT:      -7.3      5.369      7.567
REMARK  8 active torsions:
REMARK  status: ('A' for Active; 'I' for Inactive)
REMARK    1  A    between atoms: C_4  and  C_5 
REMARK    2  A    between atoms: C_5  and  N_6 
REMARK    3  A    between atoms: N_6  and  C_9 
REMARK    4  A    between atoms: C_9  and  C_10 
REMARK    5  A    between atoms: C_10  and  C_11 
REMARK    6  A    between atoms: C_11  and  N_12 
REMARK       I    between atoms: N_12  and  C_13 
REMARK    7  A    between atoms: C_13  and  C_14 
REMARK    8  A    between atoms: C_16  and  O_17 
ROOT
HETATM    1  C   UNL     1       4.957  26.924  53.759  1.00  0.00     0.047 C 
ENDROOT
BRANCH   1   2
HETATM    2  C   UNL     1       4.682  28.323  53.226  1.00  0.00     0.235 C 
BRANCH   2   3
HETATM    3  N   UNL     1       3.532  28.312  52.270  1.00  0.00    -0.067 N 
HETATM    4  H   UNL     1       2.738  28.812  52.700  1.00  0.00     0.277 HD
HETATM    5  H   UNL     1       3.173  27.361  52.113  1.00  0.00     0.277 HD
BRANCH   3   6
HETATM    6  C   UNL     1       3.783  28.940  50.922  1.00  0.00     0.223 C 
HETATM    7  C   UNL     1       5.282  29.163  50.721  1.00  0.00     0.046 C 
BRANCH   6   8
HETATM    8  C   UNL     1       3.217  28.110  49.813  1.00  0.00     0.032 A 
HETATM    9  S   UNL     1       4.085  26.807  49.098  1.00  0.00    -0.076 SA
HETATM   10  C   UNL     1       2.786  26.546  48.003  1.00  0.00     0.071 A 
HETATM   11  C   UNL     1       2.857  25.474  46.969  1.00  0.00     0.078 C 
HETATM   12  N   UNL     1       1.759  27.352  48.158  1.00  0.00    -0.257 NA
HETATM   13  C   UNL     1       2.001  28.248  49.174  1.00  0.00     0.134 A 
ENDBRANCH   6   8
ENDBRANCH   3   6
ENDBRANCH   2   3
ENDBRANCH   1   2
BRANCH   1  14
HETATM   14  C   UNL     1       5.267  25.920  52.649  1.00  0.00     0.124 C 
BRANCH  14  15
HETATM   15  N   UNL     1       5.743  24.660  53.166  1.00  0.00    -0.357 N 
HETATM   16  C   UNL     1       7.088  24.349  53.165  1.00  0.00     0.251 C 
HETATM   17  O   UNL     1       7.930  25.085  52.660  1.00  0.00    -0.268 OA
HETATM   18  H   UNL     1       5.074  23.961  53.472  1.00  0.00     0.162 HD
BRANCH  16  19
HETATM   19  C   UNL     1       7.454  23.040  53.765  1.00  0.00     0.034 A 
HETATM   20  C   UNL     1       7.854  21.999  52.921  1.00  0.00     0.053 A 
HETATM   21  C   UNL     1       8.174  20.763  53.475  1.00  0.00     0.066 A 
HETATM   22  C   UNL     1       8.116  20.556  54.849  1.00  0.00     0.036 A 
HETATM   23  C   UNL     1       7.742  21.600  55.694  1.00  0.00     0.004 A 
HETATM   24  C   UNL     1       7.412  22.845  55.155  1.00  0.00     0.017 A 
BRANCH  21  25
HETATM   25  O   UNL     1       8.550  19.708  52.698  1.00  0.00    -0.361 OA
HETATM   26  H   UNL     1       8.055  18.915  52.963  1.00  0.00     0.217 HD
ENDBRANCH  21  25
ENDBRANCH  16  19
ENDBRANCH  14  15
ENDBRANCH   1  14
TORSDOF 8
ENDMDL
