MODEL 1
REMARK VINA RESULT:     -10.8      0.000      0.000
REMARK  7 active torsions:
REMARK  status: ('A' for Active; 'I' for Inactive)
REMARK    1  A    between atoms: O_2  and  C_3 
REMARK    2  A    between atoms: C_4  and  C_5 
REMARK    3  A    between atoms: N_10  and  C_12 
REMARK    4  A    between atoms: C_12  and  C_13 
REMARK       I    between atoms: C_13  and  N_14 
REMARK    5  A    between atoms: N_14  and  C_15 
REMARK    6  A    between atoms: C_15  and  C_16 
REMARK    7  A    between atoms: C_16  and  C_17 
ROOT
HETATM    1  C   UNL     1       4.909  32.337  60.423  1.00  0.00     0.190 C 
HETATM    2  O   UNL     1       6.095  33.141  60.554  1.00  0.00    -0.339 OA
HETATM    3  C   UNL     1       7.153  32.360  60.936  1.00  0.00     0.077 A 
HETATM    4  C   UNL     1       7.718  31.439  60.048  1.00  0.00     0.001 A 
HETATM    5  C   UNL     1       7.216  31.326  58.640  1.00  0.00     0.276 C 
HETATM    6  N   UNL     1       5.795  30.838  58.544  1.00  0.00    -0.056 N 
HETATM    7  H   UNL     1       5.691  30.042  59.197  1.00  0.00     0.280 HD
HETATM    8  C   UNL     1       4.755  31.888  58.953  1.00  0.00     0.273 C 
HETATM    9  C   UNL     1       7.652  32.528  62.226  1.00  0.00     0.037 A 
HETATM   10  C   UNL     1       8.712  31.738  62.660  1.00  0.00     0.003 A 
HETATM   11  C   UNL     1       9.275  30.795  61.800  1.00  0.00     0.001 A 
HETATM   12  C   UNL     1       8.785  30.649  60.500  1.00  0.00     0.012 A 
ENDROOT
BRANCH   6  13
HETATM   13  C   UNL     1       5.472  30.254  57.171  1.00  0.00     0.337 C 
BRANCH  13  14
HETATM   14  C   UNL     1       6.547  29.246  56.765  1.00  0.00     0.243 C 
HETATM   15  N   UNL     1       7.283  29.571  55.653  1.00  0.00    -0.359 N 
HETATM   16  H   UNL     1       6.950  30.313  55.043  1.00  0.00     0.162 HD
HETATM   17  O   UNL     1       6.637  28.179  57.371  1.00  0.00    -0.272 OA
BRANCH  15  18
HETATM   18  C   UNL     1       8.101  28.573  54.983  1.00  0.00     0.130 C 
BRANCH  18  19
HETATM   19  C   UNL     1       7.298  27.708  54.010  1.00  0.00     0.098 C 
BRANCH  19  20
HETATM   20  C   UNL     1       7.433  26.230  54.311  1.00  0.00     0.109 A 
HETATM   21  N   UNL     1       7.512  25.355  53.352  1.00  0.00    -0.234 NA
HETATM   22  C   UNL     1       7.641  23.999  53.721  1.00  0.00     0.074 A 
HETATM   23  C   UNL     1       7.644  23.575  55.054  1.00  0.00     0.061 A 
HETATM   24  C   UNL     1       7.785  23.036  52.719  1.00  0.00     0.032 A 
HETATM   25  C   UNL     1       7.510  24.605  56.095  1.00  0.00     0.259 A 
HETATM   26  C   UNL     1       7.782  22.225  55.394  1.00  0.00     0.019 A 
HETATM   27  O   UNL     1       7.474  24.335  57.288  1.00  0.00    -0.267 OA
HETATM   28  N   UNL     1       7.426  25.895  55.638  1.00  0.00    -0.311 N 
HETATM   29  H   UNL     1       7.333  26.594  56.364  1.00  0.00     0.170 HD
HETATM   30  C   UNL     1       7.923  21.279  54.383  1.00  0.00     0.001 A 
HETATM   31  C   UNL     1       7.926  21.683  53.047  1.00  0.00     0.002 A 
ENDBRANCH  19  20
ENDBRANCH  18  19
ENDBRANCH  15  18
ENDBRANCH  13  14
ENDBRANCH   6  13
BRANCH   1  32
HETATM   32  C   UNL     1       3.731  33.179  60.891  1.00  0.00     0.006 A 
HETATM   33  C   UNL     1       3.453  33.311  62.268  1.00  0.00     0.077 A 
HETATM   34  C   UNL     1       2.360  34.075  62.687  1.00  0.00     0.037 A 
HETATM   35  C   UNL     1       1.552  34.726  61.755  1.00  0.00     0.003 A 
HETATM   36  C   UNL     1       1.835  34.629  60.397  1.00  0.00     0.001 A 
HETATM   37  C   UNL     1       2.922  33.870  59.967  1.00  0.00     0.012 A 
BRANCH  33  38
HETATM   38  O   UNL     1       4.292  32.640  63.119  1.00  0.00    -0.355 OA
HETATM   39  C   UNL     1       4.833  33.375  64.213  1.00  0.00     0.210 C 
ENDBRANCH  33  38
ENDBRANCH   1  32
TORSDOF 7
ENDMDL
MODEL 2
REMARK VINA RESULT:     -10.2      2.784     10.551
REMARK  7 active torsions:
REMARK  status: ('A' for Active; 'I' for Inactive)
REMARK    1  A    between atoms: O_2  and  C_3 
REMARK    2  A    between atoms: C_4  and  C_5 
REMARK    3  A    between atoms: N_10  and  C_12 
REMARK    4  A    between atoms: C_12  and  C_13 
REMARK       I    between atoms: C_13  and  N_14 
REMARK    5  A    between atoms: N_14  and  C_15 
REMARK    6  A    between atoms: C_15  and  C_16 
REMARK    7  A    between atoms: C_16  and  C_17 
ROOT
HETATM    1  C   UNL     1       5.756  26.236  53.037  1.00  0.00     0.190 C 
HETATM    2  O   UNL     1       5.565  24.810  53.026  1.00  0.00    -0.339 OA
HETATM    3  C   UNL     1       6.599  24.191  53.677  1.00  0.00     0.077 A 
HETATM    4  C   UNL     1       6.731  24.293  55.066  1.00  0.00     0.001 A 
HETATM    5  C   UNL     1       5.713  25.035  55.879  1.00  0.00     0.276 C 
HETATM    6  N   UNL     1       5.662  26.510  55.582  1.00  0.00    -0.056 N 
HETATM    7  H   UNL     1       6.636  26.855  55.531  1.00  0.00     0.280 HD
HETATM    8  C   UNL     1       5.001  26.844  54.239  1.00  0.00     0.273 C 
HETATM    9  C   UNL     1       7.496  23.448  52.914  1.00  0.00     0.037 A 
HETATM   10  C   UNL     1       8.574  22.823  53.534  1.00  0.00     0.003 A 
HETATM   11  C   UNL     1       8.740  22.933  54.915  1.00  0.00     0.001 A 
HETATM   12  C   UNL     1       7.822  23.659  55.678  1.00  0.00     0.012 A 
ENDROOT
BRANCH   6  13
HETATM   13  C   UNL     1       5.028  27.310  56.718  1.00  0.00     0.337 C 
BRANCH  13  14
HETATM   14  C   UNL     1       6.068  28.236  57.349  1.00  0.00     0.243 C 
HETATM   15  N   UNL     1       5.667  29.532  57.559  1.00  0.00    -0.359 N 
HETATM   16  H   UNL     1       4.822  29.865  57.101  1.00  0.00     0.162 HD
HETATM   17  O   UNL     1       7.210  27.821  57.543  1.00  0.00    -0.272 OA
BRANCH  15  18
HETATM   18  C   UNL     1       6.638  30.574  57.847  1.00  0.00     0.130 C 
BRANCH  18  19
HETATM   19  C   UNL     1       6.000  31.821  58.462  1.00  0.00     0.098 C 
BRANCH  19  20
HETATM   20  C   UNL     1       6.477  32.069  59.879  1.00  0.00     0.109 A 
HETATM   21  N   UNL     1       6.009  33.060  60.579  1.00  0.00    -0.234 NA
HETATM   22  C   UNL     1       6.505  33.216  61.892  1.00  0.00     0.074 A 
HETATM   23  C   UNL     1       7.491  32.384  62.431  1.00  0.00     0.061 A 
HETATM   24  C   UNL     1       5.985  34.234  62.694  1.00  0.00     0.032 A 
HETATM   25  C   UNL     1       8.013  31.307  61.577  1.00  0.00     0.259 A 
HETATM   26  C   UNL     1       7.960  32.555  63.738  1.00  0.00     0.019 A 
HETATM   27  O   UNL     1       8.895  30.543  61.946  1.00  0.00    -0.267 OA
HETATM   28  N   UNL     1       7.444  31.214  60.334  1.00  0.00    -0.311 N 
HETATM   29  H   UNL     1       7.813  30.469  59.756  1.00  0.00     0.170 HD
HETATM   30  C   UNL     1       7.432  33.575  64.524  1.00  0.00     0.001 A 
HETATM   31  C   UNL     1       6.445  34.414  64.004  1.00  0.00     0.002 A 
ENDBRANCH  19  20
ENDBRANCH  18  19
ENDBRANCH  15  18
ENDBRANCH  13  14
ENDBRANCH   6  13
BRANCH   1  32
HETATM   32  C   UNL     1       5.248  26.776  51.708  1.00  0.00     0.006 A 
HETATM   33  C   UNL     1       5.055  28.162  51.531  1.00  0.00     0.077 A 
HETATM   34  C   UNL     1       4.573  28.647  50.311  1.00  0.00     0.037 A 
HETATM   35  C   UNL     1       4.300  27.773  49.260  1.00  0.00     0.003 A 
HETATM   36  C   UNL     1       4.516  26.408  49.413  1.00  0.00     0.001 A 
HETATM   37  C   UNL     1       4.996  25.912  50.625  1.00  0.00     0.012 A 
BRANCH  33  38
HETATM   38  O   UNL     1       5.344  28.955  52.611  1.00  0.00    -0.355 OA
HETATM   39  C   UNL     1       4.510  30.089  52.829  1.00  0.00     0.210 C 
ENDBRANCH  33  38
ENDBRANCH   1  32
TORSDOF 7
ENDMDL
MODEL 3
REMARK VINA RESULT:     -10.1      2.326      3.667
REMARK  7 active torsions:
REMARK  status: ('A' for Active; 'I' for Inactive)
REMARK    1  A    between atoms: O_2  and  C_3 
REMARK    2  A    between atoms: C_4  and  C_5 
REMARK    3  A    between atoms: N_10  and  C_12 
REMARK    4  A    between atoms: C_12  and  C_13 
REMARK       I    between atoms: C_13  and  N_14 
REMARK    5  A    between atoms: N_14  and  C_15 
REMARK    6  A    between atoms: C_15  and  C_16 
REMARK    7  A    between atoms: C_16  and  C_17 
ROOT
HETATM    1  C   UNL     1       6.391  31.569  58.839  1.00  0.00     0.190 C 
HETATM    2  O   UNL     1       6.652  32.846  59.447  1.00  0.00    -0.339 OA
HETATM    3  C   UNL     1       7.117  32.674  60.723  1.00  0.00     0.077 A 
HETATM    4  C   UNL     1       8.397  32.157  60.953  1.00  0.00     0.001 A 
HETATM    5  C   UNL     1       9.308  31.834  59.807  1.00  0.00     0.276 C 
HETATM    6  N   UNL     1       8.805  30.717  58.932  1.00  0.00    -0.056 N 
HETATM    7  H   UNL     1       8.462  29.962  59.550  1.00  0.00     0.280 HD
HETATM    8  C   UNL     1       7.631  31.123  58.033  1.00  0.00     0.273 C 
HETATM    9  C   UNL     1       6.283  33.045  61.775  1.00  0.00     0.037 A 
HETATM   10  C   UNL     1       6.710  32.864  63.087  1.00  0.00     0.003 A 
HETATM   11  C   UNL     1       7.972  32.327  63.340  1.00  0.00     0.001 A 
HETATM   12  C   UNL     1       8.814  31.979  62.280  1.00  0.00     0.012 A 
ENDROOT
BRANCH   6  13
HETATM   13  C   UNL     1       9.921  30.070  58.115  1.00  0.00     0.337 C 
BRANCH  13  14
HETATM   14  C   UNL     1       9.325  29.264  56.961  1.00  0.00     0.243 C 
HETATM   15  N   UNL     1       8.558  28.184  57.319  1.00  0.00    -0.359 N 
HETATM   16  H   UNL     1       8.603  27.844  58.277  1.00  0.00     0.162 HD
HETATM   17  O   UNL     1       9.628  29.549  55.803  1.00  0.00    -0.272 OA
BRANCH  15  18
HETATM   18  C   UNL     1       8.204  27.166  56.344  1.00  0.00     0.130 C 
BRANCH  18  19
HETATM   19  C   UNL     1       7.903  25.811  56.987  1.00  0.00     0.098 C 
BRANCH  19  20
HETATM   20  C   UNL     1       7.946  24.677  55.983  1.00  0.00     0.109 A 
HETATM   21  N   UNL     1       8.139  23.450  56.367  1.00  0.00    -0.234 NA
HETATM   22  C   UNL     1       8.161  22.454  55.366  1.00  0.00     0.074 A 
HETATM   23  C   UNL     1       8.027  22.747  54.005  1.00  0.00     0.061 A 
HETATM   24  C   UNL     1       8.309  21.118  55.745  1.00  0.00     0.032 A 
HETATM   25  C   UNL     1       7.854  24.157  53.628  1.00  0.00     0.259 A 
HETATM   26  C   UNL     1       8.044  21.741  53.034  1.00  0.00     0.019 A 
HETATM   27  O   UNL     1       7.755  24.520  52.463  1.00  0.00    -0.267 OA
HETATM   28  N   UNL     1       7.810  25.045  54.672  1.00  0.00    -0.311 N 
HETATM   29  H   UNL     1       7.691  26.012  54.398  1.00  0.00     0.170 HD
HETATM   30  C   UNL     1       8.194  20.415  53.429  1.00  0.00     0.001 A 
HETATM   31  C   UNL     1       8.325  20.102  54.783  1.00  0.00     0.002 A 
ENDBRANCH  19  20
ENDBRANCH  18  19
ENDBRANCH  15  18
ENDBRANCH  13  14
ENDBRANCH   6  13
BRANCH   1  32
HETATM   32  C   UNL     1       5.160  31.725  57.957  1.00  0.00     0.006 A 
HETATM   33  C   UNL     1       4.567  30.594  57.357  1.00  0.00     0.077 A 
HETATM   34  C   UNL     1       3.445  30.750  56.536  1.00  0.00     0.037 A 
HETATM   35  C   UNL     1       2.895  32.013  56.322  1.00  0.00     0.003 A 
HETATM   36  C   UNL     1       3.453  33.130  56.933  1.00  0.00     0.001 A 
HETATM   37  C   UNL     1       4.571  32.988  57.753  1.00  0.00     0.012 A 
BRANCH  33  38
HETATM   38  O   UNL     1       5.167  29.389  57.616  1.00  0.00    -0.355 OA
HETATM   39  C   UNL     1       4.842  28.302  56.754  1.00  0.00     0.210 C 
ENDBRANCH  33  38
ENDBRANCH   1  32
TORSDOF 7
ENDMDL
MODEL 4
REMARK VINA RESULT:     -10.1      2.091      4.471
REMARK  7 active torsions:
REMARK  status: ('A' for Active; 'I' for Inactive)
REMARK    1  A    between atoms: O_2  and  C_3 
REMARK    2  A    between atoms: C_4  and  C_5 
REMARK    3  A    between atoms: N_10  and  C_12 
REMARK    4  A    between atoms: C_12  and  C_13 
REMARK       I    between atoms: C_13  and  N_14 
REMARK    5  A    between atoms: N_14  and  C_15 
REMARK    6  A    between atoms: C_15  and  C_16 
REMARK    7  A    between atoms: C_16  and  C_17 
ROOT
HETATM    1  C   UNL     1       6.221  32.032  59.003  1.00  0.00     0.190 C 
HETATM    2  O   UNL     1       4.859  32.152  59.452  1.00  0.00    -0.339 OA
HETATM    3  C   UNL     1       4.148  32.946  58.593  1.00  0.00     0.077 A 
HETATM    4  C   UNL     1       3.822  32.495  57.310  1.00  0.00     0.001 A 
HETATM    5  C   UNL     1       4.195  31.113  56.866  1.00  0.00     0.276 C 
HETATM    6  N   UNL     1       5.680  30.887  56.777  1.00  0.00    -0.056 N 
HETATM    7  H   UNL     1       6.096  31.711  56.309  1.00  0.00     0.280 HD
HETATM    8  C   UNL     1       6.366  30.758  58.142  1.00  0.00     0.273 C 
HETATM    9  C   UNL     1       3.750  34.201  59.046  1.00  0.00     0.037 A 
HETATM   10  C   UNL     1       3.045  35.047  58.195  1.00  0.00     0.003 A 
HETATM   11  C   UNL     1       2.732  34.629  56.903  1.00  0.00     0.001 A 
HETATM   12  C   UNL     1       3.113  33.359  56.462  1.00  0.00     0.012 A 
ENDROOT
BRANCH   6  13
HETATM   13  C   UNL     1       6.037  29.710  55.872  1.00  0.00     0.337 C 
BRANCH  13  14
HETATM   14  C   UNL     1       5.845  28.394  56.626  1.00  0.00     0.243 C 
HETATM   15  N   UNL     1       6.989  27.803  57.100  1.00  0.00    -0.359 N 
HETATM   16  H   UNL     1       7.889  28.124  56.752  1.00  0.00     0.162 HD
HETATM   17  O   UNL     1       4.724  27.889  56.688  1.00  0.00    -0.272 OA
BRANCH  15  18
HETATM   18  C   UNL     1       6.983  26.418  57.544  1.00  0.00     0.130 C 
BRANCH  18  19
HETATM   19  C   UNL     1       8.353  25.750  57.410  1.00  0.00     0.098 C 
BRANCH  19  20
HETATM   20  C   UNL     1       8.277  24.430  56.670  1.00  0.00     0.109 A 
HETATM   21  N   UNL     1       8.094  24.394  55.383  1.00  0.00    -0.234 NA
HETATM   22  C   UNL     1       8.041  23.122  54.772  1.00  0.00     0.074 A 
HETATM   23  C   UNL     1       8.133  21.930  55.498  1.00  0.00     0.061 A 
HETATM   24  C   UNL     1       7.902  23.044  53.384  1.00  0.00     0.032 A 
HETATM   25  C   UNL     1       8.297  22.034  56.955  1.00  0.00     0.259 A 
HETATM   26  C   UNL     1       8.085  20.683  54.868  1.00  0.00     0.019 A 
HETATM   27  O   UNL     1       8.360  21.051  57.682  1.00  0.00    -0.267 OA
HETATM   28  N   UNL     1       8.374  23.310  57.450  1.00  0.00    -0.311 N 
HETATM   29  H   UNL     1       8.486  23.367  58.454  1.00  0.00     0.170 HD
HETATM   30  C   UNL     1       7.945  20.623  53.484  1.00  0.00     0.001 A 
HETATM   31  C   UNL     1       7.855  21.801  52.742  1.00  0.00     0.002 A 
ENDBRANCH  19  20
ENDBRANCH  18  19
ENDBRANCH  15  18
ENDBRANCH  13  14
ENDBRANCH   6  13
BRANCH   1  32
HETATM   32  C   UNL     1       7.109  31.992  60.239  1.00  0.00     0.006 A 
HETATM   33  C   UNL     1       8.509  32.111  60.113  1.00  0.00     0.077 A 
HETATM   34  C   UNL     1       9.317  32.059  61.254  1.00  0.00     0.037 A 
HETATM   35  C   UNL     1       8.748  31.909  62.518  1.00  0.00     0.003 A 
HETATM   36  C   UNL     1       7.367  31.823  62.656  1.00  0.00     0.001 A 
HETATM   37  C   UNL     1       6.551  31.873  61.527  1.00  0.00     0.012 A 
BRANCH  33  38
HETATM   38  O   UNL     1       8.990  32.254  58.838  1.00  0.00    -0.355 OA
HETATM   39  C   UNL     1      10.204  31.578  58.521  1.00  0.00     0.210 C 
ENDBRANCH  33  38
ENDBRANCH   1  32
TORSDOF 7
ENDMDL
MODEL 5
REMARK VINA RESULT:     -10.0      2.025      3.791
REMARK  7 active torsions:
REMARK  status: ('A' for Active; 'I' for Inactive)
REMARK    1  A    between atoms: O_2  and  C_3 
REMARK    2  A    between atoms: C_4  and  C_5 
REMARK    3  A    between atoms: N_10  and  C_12 
REMARK    4  A    between atoms: C_12  and  C_13 
REMARK       I    between atoms: C_13  and  N_14 
REMARK    5  A    between atoms: N_14  and  C_15 
REMARK    6  A    between atoms: C_15  and  C_16 
REMARK    7  A    between atoms: C_16  and  C_17 
ROOT
HETATM    1  C   UNL     1       6.647  32.801  60.791  1.00  0.00     0.190 C 
HETATM    2  O   UNL     1       5.307  32.334  60.552  1.00  0.00    -0.339 OA
HETATM    3  C   UNL     1       4.912  32.667  59.284  1.00  0.00     0.077 A 
HETATM    4  C   UNL     1       5.471  32.029  58.172  1.00  0.00     0.001 A 
HETATM    5  C   UNL     1       6.475  30.928  58.345  1.00  0.00     0.276 C 
HETATM    6  N   UNL     1       7.764  31.381  58.975  1.00  0.00    -0.056 N 
HETATM    7  H   UNL     1       8.042  32.269  58.522  1.00  0.00     0.280 HD
HETATM    8  C   UNL     1       7.647  31.667  60.477  1.00  0.00     0.273 C 
HETATM    9  C   UNL     1       3.928  33.642  59.144  1.00  0.00     0.037 A 
HETATM   10  C   UNL     1       3.515  34.025  57.871  1.00  0.00     0.003 A 
HETATM   11  C   UNL     1       4.078  33.421  56.747  1.00  0.00     0.001 A 
HETATM   12  C   UNL     1       5.047  32.425  56.894  1.00  0.00     0.012 A 
ENDROOT
BRANCH   6  13
HETATM   13  C   UNL     1       8.920  30.424  58.689  1.00  0.00     0.337 C 
BRANCH  13  14
HETATM   14  C   UNL     1       8.614  29.595  57.442  1.00  0.00     0.243 C 
HETATM   15  N   UNL     1       8.045  28.366  57.665  1.00  0.00    -0.359 N 
HETATM   16  H   UNL     1       8.059  27.981  58.606  1.00  0.00     0.162 HD
HETATM   17  O   UNL     1       8.971  30.006  56.338  1.00  0.00    -0.272 OA
BRANCH  15  18
HETATM   18  C   UNL     1       8.001  27.363  56.613  1.00  0.00     0.130 C 
BRANCH  18  19
HETATM   19  C   UNL     1       7.467  26.017  57.104  1.00  0.00     0.098 C 
BRANCH  19  20
HETATM   20  C   UNL     1       7.597  24.932  56.054  1.00  0.00     0.109 A 
HETATM   21  N   UNL     1       7.684  23.679  56.392  1.00  0.00    -0.234 NA
HETATM   22  C   UNL     1       7.798  22.734  55.350  1.00  0.00     0.074 A 
HETATM   23  C   UNL     1       7.859  23.098  54.001  1.00  0.00     0.061 A 
HETATM   24  C   UNL     1       7.838  21.375  55.672  1.00  0.00     0.032 A 
HETATM   25  C   UNL     1       7.798  24.532  53.682  1.00  0.00     0.259 A 
HETATM   26  C   UNL     1       7.964  22.141  52.987  1.00  0.00     0.019 A 
HETATM   27  O   UNL     1       7.871  24.955  52.536  1.00  0.00    -0.267 OA
HETATM   28  N   UNL     1       7.652  25.369  54.758  1.00  0.00    -0.311 N 
HETATM   29  H   UNL     1       7.612  26.352  54.524  1.00  0.00     0.170 HD
HETATM   30  C   UNL     1       8.004  20.791  53.325  1.00  0.00     0.001 A 
HETATM   31  C   UNL     1       7.940  20.407  54.666  1.00  0.00     0.002 A 
ENDBRANCH  19  20
ENDBRANCH  18  19
ENDBRANCH  15  18
ENDBRANCH  13  14
ENDBRANCH   6  13
BRANCH   1  32
HETATM   32  C   UNL     1       6.724  33.247  62.244  1.00  0.00     0.006 A 
HETATM   33  C   UNL     1       6.052  34.413  62.666  1.00  0.00     0.077 A 
HETATM   34  C   UNL     1       6.141  34.822  64.001  1.00  0.00     0.037 A 
HETATM   35  C   UNL     1       6.872  34.075  64.924  1.00  0.00     0.003 A 
HETATM   36  C   UNL     1       7.512  32.907  64.525  1.00  0.00     0.001 A 
HETATM   37  C   UNL     1       7.431  32.489  63.198  1.00  0.00     0.012 A 
BRANCH  33  38
HETATM   38  O   UNL     1       5.356  35.092  61.700  1.00  0.00    -0.355 OA
HETATM   39  C   UNL     1       5.182  36.494  61.887  1.00  0.00     0.210 C 
ENDBRANCH  33  38
ENDBRANCH   1  32
TORSDOF 7
ENDMDL
MODEL 6
REMARK VINA RESULT:     -10.0      1.498      1.970
REMARK  7 active torsions:
REMARK  status: ('A' for Active; 'I' for Inactive)
REMARK    1  A    between atoms: O_2  and  C_3 
REMARK    2  A    between atoms: C_4  and  C_5 
REMARK    3  A    between atoms: N_10  and  C_12 
REMARK    4  A    between atoms: C_12  and  C_13 
REMARK       I    between atoms: C_13  and  N_14 
REMARK    5  A    between atoms: N_14  and  C_15 
REMARK    6  A    between atoms: C_15  and  C_16 
REMARK    7  A    between atoms: C_16  and  C_17 
ROOT
HETATM    1  C   UNL     1       4.701  33.016  60.209  1.00  0.00     0.190 C 
HETATM    2  O   UNL     1       5.742  33.895  60.674  1.00  0.00    -0.339 OA
HETATM    3  C   UNL     1       6.602  33.214  61.492  1.00  0.00     0.077 A 
HETATM    4  C   UNL     1       7.471  32.250  60.970  1.00  0.00     0.001 A 
HETATM    5  C   UNL     1       7.520  31.981  59.496  1.00  0.00     0.276 C 
HETATM    6  N   UNL     1       6.242  31.406  58.946  1.00  0.00    -0.056 N 
HETATM    7  H   UNL     1       5.923  30.668  59.597  1.00  0.00     0.280 HD
HETATM    8  C   UNL     1       5.104  32.428  58.838  1.00  0.00     0.273 C 
HETATM    9  C   UNL     1       6.593  33.526  62.849  1.00  0.00     0.037 A 
HETATM   10  C   UNL     1       7.437  32.840  63.718  1.00  0.00     0.003 A 
HETATM   11  C   UNL     1       8.293  31.857  63.224  1.00  0.00     0.001 A 
HETATM   12  C   UNL     1       8.316  31.566  61.857  1.00  0.00     0.012 A 
ENDROOT
BRANCH   6  13
HETATM   13  C   UNL     1       6.455  30.683  57.618  1.00  0.00     0.337 C 
BRANCH  13  14
HETATM   14  C   UNL     1       7.388  29.488  57.816  1.00  0.00     0.243 C 
HETATM   15  N   UNL     1       7.581  28.690  56.716  1.00  0.00    -0.359 N 
HETATM   16  H   UNL     1       6.952  28.786  55.923  1.00  0.00     0.162 HD
HETATM   17  O   UNL     1       7.830  29.245  58.939  1.00  0.00    -0.272 OA
BRANCH  15  18
HETATM   18  C   UNL     1       8.173  27.369  56.849  1.00  0.00     0.130 C 
BRANCH  18  19
HETATM   19  C   UNL     1       7.125  26.259  56.945  1.00  0.00     0.098 C 
BRANCH  19  20
HETATM   20  C   UNL     1       7.353  25.165  55.922  1.00  0.00     0.109 A 
HETATM   21  N   UNL     1       7.441  23.919  56.282  1.00  0.00    -0.234 NA
HETATM   22  C   UNL     1       7.650  22.964  55.264  1.00  0.00     0.074 A 
HETATM   23  C   UNL     1       7.803  23.314  53.919  1.00  0.00     0.061 A 
HETATM   24  C   UNL     1       7.694  21.610  55.606  1.00  0.00     0.032 A 
HETATM   25  C   UNL     1       7.736  24.742  53.577  1.00  0.00     0.259 A 
HETATM   26  C   UNL     1       8.000  22.347  52.928  1.00  0.00     0.019 A 
HETATM   27  O   UNL     1       7.884  25.153  52.434  1.00  0.00    -0.267 OA
HETATM   28  N   UNL     1       7.495  25.588  54.628  1.00  0.00    -0.311 N 
HETATM   29  H   UNL     1       7.452  26.568  54.379  1.00  0.00     0.170 HD
HETATM   30  C   UNL     1       8.043  21.003  53.285  1.00  0.00     0.001 A 
HETATM   31  C   UNL     1       7.889  20.633  54.623  1.00  0.00     0.002 A 
ENDBRANCH  19  20
ENDBRANCH  18  19
ENDBRANCH  15  18
ENDBRANCH  13  14
ENDBRANCH   6  13
BRANCH   1  32
HETATM   32  C   UNL     1       3.417  33.829  60.128  1.00  0.00     0.006 A 
HETATM   33  C   UNL     1       2.603  33.986  61.270  1.00  0.00     0.077 A 
HETATM   34  C   UNL     1       1.417  34.723  61.181  1.00  0.00     0.037 A 
HETATM   35  C   UNL     1       1.042  35.321  59.979  1.00  0.00     0.003 A 
HETATM   36  C   UNL     1       1.854  35.198  58.856  1.00  0.00     0.001 A 
HETATM   37  C   UNL     1       3.038  34.466  58.931  1.00  0.00     0.012 A 
BRANCH  33  38
HETATM   38  O   UNL     1       3.039  33.367  62.412  1.00  0.00    -0.355 OA
HETATM   39  C   UNL     1       3.145  34.168  63.586  1.00  0.00     0.210 C 
ENDBRANCH  33  38
ENDBRANCH   1  32
TORSDOF 7
ENDMDL
MODEL 7
REMARK VINA RESULT:     -10.0      2.872      5.392
REMARK  7 active torsions:
REMARK  status: ('A' for Active; 'I' for Inactive)
REMARK    1  A    between atoms: O_2  and  C_3 
REMARK    2  A    between atoms: C_4  and  C_5 
REMARK    3  A    between atoms: N_10  and  C_12 
REMARK    4  A    between atoms: C_12  and  C_13 
REMARK       I    between atoms: C_13  and  N_14 
REMARK    5  A    between atoms: N_14  and  C_15 
REMARK    6  A    between atoms: C_15  and  C_16 
REMARK    7  A    between atoms: C_16  and  C_17 
ROOT
HETATM    1  C   UNL     1       6.842  30.681  57.743  1.00  0.00     0.190 C 
HETATM    2  O   UNL     1       5.490  30.937  58.163  1.00  0.00    -0.339 OA
HETATM    3  C   UNL     1       4.724  31.302  57.089  1.00  0.00     0.077 A 
HETATM    4  C   UNL     1       4.379  30.367  56.107  1.00  0.00     0.001 A 
HETATM    5  C   UNL     1       4.793  28.932  56.239  1.00  0.00     0.276 C 
HETATM    6  N   UNL     1       6.282  28.726  56.185  1.00  0.00    -0.056 N 
HETATM    7  H   UNL     1       6.653  29.303  55.410  1.00  0.00     0.280 HD
HETATM    8  C   UNL     1       7.011  29.172  57.458  1.00  0.00     0.273 C 
HETATM    9  C   UNL     1       4.290  32.624  57.018  1.00  0.00     0.037 A 
HETATM   10  C   UNL     1       3.529  33.041  55.930  1.00  0.00     0.003 A 
HETATM   11  C   UNL     1       3.195  32.131  54.927  1.00  0.00     0.001 A 
HETATM   12  C   UNL     1       3.613  30.801  55.015  1.00  0.00     0.012 A 
ENDROOT
BRANCH   6  13
HETATM   13  C   UNL     1       6.659  27.293  55.813  1.00  0.00     0.337 C 
BRANCH  13  14
HETATM   14  C   UNL     1       6.791  27.165  54.296  1.00  0.00     0.243 C 
HETATM   15  N   UNL     1       6.204  26.058  53.735  1.00  0.00    -0.359 N 
HETATM   16  H   UNL     1       5.920  25.292  54.341  1.00  0.00     0.162 HD
HETATM   17  O   UNL     1       7.479  27.977  53.677  1.00  0.00    -0.272 OA
BRANCH  15  18
HETATM   18  C   UNL     1       6.523  25.653  52.376  1.00  0.00     0.130 C 
BRANCH  18  19
HETATM   19  C   UNL     1       7.885  24.966  52.269  1.00  0.00     0.098 C 
BRANCH  19  20
HETATM   20  C   UNL     1       7.995  23.766  53.188  1.00  0.00     0.109 A 
HETATM   21  N   UNL     1       8.139  23.915  54.472  1.00  0.00    -0.234 NA
HETATM   22  C   UNL     1       8.228  22.744  55.254  1.00  0.00     0.074 A 
HETATM   23  C   UNL     1       8.210  21.460  54.699  1.00  0.00     0.061 A 
HETATM   24  C   UNL     1       8.326  22.865  56.642  1.00  0.00     0.032 A 
HETATM   25  C   UNL     1       8.088  21.354  53.238  1.00  0.00     0.259 A 
HETATM   26  C   UNL     1       8.292  20.315  55.498  1.00  0.00     0.019 A 
HETATM   27  O   UNL     1       8.090  20.279  52.654  1.00  0.00    -0.267 OA
HETATM   28  N   UNL     1       7.972  22.545  52.569  1.00  0.00    -0.311 N 
HETATM   29  H   UNL     1       7.889  22.458  51.564  1.00  0.00     0.170 HD
HETATM   30  C   UNL     1       8.391  20.453  56.879  1.00  0.00     0.001 A 
HETATM   31  C   UNL     1       8.407  21.726  57.452  1.00  0.00     0.002 A 
ENDBRANCH  19  20
ENDBRANCH  18  19
ENDBRANCH  15  18
ENDBRANCH  13  14
ENDBRANCH   6  13
BRANCH   1  32
HETATM   32  C   UNL     1       7.765  31.161  58.854  1.00  0.00     0.006 A 
HETATM   33  C   UNL     1       9.157  31.236  58.638  1.00  0.00     0.077 A 
HETATM   34  C   UNL     1       9.999  31.664  59.670  1.00  0.00     0.037 A 
HETATM   35  C   UNL     1       9.470  32.039  60.905  1.00  0.00     0.003 A 
HETATM   36  C   UNL     1       8.097  31.999  61.118  1.00  0.00     0.001 A 
HETATM   37  C   UNL     1       7.248  31.573  60.097  1.00  0.00     0.012 A 
BRANCH  33  38
HETATM   38  O   UNL     1       9.598  30.850  57.399  1.00  0.00    -0.355 OA
HETATM   39  C   UNL     1      10.837  30.149  57.338  1.00  0.00     0.210 C 
ENDBRANCH  33  38
ENDBRANCH   1  32
TORSDOF 7
ENDMDL
MODEL 8
REMARK VINA RESULT:      -9.7      2.960      5.113
REMARK  7 active torsions:
REMARK  status: ('A' for Active; 'I' for Inactive)
REMARK    1  A    between atoms: O_2  and  C_3 
REMARK    2  A    between atoms: C_4  and  C_5 
REMARK    3  A    between atoms: N_10  and  C_12 
REMARK    4  A    between atoms: C_12  and  C_13 
REMARK       I    between atoms: C_13  and  N_14 
REMARK    5  A    between atoms: N_14  and  C_15 
REMARK    6  A    between atoms: C_15  and  C_16 
REMARK    7  A    between atoms: C_16  and  C_17 
ROOT
HETATM    1  C   UNL     1       6.380  30.817  57.442  1.00  0.00     0.190 C 
HETATM    2  O   UNL     1       5.284  31.750  57.446  1.00  0.00    -0.339 OA
HETATM    3  C   UNL     1       4.824  31.941  56.171  1.00  0.00     0.077 A 
HETATM    4  C   UNL     1       4.128  30.927  55.504  1.00  0.00     0.001 A 
HETATM    5  C   UNL     1       3.822  29.630  56.191  1.00  0.00     0.276 C 
HETATM    6  N   UNL     1       5.047  28.826  56.536  1.00  0.00    -0.056 N 
HETATM    7  H   UNL     1       5.676  28.842  55.715  1.00  0.00     0.280 HD
HETATM    8  C   UNL     1       5.843  29.395  57.717  1.00  0.00     0.273 C 
HETATM    9  C   UNL     1       5.057  33.178  55.575  1.00  0.00     0.037 A 
HETATM   10  C   UNL     1       4.624  33.404  54.271  1.00  0.00     0.003 A 
HETATM   11  C   UNL     1       3.951  32.398  53.578  1.00  0.00     0.001 A 
HETATM   12  C   UNL     1       3.699  31.168  54.191  1.00  0.00     0.012 A 
ENDROOT
BRANCH   6  13
HETATM   13  C   UNL     1       4.731  27.348  56.751  1.00  0.00     0.337 C 
BRANCH  13  14
HETATM   14  C   UNL     1       5.370  26.510  55.644  1.00  0.00     0.243 C 
HETATM   15  N   UNL     1       5.812  27.206  54.547  1.00  0.00    -0.359 N 
HETATM   16  H   UNL     1       5.507  28.167  54.418  1.00  0.00     0.162 HD
HETATM   17  O   UNL     1       5.371  25.283  55.736  1.00  0.00    -0.272 OA
BRANCH  15  18
HETATM   18  C   UNL     1       6.140  26.516  53.309  1.00  0.00     0.130 C 
BRANCH  18  19
HETATM   19  C   UNL     1       7.625  26.169  53.203  1.00  0.00     0.098 C 
BRANCH  19  20
HETATM   20  C   UNL     1       7.935  24.796  53.765  1.00  0.00     0.109 A 
HETATM   21  N   UNL     1       7.864  23.734  53.017  1.00  0.00    -0.234 NA
HETATM   22  C   UNL     1       8.173  22.496  53.619  1.00  0.00     0.074 A 
HETATM   23  C   UNL     1       8.503  22.375  54.973  1.00  0.00     0.061 A 
HETATM   24  C   UNL     1       8.163  21.341  52.834  1.00  0.00     0.032 A 
HETATM   25  C   UNL     1       8.526  23.604  55.779  1.00  0.00     0.259 A 
HETATM   26  C   UNL     1       8.813  21.137  55.544  1.00  0.00     0.019 A 
HETATM   27  O   UNL     1       8.776  23.602  56.977  1.00  0.00    -0.267 OA
HETATM   28  N   UNL     1       8.247  24.760  55.097  1.00  0.00    -0.311 N 
HETATM   29  H   UNL     1       8.266  25.599  55.663  1.00  0.00     0.170 HD
HETATM   30  C   UNL     1       8.797  19.995  54.748  1.00  0.00     0.001 A 
HETATM   31  C   UNL     1       8.473  20.096  53.393  1.00  0.00     0.002 A 
ENDBRANCH  19  20
ENDBRANCH  18  19
ENDBRANCH  15  18
ENDBRANCH  13  14
ENDBRANCH   6  13
BRANCH   1  32
HETATM   32  C   UNL     1       7.371  31.270  58.505  1.00  0.00     0.006 A 
HETATM   33  C   UNL     1       8.726  30.886  58.423  1.00  0.00     0.077 A 
HETATM   34  C   UNL     1       9.626  31.295  59.413  1.00  0.00     0.037 A 
HETATM   35  C   UNL     1       9.198  32.098  60.470  1.00  0.00     0.003 A 
HETATM   36  C   UNL     1       7.872  32.508  60.543  1.00  0.00     0.001 A 
HETATM   37  C   UNL     1       6.966  32.106  59.563  1.00  0.00     0.012 A 
BRANCH  33  38
HETATM   38  O   UNL     1       9.067  30.097  57.355  1.00  0.00    -0.355 OA
HETATM   39  C   UNL     1      10.428  30.121  56.937  1.00  0.00     0.210 C 
ENDBRANCH  33  38
ENDBRANCH   1  32
TORSDOF 7
ENDMDL
MODEL 9
REMARK VINA RESULT:      -9.7      2.363     10.009
REMARK  7 active torsions:
REMARK  status: ('A' for Active; 'I' for Inactive)
REMARK    1  A    between atoms: O_2  and  C_3 
REMARK    2  A    between atoms: C_4  and  C_5 
REMARK    3  A    between atoms: N_10  and  C_12 
REMARK    4  A    between atoms: C_12  and  C_13 
REMARK       I    between atoms: C_13  and  N_14 
REMARK    5  A    between atoms: N_14  and  C_15 
REMARK    6  A    between atoms: C_15  and  C_16 
REMARK    7  A    between atoms: C_16  and  C_17 
ROOT
HETATM    1  C   UNL     1       6.121  27.262  54.719  1.00  0.00     0.190 C 
HETATM    2  O   UNL     1       5.518  25.964  54.866  1.00  0.00    -0.339 OA
HETATM    3  C   UNL     1       6.485  24.995  54.892  1.00  0.00     0.077 A 
HETATM    4  C   UNL     1       7.336  24.866  55.994  1.00  0.00     0.001 A 
HETATM    5  C   UNL     1       7.173  25.749  57.194  1.00  0.00     0.276 C 
HETATM    6  N   UNL     1       7.440  27.204  56.915  1.00  0.00    -0.056 N 
HETATM    7  H   UNL     1       8.299  27.262  56.342  1.00  0.00     0.280 HD
HETATM    8  C   UNL     1       6.326  27.891  56.115  1.00  0.00     0.273 C 
HETATM    9  C   UNL     1       6.577  24.138  53.798  1.00  0.00     0.037 A 
HETATM   10  C   UNL     1       7.562  23.155  53.776  1.00  0.00     0.003 A 
HETATM   11  C   UNL     1       8.438  23.025  54.853  1.00  0.00     0.001 A 
HETATM   12  C   UNL     1       8.325  23.872  55.958  1.00  0.00     0.012 A 
ENDROOT
BRANCH   6  13
HETATM   13  C   UNL     1       7.767  27.990  58.182  1.00  0.00     0.337 C 
BRANCH  13  14
HETATM   14  C   UNL     1       7.645  29.490  57.913  1.00  0.00     0.243 C 
HETATM   15  N   UNL     1       6.493  30.087  58.361  1.00  0.00    -0.359 N 
HETATM   16  H   UNL     1       5.709  29.499  58.633  1.00  0.00     0.162 HD
HETATM   17  O   UNL     1       8.508  30.057  57.244  1.00  0.00    -0.272 OA
BRANCH  15  18
HETATM   18  C   UNL     1       6.112  31.411  57.898  1.00  0.00     0.130 C 
BRANCH  18  19
HETATM   19  C   UNL     1       4.873  31.952  58.614  1.00  0.00     0.098 C 
BRANCH  19  20
HETATM   20  C   UNL     1       5.147  32.272  60.070  1.00  0.00     0.109 A 
HETATM   21  N   UNL     1       6.352  32.212  60.554  1.00  0.00    -0.234 NA
HETATM   22  C   UNL     1       6.519  32.530  61.919  1.00  0.00     0.074 A 
HETATM   23  C   UNL     1       5.447  32.858  62.755  1.00  0.00     0.061 A 
HETATM   24  C   UNL     1       7.806  32.531  62.461  1.00  0.00     0.032 A 
HETATM   25  C   UNL     1       4.102  32.869  62.162  1.00  0.00     0.259 A 
HETATM   26  C   UNL     1       5.639  33.177  64.103  1.00  0.00     0.019 A 
HETATM   27  O   UNL     1       3.096  33.116  62.814  1.00  0.00    -0.267 OA
HETATM   28  N   UNL     1       4.047  32.581  60.823  1.00  0.00    -0.311 N 
HETATM   29  H   UNL     1       3.115  32.591  60.427  1.00  0.00     0.170 HD
HETATM   30  C   UNL     1       6.929  33.172  64.627  1.00  0.00     0.001 A 
HETATM   31  C   UNL     1       8.012  32.851  63.808  1.00  0.00     0.002 A 
ENDBRANCH  19  20
ENDBRANCH  18  19
ENDBRANCH  15  18
ENDBRANCH  13  14
ENDBRANCH   6  13
BRANCH   1  32
HETATM   32  C   UNL     1       5.200  28.099  53.843  1.00  0.00     0.006 A 
HETATM   33  C   UNL     1       5.207  27.933  52.442  1.00  0.00     0.077 A 
HETATM   34  C   UNL     1       4.367  28.717  51.645  1.00  0.00     0.037 A 
HETATM   35  C   UNL     1       3.507  29.649  52.225  1.00  0.00     0.003 A 
HETATM   36  C   UNL     1       3.470  29.798  53.607  1.00  0.00     0.001 A 
HETATM   37  C   UNL     1       4.302  29.023  54.412  1.00  0.00     0.012 A 
BRANCH  33  38
HETATM   38  O   UNL     1       6.080  26.998  51.950  1.00  0.00    -0.355 OA
HETATM   39  C   UNL     1       5.608  26.154  50.903  1.00  0.00     0.210 C 
ENDBRANCH  33  38
ENDBRANCH   1  32
TORSDOF 7
ENDMDL
MODEL 10
REMARK VINA RESULT:      -9.7      2.231     11.185
REMARK  7 active torsions:
REMARK  status: ('A' for Active; 'I' for Inactive)
REMARK    1  A    between atoms: O_2  and  C_3 
REMARK    2  A    between atoms: C_4  and  C_5 
REMARK    3  A    between atoms: N_10  and  C_12 
REMARK    4  A    between atoms: C_12  and  C_13 
REMARK       I    between atoms: C_13  and  N_14 
REMARK    5  A    between atoms: N_14  and  C_15 
REMARK    6  A    between atoms: C_15  and  C_16 
REMARK    7  A    between atoms: C_16  and  C_17 
ROOT
HETATM    1  C   UNL     1       6.910  25.067  53.831  1.00  0.00     0.190 C 
HETATM    2  O   UNL     1       7.273  25.473  52.499  1.00  0.00    -0.339 OA
HETATM    3  C   UNL     1       6.317  26.307  51.984  1.00  0.00     0.077 A 
HETATM    4  C   UNL     1       6.163  27.606  52.478  1.00  0.00     0.001 A 
HETATM    5  C   UNL     1       7.077  28.134  53.543  1.00  0.00     0.276 C 
HETATM    6  N   UNL     1       6.951  27.413  54.858  1.00  0.00    -0.056 N 
HETATM    7  H   UNL     1       5.943  27.290  55.055  1.00  0.00     0.280 HD
HETATM    8  C   UNL     1       7.576  26.012  54.854  1.00  0.00     0.273 C 
HETATM    9  C   UNL     1       5.523  25.824  50.948  1.00  0.00     0.037 A 
HETATM   10  C   UNL     1       4.525  26.633  50.412  1.00  0.00     0.003 A 
HETATM   11  C   UNL     1       4.336  27.923  50.907  1.00  0.00     0.001 A 
HETATM   12  C   UNL     1       5.153  28.411  51.930  1.00  0.00     0.012 A 
ENDROOT
BRANCH   6  13
HETATM   13  C   UNL     1       7.475  28.242  56.029  1.00  0.00     0.337 C 
BRANCH  13  14
HETATM   14  C   UNL     1       6.334  29.045  56.652  1.00  0.00     0.243 C 
HETATM   15  N   UNL     1       6.708  30.060  57.498  1.00  0.00    -0.359 N 
HETATM   16  H   UNL     1       7.665  30.089  57.837  1.00  0.00     0.162 HD
HETATM   17  O   UNL     1       5.170  28.697  56.455  1.00  0.00    -0.272 OA
BRANCH  15  18
HETATM   18  C   UNL     1       5.742  30.681  58.389  1.00  0.00     0.130 C 
BRANCH  18  19
HETATM   19  C   UNL     1       6.075  32.142  58.695  1.00  0.00     0.098 C 
BRANCH  19  20
HETATM   20  C   UNL     1       6.474  32.348  60.142  1.00  0.00     0.109 A 
HETATM   21  N   UNL     1       6.043  33.373  60.817  1.00  0.00    -0.234 NA
HETATM   22  C   UNL     1       6.460  33.485  62.160  1.00  0.00     0.074 A 
HETATM   23  C   UNL     1       7.335  32.574  62.760  1.00  0.00     0.061 A 
HETATM   24  C   UNL     1       5.972  34.542  62.933  1.00  0.00     0.032 A 
HETATM   25  C   UNL     1       7.823  31.459  61.935  1.00  0.00     0.259 A 
HETATM   26  C   UNL     1       7.726  32.703  64.096  1.00  0.00     0.019 A 
HETATM   27  O   UNL     1       8.612  30.624  62.358  1.00  0.00    -0.267 OA
HETATM   28  N   UNL     1       7.334  31.415  60.656  1.00  0.00    -0.311 N 
HETATM   29  H   UNL     1       7.678  30.643  60.099  1.00  0.00     0.170 HD
HETATM   30  C   UNL     1       7.232  33.763  64.852  1.00  0.00     0.001 A 
HETATM   31  C   UNL     1       6.355  34.682  64.272  1.00  0.00     0.002 A 
ENDBRANCH  19  20
ENDBRANCH  18  19
ENDBRANCH  15  18
ENDBRANCH  13  14
ENDBRANCH   6  13
BRANCH   1  32
HETATM   32  C   UNL     1       7.359  23.623  54.008  1.00  0.00     0.006 A 
HETATM   33  C   UNL     1       7.449  23.060  55.299  1.00  0.00     0.077 A 
HETATM   34  C   UNL     1       7.877  21.737  55.452  1.00  0.00     0.037 A 
HETATM   35  C   UNL     1       8.197  20.963  54.337  1.00  0.00     0.003 A 
HETATM   36  C   UNL     1       8.082  21.499  53.059  1.00  0.00     0.001 A 
HETATM   37  C   UNL     1       7.657  22.816  52.893  1.00  0.00     0.012 A 
BRANCH  33  38
HETATM   38  O   UNL     1       7.119  23.885  56.342  1.00  0.00    -0.355 OA
HETATM   39  C   UNL     1       8.099  24.073  57.359  1.00  0.00     0.210 C 
ENDBRANCH  33  38
ENDBRANCH   1  32
TORSDOF 7
ENDMDL
