MODEL 1
REMARK VINA RESULT:      -7.7      0.000      0.000
REMARK  5 active torsions:
REMARK  status: ('A' for Active; 'I' for Inactive)
REMARK    1  A    between atoms: C_2  and  N_3 
REMARK    2  A    between atoms: N_3  and  C_6 
REMARK    3  A    between atoms: C_6  and  C_7 
REMARK    4  A    between atoms: C_8  and  N_9 
REMARK       I    between atoms: N_9  and  C_10 
REMARK    5  A    between atoms: C_10  and  C_11 
ROOT
HETATM    1  N   UNL     1       7.745  24.570  53.482  1.00  0.00    -0.326 N 
HETATM    2  C   UNL     1       6.524  25.218  53.335  1.00  0.00     0.231 C 
HETATM    3  O   UNL     1       5.434  24.756  53.659  1.00  0.00    -0.272 OA
HETATM    4  H   UNL     1       8.541  25.101  53.165  1.00  0.00     0.169 HD
ENDROOT
BRANCH   1   5
HETATM    5  C   UNL     1       7.978  23.238  53.903  1.00  0.00     0.042 A 
HETATM    6  C   UNL     1       8.403  22.994  55.231  1.00  0.00    -0.006 A 
HETATM    7  C   UNL     1       8.661  21.669  55.641  1.00  0.00     0.011 A 
HETATM    8  C   UNL     1       8.503  20.604  54.759  1.00  0.00     0.001 A 
HETATM    9  C   UNL     1       8.075  20.844  53.462  1.00  0.00     0.002 A 
HETATM   10  C   UNL     1       7.814  22.149  53.038  1.00  0.00     0.030 A 
BRANCH   6  11
HETATM   11  C   UNL     1       8.503  24.076  56.272  1.00  0.00     0.273 C 
BRANCH  11  12
HETATM   12  N   UNL     1       7.237  24.187  57.058  1.00  0.00    -0.072 N 
HETATM   13  H   UNL     1       7.389  23.734  57.971  1.00  0.00     0.277 HD
HETATM   14  H   UNL     1       6.507  23.622  56.600  1.00  0.00     0.277 HD
BRANCH  12  15
HETATM   15  C   UNL     1       6.747  25.579  57.255  1.00  0.00     0.228 C 
HETATM   16  C   UNL     1       5.256  25.621  56.989  1.00  0.00     0.034 C 
ENDBRANCH  12  15
ENDBRANCH  11  12
ENDBRANCH   6  11
ENDBRANCH   1   5
BRANCH   2  17
HETATM   17  C   UNL     1       6.618  26.681  52.882  1.00  0.00     0.122 C 
HETATM   18  C   UNL     1       6.724  27.693  54.003  1.00  0.00    -0.028 A 
HETATM   19  C   UNL     1       5.524  28.344  54.315  1.00  0.00     0.007 A 
HETATM   20  C   UNL     1       7.873  27.954  54.742  1.00  0.00     0.009 A 
HETATM   21  C   UNL     1       5.449  29.261  55.349  1.00  0.00     0.019 A 
HETATM   22  S   UNL     1       4.188  27.789  53.299  1.00  0.00    -0.128 SA
HETATM   23  C   UNL     1       6.603  29.531  56.086  1.00  0.00     0.001 A 
HETATM   24  C   UNL     1       7.806  28.879  55.786  1.00  0.00     0.001 A 
HETATM   25  C   UNL     1       5.348  27.045  52.095  1.00  0.00     0.098 C 
ENDBRANCH   2  17
TORSDOF 5
ENDMDL
MODEL 2
REMARK VINA RESULT:      -7.6      3.102      6.544
REMARK  5 active torsions:
REMARK  status: ('A' for Active; 'I' for Inactive)
REMARK    1  A    between atoms: C_2  and  N_3 
REMARK    2  A    between atoms: N_3  and  C_6 
REMARK    3  A    between atoms: C_6  and  C_7 
REMARK    4  A    between atoms: C_8  and  N_9 
REMARK       I    between atoms: N_9  and  C_10 
REMARK    5  A    between atoms: C_10  and  C_11 
ROOT
HETATM    1  N   UNL     1       5.538  26.600  50.410  1.00  0.00    -0.326 N 
HETATM    2  C   UNL     1       5.619  25.756  51.512  1.00  0.00     0.231 C 
HETATM    3  O   UNL     1       4.782  24.912  51.819  1.00  0.00    -0.272 OA
HETATM    4  H   UNL     1       6.318  27.230  50.308  1.00  0.00     0.169 HD
ENDROOT
BRANCH   1   5
HETATM    5  C   UNL     1       4.457  26.753  49.508  1.00  0.00     0.042 A 
HETATM    6  C   UNL     1       3.536  27.811  49.701  1.00  0.00    -0.006 A 
HETATM    7  C   UNL     1       2.444  27.946  48.818  1.00  0.00     0.011 A 
HETATM    8  C   UNL     1       2.262  27.055  47.763  1.00  0.00     0.001 A 
HETATM    9  C   UNL     1       3.173  26.027  47.569  1.00  0.00     0.002 A 
HETATM   10  C   UNL     1       4.260  25.878  48.433  1.00  0.00     0.030 A 
BRANCH   6  11
HETATM   11  C   UNL     1       3.714  28.872  50.753  1.00  0.00     0.273 C 
BRANCH  11  12
HETATM   12  N   UNL     1       2.777  28.658  51.898  1.00  0.00    -0.072 N 
HETATM   13  H   UNL     1       2.093  27.940  51.619  1.00  0.00     0.277 HD
HETATM   14  H   UNL     1       2.220  29.513  52.039  1.00  0.00     0.277 HD
BRANCH  12  15
HETATM   15  C   UNL     1       3.434  28.268  53.176  1.00  0.00     0.228 C 
HETATM   16  C   UNL     1       4.047  29.499  53.813  1.00  0.00     0.034 C 
ENDBRANCH  12  15
ENDBRANCH  11  12
ENDBRANCH   6  11
ENDBRANCH   1   5
BRANCH   2  17
HETATM   17  C   UNL     1       6.949  25.811  52.273  1.00  0.00     0.122 C 
HETATM   18  C   UNL     1       7.267  24.581  53.097  1.00  0.00    -0.028 A 
HETATM   19  C   UNL     1       7.003  24.714  54.466  1.00  0.00     0.007 A 
HETATM   20  C   UNL     1       7.725  23.371  52.588  1.00  0.00     0.009 A 
HETATM   21  C   UNL     1       7.196  23.660  55.343  1.00  0.00     0.019 A 
HETATM   22  S   UNL     1       6.352  26.309  54.862  1.00  0.00    -0.128 SA
HETATM   23  C   UNL     1       7.664  22.448  54.835  1.00  0.00     0.001 A 
HETATM   24  C   UNL     1       7.924  22.303  53.466  1.00  0.00     0.001 A 
HETATM   25  C   UNL     1       6.914  26.990  53.259  1.00  0.00     0.098 C 
ENDBRANCH   2  17
TORSDOF 5
ENDMDL
MODEL 3
REMARK VINA RESULT:      -7.6      2.323      6.593
REMARK  5 active torsions:
REMARK  status: ('A' for Active; 'I' for Inactive)
REMARK    1  A    between atoms: C_2  and  N_3 
REMARK    2  A    between atoms: N_3  and  C_6 
REMARK    3  A    between atoms: C_6  and  C_7 
REMARK    4  A    between atoms: C_8  and  N_9 
REMARK       I    between atoms: N_9  and  C_10 
REMARK    5  A    between atoms: C_10  and  C_11 
ROOT
HETATM    1  N   UNL     1       7.071  26.624  55.740  1.00  0.00    -0.326 N 
HETATM    2  C   UNL     1       6.967  25.238  55.784  1.00  0.00     0.231 C 
HETATM    3  O   UNL     1       5.914  24.611  55.855  1.00  0.00    -0.272 OA
HETATM    4  H   UNL     1       8.016  26.970  55.678  1.00  0.00     0.169 HD
ENDROOT
BRANCH   1   5
HETATM    5  C   UNL     1       6.038  27.580  55.889  1.00  0.00     0.042 A 
HETATM    6  C   UNL     1       5.233  27.914  54.772  1.00  0.00    -0.006 A 
HETATM    7  C   UNL     1       4.222  28.886  54.915  1.00  0.00     0.011 A 
HETATM    8  C   UNL     1       4.005  29.519  56.136  1.00  0.00     0.001 A 
HETATM    9  C   UNL     1       4.786  29.182  57.232  1.00  0.00     0.002 A 
HETATM   10  C   UNL     1       5.792  28.221  57.109  1.00  0.00     0.030 A 
BRANCH   6  11
HETATM   11  C   UNL     1       5.337  27.208  53.447  1.00  0.00     0.273 C 
BRANCH  11  12
HETATM   12  N   UNL     1       4.403  26.043  53.382  1.00  0.00    -0.072 N 
HETATM   13  H   UNL     1       3.476  26.394  53.102  1.00  0.00     0.277 HD
HETATM   14  H   UNL     1       4.268  25.668  54.333  1.00  0.00     0.277 HD
BRANCH  12  15
HETATM   15  C   UNL     1       4.833  24.950  52.466  1.00  0.00     0.228 C 
HETATM   16  C   UNL     1       5.873  25.490  51.505  1.00  0.00     0.034 C 
ENDBRANCH  12  15
ENDBRANCH  11  12
ENDBRANCH   6  11
ENDBRANCH   1   5
BRANCH   2  17
HETATM   17  C   UNL     1       8.282  24.482  55.558  1.00  0.00     0.122 C 
HETATM   18  C   UNL     1       8.159  23.212  54.743  1.00  0.00    -0.028 A 
HETATM   19  C   UNL     1       8.143  22.034  55.500  1.00  0.00     0.007 A 
HETATM   20  C   UNL     1       8.009  23.157  53.362  1.00  0.00     0.009 A 
HETATM   21  C   UNL     1       7.987  20.795  54.902  1.00  0.00     0.019 A 
HETATM   22  S   UNL     1       8.265  22.361  57.233  1.00  0.00    -0.128 SA
HETATM   23  C   UNL     1       7.845  20.738  53.515  1.00  0.00     0.001 A 
HETATM   24  C   UNL     1       7.853  21.912  52.750  1.00  0.00     0.001 A 
HETATM   25  C   UNL     1       8.859  24.063  56.920  1.00  0.00     0.098 C 
ENDBRANCH   2  17
TORSDOF 5
ENDMDL
MODEL 4
REMARK VINA RESULT:      -7.4      1.890      3.517
REMARK  5 active torsions:
REMARK  status: ('A' for Active; 'I' for Inactive)
REMARK    1  A    between atoms: C_2  and  N_3 
REMARK    2  A    between atoms: N_3  and  C_6 
REMARK    3  A    between atoms: C_6  and  C_7 
REMARK    4  A    between atoms: C_8  and  N_9 
REMARK       I    between atoms: N_9  and  C_10 
REMARK    5  A    between atoms: C_10  and  C_11 
ROOT
HETATM    1  N   UNL     1       6.245  24.366  53.442  1.00  0.00    -0.326 N 
HETATM    2  C   UNL     1       6.294  25.215  52.341  1.00  0.00     0.231 C 
HETATM    3  O   UNL     1       7.220  25.278  51.538  1.00  0.00    -0.272 OA
HETATM    4  H   UNL     1       5.405  24.444  53.993  1.00  0.00     0.169 HD
ENDROOT
BRANCH   1   5
HETATM    5  C   UNL     1       7.265  23.514  53.930  1.00  0.00     0.042 A 
HETATM    6  C   UNL     1       7.967  23.873  55.106  1.00  0.00    -0.006 A 
HETATM    7  C   UNL     1       9.001  23.036  55.576  1.00  0.00     0.011 A 
HETATM    8  C   UNL     1       9.339  21.868  54.900  1.00  0.00     0.001 A 
HETATM    9  C   UNL     1       8.642  21.511  53.754  1.00  0.00     0.002 A 
HETATM   10  C   UNL     1       7.614  22.327  53.275  1.00  0.00     0.030 A 
BRANCH   6  11
HETATM   11  C   UNL     1       7.600  25.065  55.948  1.00  0.00     0.273 C 
BRANCH  11  12
HETATM   12  N   UNL     1       6.723  24.668  57.092  1.00  0.00    -0.072 N 
HETATM   13  H   UNL     1       7.194  24.946  57.965  1.00  0.00     0.277 HD
HETATM   14  H   UNL     1       6.673  23.639  57.134  1.00  0.00     0.277 HD
BRANCH  12  15
HETATM   15  C   UNL     1       5.348  25.238  57.049  1.00  0.00     0.228 C 
HETATM   16  C   UNL     1       5.435  26.719  56.743  1.00  0.00     0.034 C 
ENDBRANCH  12  15
ENDBRANCH  11  12
ENDBRANCH   6  11
ENDBRANCH   1   5
BRANCH   2  17
HETATM   17  C   UNL     1       5.000  25.990  52.063  1.00  0.00     0.122 C 
HETATM   18  C   UNL     1       4.926  26.646  50.701  1.00  0.00    -0.028 A 
HETATM   19  C   UNL     1       5.208  28.017  50.699  1.00  0.00     0.007 A 
HETATM   20  C   UNL     1       4.667  25.985  49.505  1.00  0.00     0.009 A 
HETATM   21  C   UNL     1       5.229  28.748  49.524  1.00  0.00     0.019 A 
HETATM   22  S   UNL     1       5.587  28.616  52.319  1.00  0.00    -0.128 SA
HETATM   23  C   UNL     1       4.961  28.088  48.324  1.00  0.00     0.001 A 
HETATM   24  C   UNL     1       4.684  26.714  48.314  1.00  0.00     0.001 A 
HETATM   25  C   UNL     1       4.864  27.124  53.093  1.00  0.00     0.098 C 
ENDBRANCH   2  17
TORSDOF 5
ENDMDL
MODEL 5
REMARK VINA RESULT:      -7.4      2.231      6.230
REMARK  5 active torsions:
REMARK  status: ('A' for Active; 'I' for Inactive)
REMARK    1  A    between atoms: C_2  and  N_3 
REMARK    2  A    between atoms: N_3  and  C_6 
REMARK    3  A    between atoms: C_6  and  C_7 
REMARK    4  A    between atoms: C_8  and  N_9 
REMARK       I    between atoms: N_9  and  C_10 
REMARK    5  A    between atoms: C_10  and  C_11 
ROOT
HETATM    1  N   UNL     1       6.369  26.339  52.021  1.00  0.00    -0.326 N 
HETATM    2  C   UNL     1       6.286  25.190  52.800  1.00  0.00     0.231 C 
HETATM    3  O   UNL     1       5.312  24.445  52.861  1.00  0.00    -0.272 OA
HETATM    4  H   UNL     1       7.248  26.828  52.090  1.00  0.00     0.169 HD
ENDROOT
BRANCH   1   5
HETATM    5  C   UNL     1       5.345  26.946  51.255  1.00  0.00     0.042 A 
HETATM    6  C   UNL     1       4.598  28.011  51.815  1.00  0.00    -0.006 A 
HETATM    7  C   UNL     1       3.560  28.597  51.061  1.00  0.00     0.011 A 
HETATM    8  C   UNL     1       3.263  28.145  49.779  1.00  0.00     0.001 A 
HETATM    9  C   UNL     1       4.004  27.110  49.227  1.00  0.00     0.002 A 
HETATM   10  C   UNL     1       5.037  26.517  49.959  1.00  0.00     0.030 A 
BRANCH   6  11
HETATM   11  C   UNL     1       4.918  28.623  53.152  1.00  0.00     0.273 C 
BRANCH  11  12
HETATM   12  N   UNL     1       4.104  28.000  54.239  1.00  0.00    -0.072 N 
HETATM   13  H   UNL     1       3.673  27.143  53.862  1.00  0.00     0.277 HD
HETATM   14  H   UNL     1       3.311  28.619  54.462  1.00  0.00     0.277 HD
BRANCH  12  15
HETATM   15  C   UNL     1       4.862  27.686  55.482  1.00  0.00     0.228 C 
HETATM   16  C   UNL     1       5.940  28.731  55.682  1.00  0.00     0.034 C 
ENDBRANCH  12  15
ENDBRANCH  11  12
ENDBRANCH   6  11
ENDBRANCH   1   5
BRANCH   2  17
HETATM   17  C   UNL     1       7.594  24.778  53.488  1.00  0.00     0.122 C 
HETATM   18  C   UNL     1       7.739  23.295  53.753  1.00  0.00    -0.028 A 
HETATM   19  C   UNL     1       7.460  22.909  55.070  1.00  0.00     0.007 A 
HETATM   20  C   UNL     1       8.059  22.337  52.798  1.00  0.00     0.009 A 
HETATM   21  C   UNL     1       7.501  21.580  55.456  1.00  0.00     0.019 A 
HETATM   22  S   UNL     1       6.998  24.286  56.078  1.00  0.00    -0.128 SA
HETATM   23  C   UNL     1       7.830  20.618  54.500  1.00  0.00     0.001 A 
HETATM   24  C   UNL     1       8.105  20.994  53.179  1.00  0.00     0.001 A 
HETATM   25  C   UNL     1       7.678  25.469  54.859  1.00  0.00     0.098 C 
ENDBRANCH   2  17
TORSDOF 5
ENDMDL
MODEL 6
REMARK VINA RESULT:      -7.2      2.063      3.607
REMARK  5 active torsions:
REMARK  status: ('A' for Active; 'I' for Inactive)
REMARK    1  A    between atoms: C_2  and  N_3 
REMARK    2  A    between atoms: N_3  and  C_6 
REMARK    3  A    between atoms: C_6  and  C_7 
REMARK    4  A    between atoms: C_8  and  N_9 
REMARK       I    between atoms: N_9  and  C_10 
REMARK    5  A    between atoms: C_10  and  C_11 
ROOT
HETATM    1  N   UNL     1       7.395  25.242  55.616  1.00  0.00    -0.326 N 
HETATM    2  C   UNL     1       8.037  25.663  56.776  1.00  0.00     0.231 C 
HETATM    3  O   UNL     1       8.981  25.087  57.310  1.00  0.00    -0.272 OA
HETATM    4  H   UNL     1       6.641  25.840  55.316  1.00  0.00     0.169 HD
ENDROOT
BRANCH   1   5
HETATM    5  C   UNL     1       7.597  24.039  54.897  1.00  0.00     0.042 A 
HETATM    6  C   UNL     1       7.842  24.095  53.503  1.00  0.00    -0.006 A 
HETATM    7  C   UNL     1       8.016  22.895  52.784  1.00  0.00     0.011 A 
HETATM    8  C   UNL     1       7.951  21.661  53.424  1.00  0.00     0.001 A 
HETATM    9  C   UNL     1       7.723  21.608  54.792  1.00  0.00     0.002 A 
HETATM   10  C   UNL     1       7.549  22.787  55.521  1.00  0.00     0.030 A 
BRANCH   6  11
HETATM   11  C   UNL     1       8.024  25.388  52.754  1.00  0.00     0.273 C 
BRANCH  11  12
HETATM   12  N   UNL     1       6.870  25.649  51.842  1.00  0.00    -0.072 N 
HETATM   13  H   UNL     1       6.592  24.754  51.416  1.00  0.00     0.277 HD
HETATM   14  H   UNL     1       7.191  26.229  51.053  1.00  0.00     0.277 HD
BRANCH  12  15
HETATM   15  C   UNL     1       5.695  26.292  52.493  1.00  0.00     0.228 C 
HETATM   16  C   UNL     1       4.700  25.220  52.887  1.00  0.00     0.034 C 
ENDBRANCH  12  15
ENDBRANCH  11  12
ENDBRANCH   6  11
ENDBRANCH   1   5
BRANCH   2  17
HETATM   17  C   UNL     1       7.603  27.040  57.293  1.00  0.00     0.122 C 
HETATM   18  C   UNL     1       6.435  27.661  56.557  1.00  0.00    -0.028 A 
HETATM   19  C   UNL     1       6.792  28.634  55.615  1.00  0.00     0.007 A 
HETATM   20  C   UNL     1       5.103  27.296  56.713  1.00  0.00     0.009 A 
HETATM   21  C   UNL     1       5.840  29.259  54.827  1.00  0.00     0.019 A 
HETATM   22  S   UNL     1       8.543  28.869  55.537  1.00  0.00    -0.128 SA
HETATM   23  C   UNL     1       4.501  28.899  54.988  1.00  0.00     0.001 A 
HETATM   24  C   UNL     1       4.136  27.922  55.923  1.00  0.00     0.001 A 
HETATM   25  C   UNL     1       8.776  28.024  57.144  1.00  0.00     0.098 C 
ENDBRANCH   2  17
TORSDOF 5
ENDMDL
MODEL 7
REMARK VINA RESULT:      -7.1      2.722      6.151
REMARK  5 active torsions:
REMARK  status: ('A' for Active; 'I' for Inactive)
REMARK    1  A    between atoms: C_2  and  N_3 
REMARK    2  A    between atoms: N_3  and  C_6 
REMARK    3  A    between atoms: C_6  and  C_7 
REMARK    4  A    between atoms: C_8  and  N_9 
REMARK       I    between atoms: N_9  and  C_10 
REMARK    5  A    between atoms: C_10  and  C_11 
ROOT
HETATM    1  N   UNL     1       7.977  27.810  56.406  1.00  0.00    -0.326 N 
HETATM    2  C   UNL     1       7.532  27.622  55.101  1.00  0.00     0.231 C 
HETATM    3  O   UNL     1       7.935  28.240  54.121  1.00  0.00    -0.272 OA
HETATM    4  H   UNL     1       7.537  27.211  57.087  1.00  0.00     0.169 HD
ENDROOT
BRANCH   1   5
HETATM    5  C   UNL     1       8.865  28.801  56.888  1.00  0.00     0.042 A 
HETATM    6  C   UNL     1       8.360  29.861  57.679  1.00  0.00    -0.006 A 
HETATM    7  C   UNL     1       9.241  30.863  58.136  1.00  0.00     0.011 A 
HETATM    8  C   UNL     1      10.596  30.822  57.820  1.00  0.00     0.001 A 
HETATM    9  C   UNL     1      11.091  29.776  57.055  1.00  0.00     0.002 A 
HETATM   10  C   UNL     1      10.233  28.775  56.594  1.00  0.00     0.030 A 
BRANCH   6  11
HETATM   11  C   UNL     1       6.930  29.927  58.146  1.00  0.00     0.273 C 
BRANCH  11  12
HETATM   12  N   UNL     1       6.180  31.007  57.437  1.00  0.00    -0.072 N 
HETATM   13  H   UNL     1       6.832  31.786  57.264  1.00  0.00     0.277 HD
HETATM   14  H   UNL     1       5.467  31.394  58.073  1.00  0.00     0.277 HD
BRANCH  12  15
HETATM   15  C   UNL     1       5.539  30.584  56.160  1.00  0.00     0.228 C 
HETATM   16  C   UNL     1       4.555  29.469  56.446  1.00  0.00     0.034 C 
ENDBRANCH  12  15
ENDBRANCH  11  12
ENDBRANCH   6  11
ENDBRANCH   1   5
BRANCH   2  17
HETATM   17  C   UNL     1       6.586  26.430  54.905  1.00  0.00     0.122 C 
HETATM   18  C   UNL     1       7.264  25.130  54.529  1.00  0.00    -0.028 A 
HETATM   19  C   UNL     1       7.204  24.815  53.166  1.00  0.00     0.007 A 
HETATM   20  C   UNL     1       7.958  24.304  55.407  1.00  0.00     0.009 A 
HETATM   21  C   UNL     1       7.820  23.683  52.659  1.00  0.00     0.019 A 
HETATM   22  S   UNL     1       6.343  26.051  52.240  1.00  0.00    -0.128 SA
HETATM   23  C   UNL     1       8.510  22.849  53.540  1.00  0.00     0.001 A 
HETATM   24  C   UNL     1       8.581  23.159  54.904  1.00  0.00     0.001 A 
HETATM   25  C   UNL     1       5.608  26.749  53.763  1.00  0.00     0.098 C 
ENDBRANCH   2  17
TORSDOF 5
ENDMDL
MODEL 8
REMARK VINA RESULT:      -6.9      2.351      6.912
REMARK  5 active torsions:
REMARK  status: ('A' for Active; 'I' for Inactive)
REMARK    1  A    between atoms: C_2  and  N_3 
REMARK    2  A    between atoms: N_3  and  C_6 
REMARK    3  A    between atoms: C_6  and  C_7 
REMARK    4  A    between atoms: C_8  and  N_9 
REMARK       I    between atoms: N_9  and  C_10 
REMARK    5  A    between atoms: C_10  and  C_11 
ROOT
HETATM    1  N   UNL     1       6.668  26.622  53.979  1.00  0.00    -0.326 N 
HETATM    2  C   UNL     1       6.632  25.297  54.402  1.00  0.00     0.231 C 
HETATM    3  O   UNL     1       5.612  24.635  54.566  1.00  0.00    -0.272 OA
HETATM    4  H   UNL     1       7.595  27.008  53.894  1.00  0.00     0.169 HD
ENDROOT
BRANCH   1   5
HETATM    5  C   UNL     1       5.577  27.501  53.776  1.00  0.00     0.042 A 
HETATM    6  C   UNL     1       4.952  27.550  52.506  1.00  0.00    -0.006 A 
HETATM    7  C   UNL     1       3.882  28.445  52.297  1.00  0.00     0.011 A 
HETATM    8  C   UNL     1       3.435  29.277  53.319  1.00  0.00     0.001 A 
HETATM    9  C   UNL     1       4.040  29.218  54.566  1.00  0.00     0.002 A 
HETATM   10  C   UNL     1       5.100  28.337  54.792  1.00  0.00     0.030 A 
BRANCH   6  11
HETATM   11  C   UNL     1       5.310  26.618  51.379  1.00  0.00     0.273 C 
BRANCH  11  12
HETATM   12  N   UNL     1       5.745  27.379  50.169  1.00  0.00    -0.072 N 
HETATM   13  H   UNL     1       6.635  26.976  49.843  1.00  0.00     0.277 HD
HETATM   14  H   UNL     1       5.976  28.345  50.444  1.00  0.00     0.277 HD
BRANCH  12  15
HETATM   15  C   UNL     1       4.756  27.396  49.055  1.00  0.00     0.228 C 
HETATM   16  C   UNL     1       4.068  26.048  48.984  1.00  0.00     0.034 C 
ENDBRANCH  12  15
ENDBRANCH  11  12
ENDBRANCH   6  11
ENDBRANCH   1   5
BRANCH   2  17
HETATM   17  C   UNL     1       8.001  24.611  54.498  1.00  0.00     0.122 C 
HETATM   18  C   UNL     1       7.994  23.125  54.209  1.00  0.00    -0.028 A 
HETATM   19  C   UNL     1       8.016  22.311  55.348  1.00  0.00     0.007 A 
HETATM   20  C   UNL     1       7.909  22.554  52.944  1.00  0.00     0.009 A 
HETATM   21  C   UNL     1       7.964  20.931  55.249  1.00  0.00     0.019 A 
HETATM   22  S   UNL     1       8.040  23.261  56.839  1.00  0.00    -0.128 SA
HETATM   23  C   UNL     1       7.888  20.356  53.980  1.00  0.00     0.001 A 
HETATM   24  C   UNL     1       7.858  21.163  52.835  1.00  0.00     0.001 A 
HETATM   25  C   UNL     1       8.541  24.767  55.929  1.00  0.00     0.098 C 
ENDBRANCH   2  17
TORSDOF 5
ENDMDL
MODEL 9
REMARK VINA RESULT:      -6.8      2.015      3.466
REMARK  5 active torsions:
REMARK  status: ('A' for Active; 'I' for Inactive)
REMARK    1  A    between atoms: C_2  and  N_3 
REMARK    2  A    between atoms: N_3  and  C_6 
REMARK    3  A    between atoms: C_6  and  C_7 
REMARK    4  A    between atoms: C_8  and  N_9 
REMARK       I    between atoms: N_9  and  C_10 
REMARK    5  A    between atoms: C_10  and  C_11 
ROOT
HETATM    1  N   UNL     1       7.739  26.016  54.804  1.00  0.00    -0.326 N 
HETATM    2  C   UNL     1       6.951  26.756  55.679  1.00  0.00     0.231 C 
HETATM    3  O   UNL     1       6.341  26.298  56.640  1.00  0.00    -0.272 OA
HETATM    4  H   UNL     1       8.171  26.557  54.071  1.00  0.00     0.169 HD
ENDROOT
BRANCH   1   5
HETATM    5  C   UNL     1       7.901  24.610  54.756  1.00  0.00     0.042 A 
HETATM    6  C   UNL     1       7.384  23.888  53.653  1.00  0.00    -0.006 A 
HETATM    7  C   UNL     1       7.522  22.485  53.620  1.00  0.00     0.011 A 
HETATM    8  C   UNL     1       8.159  21.804  54.653  1.00  0.00     0.001 A 
HETATM    9  C   UNL     1       8.676  22.514  55.727  1.00  0.00     0.002 A 
HETATM   10  C   UNL     1       8.549  23.905  55.776  1.00  0.00     0.030 A 
BRANCH   6  11
HETATM   11  C   UNL     1       6.770  24.555  52.451  1.00  0.00     0.273 C 
BRANCH  11  12
HETATM   12  N   UNL     1       5.295  24.719  52.620  1.00  0.00    -0.072 N 
HETATM   13  H   UNL     1       5.008  24.181  53.451  1.00  0.00     0.277 HD
HETATM   14  H   UNL     1       4.814  24.263  51.831  1.00  0.00     0.277 HD
BRANCH  12  15
HETATM   15  C   UNL     1       4.835  26.130  52.742  1.00  0.00     0.228 C 
HETATM   16  C   UNL     1       5.717  27.014  51.885  1.00  0.00     0.034 C 
ENDBRANCH  12  15
ENDBRANCH  11  12
ENDBRANCH   6  11
ENDBRANCH   1   5
BRANCH   2  17
HETATM   17  C   UNL     1       7.017  28.276  55.481  1.00  0.00     0.122 C 
HETATM   18  C   UNL     1       7.828  29.022  56.519  1.00  0.00    -0.028 A 
HETATM   19  C   UNL     1       7.066  29.644  57.515  1.00  0.00     0.007 A 
HETATM   20  C   UNL     1       9.216  29.071  56.569  1.00  0.00     0.009 A 
HETATM   21  C   UNL     1       7.664  30.325  58.562  1.00  0.00     0.019 A 
HETATM   22  S   UNL     1       5.333  29.375  57.287  1.00  0.00    -0.128 SA
HETATM   23  C   UNL     1       9.058  30.382  58.609  1.00  0.00     0.001 A 
HETATM   24  C   UNL     1       9.829  29.757  57.620  1.00  0.00     0.001 A 
HETATM   25  C   UNL     1       5.593  28.852  55.553  1.00  0.00     0.098 C 
ENDBRANCH   2  17
TORSDOF 5
ENDMDL
MODEL 10
REMARK VINA RESULT:      -6.8      2.410      6.312
REMARK  5 active torsions:
REMARK  status: ('A' for Active; 'I' for Inactive)
REMARK    1  A    between atoms: C_2  and  N_3 
REMARK    2  A    between atoms: N_3  and  C_6 
REMARK    3  A    between atoms: C_6  and  C_7 
REMARK    4  A    between atoms: C_8  and  N_9 
REMARK       I    between atoms: N_9  and  C_10 
REMARK    5  A    between atoms: C_10  and  C_11 
ROOT
HETATM    1  N   UNL     1       6.276  27.054  56.093  1.00  0.00    -0.326 N 
HETATM    2  C   UNL     1       6.722  26.699  54.824  1.00  0.00     0.231 C 
HETATM    3  O   UNL     1       7.601  27.281  54.195  1.00  0.00    -0.272 OA
HETATM    4  H   UNL     1       5.550  26.461  56.461  1.00  0.00     0.169 HD
ENDROOT
BRANCH   1   5
HETATM    5  C   UNL     1       6.633  28.194  56.853  1.00  0.00     0.042 A 
HETATM    6  C   UNL     1       5.896  29.393  56.697  1.00  0.00    -0.006 A 
HETATM    7  C   UNL     1       6.270  30.535  57.435  1.00  0.00     0.011 A 
HETATM    8  C   UNL     1       7.350  30.498  58.312  1.00  0.00     0.001 A 
HETATM    9  C   UNL     1       8.064  29.319  58.473  1.00  0.00     0.002 A 
HETATM   10  C   UNL     1       7.707  28.178  57.751  1.00  0.00     0.030 A 
BRANCH   6  11
HETATM   11  C   UNL     1       4.659  29.489  55.845  1.00  0.00     0.273 C 
BRANCH  11  12
HETATM   12  N   UNL     1       4.986  29.979  54.472  1.00  0.00    -0.072 N 
HETATM   13  H   UNL     1       5.831  29.486  54.152  1.00  0.00     0.277 HD
HETATM   14  H   UNL     1       5.262  30.970  54.527  1.00  0.00     0.277 HD
BRANCH  12  15
HETATM   15  C   UNL     1       3.891  29.815  53.476  1.00  0.00     0.228 C 
HETATM   16  C   UNL     1       3.676  28.339  53.214  1.00  0.00     0.034 C 
ENDBRANCH  12  15
ENDBRANCH  11  12
ENDBRANCH   6  11
ENDBRANCH   1   5
BRANCH   2  17
HETATM   17  C   UNL     1       6.158  25.377  54.286  1.00  0.00     0.122 C 
HETATM   18  C   UNL     1       7.015  24.159  54.555  1.00  0.00    -0.028 A 
HETATM   19  C   UNL     1       7.791  23.742  53.467  1.00  0.00     0.007 A 
HETATM   20  C   UNL     1       7.114  23.501  55.776  1.00  0.00     0.009 A 
HETATM   21  C   UNL     1       8.663  22.671  53.571  1.00  0.00     0.019 A 
HETATM   22  S   UNL     1       7.558  24.778  52.053  1.00  0.00    -0.128 SA
HETATM   23  C   UNL     1       8.757  22.005  54.794  1.00  0.00     0.001 A 
HETATM   24  C   UNL     1       7.990  22.419  55.890  1.00  0.00     0.001 A 
HETATM   25  C   UNL     1       6.021  25.477  52.758  1.00  0.00     0.098 C 
ENDBRANCH   2  17
TORSDOF 5
ENDMDL
