MODEL 1
REMARK VINA RESULT:      -9.0      0.000      0.000
REMARK  5 active torsions:
REMARK  status: ('A' for Active; 'I' for Inactive)
REMARK    1  A    between atoms: C_8  and  C_9 
REMARK    2  A    between atoms: N_10  and  N_11 
REMARK       I    between atoms: N_11  and  C_12 
REMARK    3  A    between atoms: C_12  and  C_13 
REMARK    4  A    between atoms: C_13  and  N_14 
REMARK    5  A    between atoms: N_14  and  C_15 
ROOT
HETATM    1  N   UNL     1       6.962  26.297  57.368  1.00  0.00    -0.246 N 
HETATM    2  C   UNL     1       6.127  27.269  56.819  1.00  0.00     0.250 C 
HETATM    3  O   UNL     1       5.346  27.098  55.885  1.00  0.00    -0.270 OA
HETATM    4  H   UNL     1       7.374  26.475  58.279  1.00  0.00     0.192 HD
ENDROOT
BRANCH   1   5
HETATM    5  N   UNL     1       6.990  24.969  57.008  1.00  0.00    -0.184 NA
HETATM    6  C   UNL     1       8.134  24.358  57.000  1.00  0.00     0.152 C 
BRANCH   6   7
HETATM    7  C   UNL     1       8.202  22.966  56.596  1.00  0.00     0.011 A 
HETATM    8  C   UNL     1       8.133  22.458  55.258  1.00  0.00     0.004 A 
HETATM    9  C   UNL     1       7.986  23.051  53.986  1.00  0.00     0.014 A 
HETATM   10  C   UNL     1       8.248  21.068  55.333  1.00  0.00     0.043 A 
HETATM   11  C   UNL     1       7.964  22.241  52.844  1.00  0.00     0.001 A 
HETATM   12  C   UNL     1       8.084  20.858  52.953  1.00  0.00     0.002 A 
HETATM   13  C   UNL     1       8.227  20.244  54.200  1.00  0.00     0.030 A 
HETATM   14  N   UNL     1       8.372  20.743  56.663  1.00  0.00    -0.364 N 
HETATM   15  H   UNL     1       8.466  19.802  57.017  1.00  0.00     0.165 HD
HETATM   16  C   UNL     1       8.347  21.875  57.432  1.00  0.00     0.102 A 
ENDBRANCH   6   7
ENDBRANCH   1   5
BRANCH   2  17
HETATM   17  C   UNL     1       6.318  28.644  57.466  1.00  0.00     0.197 C 
BRANCH  17  18
HETATM   18  N   UNL     1       7.388  28.629  58.472  1.00  0.00    -0.283 NA
HETATM   19  H   UNL     1       7.642  27.700  58.807  1.00  0.00     0.128 HD
BRANCH  18  20
HETATM   20  C   UNL     1       8.547  29.374  58.170  1.00  0.00     0.030 A 
HETATM   21  C   UNL     1       8.816  30.594  58.827  1.00  0.00     0.055 A 
HETATM   22 CL   UNL     1       7.771  31.157  60.088  1.00  0.00    -0.082 Cl
HETATM   23  C   UNL     1       9.941  31.359  58.510  1.00  0.00     0.026 A 
HETATM   24  C   UNL     1      10.813  30.932  57.512  1.00  0.00     0.002 A 
HETATM   25  C   UNL     1      10.554  29.744  56.831  1.00  0.00     0.002 A 
HETATM   26  C   UNL     1       9.429  28.979  57.153  1.00  0.00     0.025 A 
ENDBRANCH  18  20
ENDBRANCH  17  18
ENDBRANCH   2  17
TORSDOF 5
ENDMDL
MODEL 2
REMARK VINA RESULT:      -8.8      6.754      8.436
REMARK  5 active torsions:
REMARK  status: ('A' for Active; 'I' for Inactive)
REMARK    1  A    between atoms: C_8  and  C_9 
REMARK    2  A    between atoms: N_10  and  N_11 
REMARK       I    between atoms: N_11  and  C_12 
REMARK    3  A    between atoms: C_12  and  C_13 
REMARK    4  A    between atoms: C_13  and  N_14 
REMARK    5  A    between atoms: N_14  and  C_15 
ROOT
HETATM    1  N   UNL     1       6.014  26.056  50.857  1.00  0.00    -0.246 N 
HETATM    2  C   UNL     1       5.305  27.254  50.775  1.00  0.00     0.250 C 
HETATM    3  O   UNL     1       4.570  27.712  51.648  1.00  0.00    -0.270 OA
HETATM    4  H   UNL     1       6.771  25.899  50.198  1.00  0.00     0.192 HD
ENDROOT
BRANCH   1   5
HETATM    5  N   UNL     1       6.070  25.231  51.956  1.00  0.00    -0.184 NA
HETATM    6  C   UNL     1       7.089  25.332  52.751  1.00  0.00     0.152 C 
BRANCH   6   7
HETATM    7  C   UNL     1       7.193  24.455  53.901  1.00  0.00     0.011 A 
HETATM    8  C   UNL     1       7.532  23.063  53.891  1.00  0.00     0.004 A 
HETATM    9  C   UNL     1       7.847  22.134  52.876  1.00  0.00     0.014 A 
HETATM   10  C   UNL     1       7.524  22.621  55.215  1.00  0.00     0.043 A 
HETATM   11  C   UNL     1       8.145  20.810  53.219  1.00  0.00     0.001 A 
HETATM   12  C   UNL     1       8.131  20.402  54.550  1.00  0.00     0.002 A 
HETATM   13  C   UNL     1       7.819  21.300  55.574  1.00  0.00     0.030 A 
HETATM   14  N   UNL     1       7.185  23.698  56.000  1.00  0.00    -0.364 N 
HETATM   15  H   UNL     1       7.097  23.669  57.006  1.00  0.00     0.165 HD
HETATM   16  C   UNL     1       6.985  24.807  55.222  1.00  0.00     0.102 A 
ENDBRANCH   6   7
ENDBRANCH   1   5
BRANCH   2  17
HETATM   17  C   UNL     1       5.480  27.952  49.424  1.00  0.00     0.197 C 
BRANCH  17  18
HETATM   18  N   UNL     1       4.963  27.136  48.317  1.00  0.00    -0.283 NA
HETATM   19  H   UNL     1       5.027  26.129  48.468  1.00  0.00     0.128 HD
BRANCH  18  20
HETATM   20  C   UNL     1       3.686  27.478  47.827  1.00  0.00     0.030 A 
HETATM   21  C   UNL     1       2.698  26.491  47.626  1.00  0.00     0.055 A 
HETATM   22 CL   UNL     1       3.005  24.844  48.065  1.00  0.00    -0.082 Cl
HETATM   23  C   UNL     1       1.441  26.813  47.105  1.00  0.00     0.026 A 
HETATM   24  C   UNL     1       1.151  28.129  46.755  1.00  0.00     0.002 A 
HETATM   25  C   UNL     1       2.119  29.117  46.920  1.00  0.00     0.002 A 
HETATM   26  C   UNL     1       3.375  28.792  47.444  1.00  0.00     0.025 A 
ENDBRANCH  18  20
ENDBRANCH  17  18
ENDBRANCH   2  17
TORSDOF 5
ENDMDL
MODEL 3
REMARK VINA RESULT:      -8.7      3.032      9.282
REMARK  5 active torsions:
REMARK  status: ('A' for Active; 'I' for Inactive)
REMARK    1  A    between atoms: C_8  and  C_9 
REMARK    2  A    between atoms: N_10  and  N_11 
REMARK       I    between atoms: N_11  and  C_12 
REMARK    3  A    between atoms: C_12  and  C_13 
REMARK    4  A    between atoms: C_13  and  N_14 
REMARK    5  A    between atoms: N_14  and  C_15 
ROOT
HETATM    1  N   UNL     1       8.259  26.922  57.467  1.00  0.00    -0.246 N 
HETATM    2  C   UNL     1       7.589  25.743  57.141  1.00  0.00     0.250 C 
HETATM    3  O   UNL     1       6.439  25.458  57.469  1.00  0.00    -0.270 OA
HETATM    4  H   UNL     1       9.098  27.159  56.946  1.00  0.00     0.192 HD
ENDROOT
BRANCH   1   5
HETATM    5  N   UNL     1       7.715  27.991  58.140  1.00  0.00    -0.184 NA
HETATM    6  C   UNL     1       8.160  29.179  57.870  1.00  0.00     0.152 C 
BRANCH   6   7
HETATM    7  C   UNL     1       7.630  30.325  58.584  1.00  0.00     0.011 A 
HETATM    8  C   UNL     1       8.092  30.843  59.837  1.00  0.00     0.004 A 
HETATM    9  C   UNL     1       9.112  30.473  60.740  1.00  0.00     0.014 A 
HETATM   10  C   UNL     1       7.304  31.954  60.147  1.00  0.00     0.043 A 
HETATM   11  C   UNL     1       9.307  31.221  61.906  1.00  0.00     0.001 A 
HETATM   12  C   UNL     1       8.506  32.325  62.184  1.00  0.00     0.002 A 
HETATM   13  C   UNL     1       7.487  32.712  61.309  1.00  0.00     0.030 A 
HETATM   14  N   UNL     1       6.393  32.100  59.127  1.00  0.00    -0.364 N 
HETATM   15  H   UNL     1       5.688  32.823  59.088  1.00  0.00     0.165 HD
HETATM   16  C   UNL     1       6.579  31.128  58.182  1.00  0.00     0.102 A 
ENDBRANCH   6   7
ENDBRANCH   1   5
BRANCH   2  17
HETATM   17  C   UNL     1       8.468  24.764  56.357  1.00  0.00     0.197 C 
BRANCH  17  18
HETATM   18  N   UNL     1       8.001  23.378  56.498  1.00  0.00    -0.283 NA
HETATM   19  H   UNL     1       7.125  23.276  57.009  1.00  0.00     0.128 HD
BRANCH  18  20
HETATM   20  C   UNL     1       7.976  22.601  55.321  1.00  0.00     0.030 A 
HETATM   21  C   UNL     1       8.218  21.211  55.366  1.00  0.00     0.055 A 
HETATM   22 CL   UNL     1       8.462  20.414  56.884  1.00  0.00    -0.082 Cl
HETATM   23  C   UNL     1       8.232  20.436  54.203  1.00  0.00     0.026 A 
HETATM   24  C   UNL     1       8.024  21.038  52.965  1.00  0.00     0.002 A 
HETATM   25  C   UNL     1       7.810  22.413  52.893  1.00  0.00     0.002 A 
HETATM   26  C   UNL     1       7.793  23.185  54.059  1.00  0.00     0.025 A 
ENDBRANCH  18  20
ENDBRANCH  17  18
ENDBRANCH   2  17
TORSDOF 5
ENDMDL
MODEL 4
REMARK VINA RESULT:      -8.7      2.935      3.964
REMARK  5 active torsions:
REMARK  status: ('A' for Active; 'I' for Inactive)
REMARK    1  A    between atoms: C_8  and  C_9 
REMARK    2  A    between atoms: N_10  and  N_11 
REMARK       I    between atoms: N_11  and  C_12 
REMARK    3  A    between atoms: C_12  and  C_13 
REMARK    4  A    between atoms: C_13  and  N_14 
REMARK    5  A    between atoms: N_14  and  C_15 
ROOT
HETATM    1  N   UNL     1       7.308  28.741  58.032  1.00  0.00    -0.246 N 
HETATM    2  C   UNL     1       8.016  29.826  58.548  1.00  0.00     0.250 C 
HETATM    3  O   UNL     1       9.191  29.808  58.910  1.00  0.00    -0.270 OA
HETATM    4  H   UNL     1       6.437  28.925  57.542  1.00  0.00     0.192 HD
ENDROOT
BRANCH   1   5
HETATM    5  N   UNL     1       7.830  27.497  57.767  1.00  0.00    -0.184 NA
HETATM    6  C   UNL     1       7.378  26.845  56.741  1.00  0.00     0.152 C 
BRANCH   6   7
HETATM    7  C   UNL     1       7.886  25.517  56.452  1.00  0.00     0.011 A 
HETATM    8  C   UNL     1       7.815  24.826  55.199  1.00  0.00     0.004 A 
HETATM    9  C   UNL     1       7.284  25.140  53.930  1.00  0.00     0.014 A 
HETATM   10  C   UNL     1       8.433  23.586  55.371  1.00  0.00     0.043 A 
HETATM   11  C   UNL     1       7.392  24.213  52.887  1.00  0.00     0.001 A 
HETATM   12  C   UNL     1       8.018  22.986  53.091  1.00  0.00     0.002 A 
HETATM   13  C   UNL     1       8.550  22.648  54.338  1.00  0.00     0.030 A 
HETATM   14  N   UNL     1       8.855  23.521  56.678  1.00  0.00    -0.364 N 
HETATM   15  H   UNL     1       9.333  22.731  57.088  1.00  0.00     0.165 HD
HETATM   16  C   UNL     1       8.533  24.676  57.338  1.00  0.00     0.102 A 
ENDBRANCH   6   7
ENDBRANCH   1   5
BRANCH   2  17
HETATM   17  C   UNL     1       7.150  31.081  58.691  1.00  0.00     0.197 C 
BRANCH  17  18
HETATM   18  N   UNL     1       7.864  32.160  59.387  1.00  0.00    -0.283 NA
HETATM   19  H   UNL     1       7.909  33.039  58.871  1.00  0.00     0.128 HD
BRANCH  18  20
HETATM   20  C   UNL     1       7.495  32.396  60.728  1.00  0.00     0.030 A 
HETATM   21  C   UNL     1       8.427  32.236  61.775  1.00  0.00     0.055 A 
HETATM   22 CL   UNL     1      10.075  31.833  61.425  1.00  0.00    -0.082 Cl
HETATM   23  C   UNL     1       8.064  32.432  63.110  1.00  0.00     0.026 A 
HETATM   24  C   UNL     1       6.752  32.772  63.430  1.00  0.00     0.002 A 
HETATM   25  C   UNL     1       5.808  32.910  62.416  1.00  0.00     0.002 A 
HETATM   26  C   UNL     1       6.176  32.717  61.080  1.00  0.00     0.025 A 
ENDBRANCH  18  20
ENDBRANCH  17  18
ENDBRANCH   2  17
TORSDOF 5
ENDMDL
MODEL 5
REMARK VINA RESULT:      -8.6      2.303      3.177
REMARK  5 active torsions:
REMARK  status: ('A' for Active; 'I' for Inactive)
REMARK    1  A    between atoms: C_8  and  C_9 
REMARK    2  A    between atoms: N_10  and  N_11 
REMARK       I    between atoms: N_11  and  C_12 
REMARK    3  A    between atoms: C_12  and  C_13 
REMARK    4  A    between atoms: C_13  and  N_14 
REMARK    5  A    between atoms: N_14  and  C_15 
ROOT
HETATM    1  N   UNL     1       7.161  27.567  56.407  1.00  0.00    -0.246 N 
HETATM    2  C   UNL     1       8.036  28.389  57.117  1.00  0.00     0.250 C 
HETATM    3  O   UNL     1       9.260  28.405  56.997  1.00  0.00    -0.270 OA
HETATM    4  H   UNL     1       6.174  27.806  56.402  1.00  0.00     0.192 HD
ENDROOT
BRANCH   1   5
HETATM    5  N   UNL     1       7.516  26.699  55.401  1.00  0.00    -0.184 NA
HETATM    6  C   UNL     1       7.028  25.498  55.423  1.00  0.00     0.152 C 
BRANCH   6   7
HETATM    7  C   UNL     1       7.407  24.548  54.394  1.00  0.00     0.011 A 
HETATM    8  C   UNL     1       7.616  23.141  54.561  1.00  0.00     0.004 A 
HETATM    9  C   UNL     1       7.545  22.258  55.661  1.00  0.00     0.014 A 
HETATM   10  C   UNL     1       7.958  22.618  53.313  1.00  0.00     0.043 A 
HETATM   11  C   UNL     1       7.812  20.897  55.473  1.00  0.00     0.001 A 
HETATM   12  C   UNL     1       8.147  20.408  54.213  1.00  0.00     0.002 A 
HETATM   13  C   UNL     1       8.227  21.259  53.108  1.00  0.00     0.030 A 
HETATM   14  N   UNL     1       7.965  23.666  52.423  1.00  0.00    -0.364 N 
HETATM   15  H   UNL     1       8.185  23.583  51.440  1.00  0.00     0.165 HD
HETATM   16  C   UNL     1       7.635  24.831  53.061  1.00  0.00     0.102 A 
ENDBRANCH   6   7
ENDBRANCH   1   5
BRANCH   2  17
HETATM   17  C   UNL     1       7.317  29.264  58.147  1.00  0.00     0.197 C 
BRANCH  17  18
HETATM   18  N   UNL     1       7.951  30.583  58.280  1.00  0.00    -0.283 NA
HETATM   19  H   UNL     1       7.550  31.308  57.686  1.00  0.00     0.128 HD
BRANCH  18  20
HETATM   20  C   UNL     1       8.128  31.066  59.594  1.00  0.00     0.030 A 
HETATM   21  C   UNL     1       7.284  32.067  60.117  1.00  0.00     0.055 A 
HETATM   22 CL   UNL     1       5.950  32.662  59.186  1.00  0.00    -0.082 Cl
HETATM   23  C   UNL     1       7.472  32.580  61.404  1.00  0.00     0.026 A 
HETATM   24  C   UNL     1       8.524  32.115  62.189  1.00  0.00     0.002 A 
HETATM   25  C   UNL     1       9.387  31.146  61.684  1.00  0.00     0.002 A 
HETATM   26  C   UNL     1       9.193  30.632  60.397  1.00  0.00     0.025 A 
ENDBRANCH  18  20
ENDBRANCH  17  18
ENDBRANCH   2  17
TORSDOF 5
ENDMDL
MODEL 6
REMARK VINA RESULT:      -8.6      1.897      2.808
REMARK  5 active torsions:
REMARK  status: ('A' for Active; 'I' for Inactive)
REMARK    1  A    between atoms: C_8  and  C_9 
REMARK    2  A    between atoms: N_10  and  N_11 
REMARK       I    between atoms: N_11  and  C_12 
REMARK    3  A    between atoms: C_12  and  C_13 
REMARK    4  A    between atoms: C_13  and  N_14 
REMARK    5  A    between atoms: N_14  and  C_15 
ROOT
HETATM    1  N   UNL     1       6.412  26.719  56.264  1.00  0.00    -0.246 N 
HETATM    2  C   UNL     1       7.153  27.312  57.285  1.00  0.00     0.250 C 
HETATM    3  O   UNL     1       8.016  26.755  57.960  1.00  0.00    -0.270 OA
HETATM    4  H   UNL     1       5.914  27.324  55.617  1.00  0.00     0.192 HD
ENDROOT
BRANCH   1   5
HETATM    5  N   UNL     1       6.581  25.439  55.790  1.00  0.00    -0.184 NA
HETATM    6  C   UNL     1       7.429  25.245  54.829  1.00  0.00     0.152 C 
BRANCH   6   7
HETATM    7  C   UNL     1       7.609  23.912  54.286  1.00  0.00     0.011 A 
HETATM    8  C   UNL     1       7.910  22.719  55.022  1.00  0.00     0.004 A 
HETATM    9  C   UNL     1       8.124  22.432  56.387  1.00  0.00     0.014 A 
HETATM   10  C   UNL     1       7.985  21.670  54.104  1.00  0.00     0.043 A 
HETATM   11  C   UNL     1       8.399  21.118  56.782  1.00  0.00     0.001 A 
HETATM   12  C   UNL     1       8.464  20.094  55.842  1.00  0.00     0.002 A 
HETATM   13  C   UNL     1       8.259  20.350  54.483  1.00  0.00     0.030 A 
HETATM   14  N   UNL     1       7.748  22.203  52.859  1.00  0.00    -0.364 N 
HETATM   15  H   UNL     1       7.746  21.672  51.999  1.00  0.00     0.165 HD
HETATM   16  C   UNL     1       7.520  23.549  52.955  1.00  0.00     0.102 A 
ENDBRANCH   6   7
ENDBRANCH   1   5
BRANCH   2  17
HETATM   17  C   UNL     1       6.739  28.762  57.548  1.00  0.00     0.197 C 
BRANCH  17  18
HETATM   18  N   UNL     1       7.835  29.701  57.272  1.00  0.00    -0.283 NA
HETATM   19  H   UNL     1       7.778  30.164  56.365  1.00  0.00     0.128 HD
BRANCH  18  20
HETATM   20  C   UNL     1       8.130  30.638  58.284  1.00  0.00     0.030 A 
HETATM   21  C   UNL     1       9.459  31.046  58.529  1.00  0.00     0.055 A 
HETATM   22 CL   UNL     1      10.749  30.469  57.528  1.00  0.00    -0.082 Cl
HETATM   23  C   UNL     1       9.768  31.945  59.553  1.00  0.00     0.026 A 
HETATM   24  C   UNL     1       8.755  32.443  60.369  1.00  0.00     0.002 A 
HETATM   25  C   UNL     1       7.439  32.035  60.163  1.00  0.00     0.002 A 
HETATM   26  C   UNL     1       7.133  31.137  59.135  1.00  0.00     0.025 A 
ENDBRANCH  18  20
ENDBRANCH  17  18
ENDBRANCH   2  17
TORSDOF 5
ENDMDL
MODEL 7
REMARK VINA RESULT:      -8.5      5.742      7.625
REMARK  5 active torsions:
REMARK  status: ('A' for Active; 'I' for Inactive)
REMARK    1  A    between atoms: C_8  and  C_9 
REMARK    2  A    between atoms: N_10  and  N_11 
REMARK       I    between atoms: N_11  and  C_12 
REMARK    3  A    between atoms: C_12  and  C_13 
REMARK    4  A    between atoms: C_13  and  N_14 
REMARK    5  A    between atoms: N_14  and  C_15 
ROOT
HETATM    1  N   UNL     1       6.648  26.176  52.635  1.00  0.00    -0.246 N 
HETATM    2  C   UNL     1       5.492  25.953  51.888  1.00  0.00     0.250 C 
HETATM    3  O   UNL     1       4.892  24.883  51.799  1.00  0.00    -0.270 OA
HETATM    4  H   UNL     1       6.914  27.136  52.836  1.00  0.00     0.192 HD
ENDROOT
BRANCH   1   5
HETATM    5  N   UNL     1       7.260  25.259  53.458  1.00  0.00    -0.184 NA
HETATM    6  C   UNL     1       6.672  24.939  54.568  1.00  0.00     0.152 C 
BRANCH   6   7
HETATM    7  C   UNL     1       7.306  23.999  55.473  1.00  0.00     0.011 A 
HETATM    8  C   UNL     1       7.726  22.664  55.166  1.00  0.00     0.004 A 
HETATM    9  C   UNL     1       7.680  21.859  54.007  1.00  0.00     0.014 A 
HETATM   10  C   UNL     1       8.292  22.127  56.324  1.00  0.00     0.043 A 
HETATM   11  C   UNL     1       8.200  20.561  54.047  1.00  0.00     0.001 A 
HETATM   12  C   UNL     1       8.760  20.056  55.217  1.00  0.00     0.002 A 
HETATM   13  C   UNL     1       8.816  20.830  56.379  1.00  0.00     0.030 A 
HETATM   14  N   UNL     1       8.211  23.093  57.299  1.00  0.00    -0.364 N 
HETATM   15  H   UNL     1       8.540  22.979  58.248  1.00  0.00     0.165 HD
HETATM   16  C   UNL     1       7.622  24.223  56.800  1.00  0.00     0.102 A 
ENDBRANCH   6   7
ENDBRANCH   1   5
BRANCH   2  17
HETATM   17  C   UNL     1       5.049  27.191  51.105  1.00  0.00     0.197 C 
BRANCH  17  18
HETATM   18  N   UNL     1       5.403  27.093  49.683  1.00  0.00    -0.283 NA
HETATM   19  H   UNL     1       6.134  26.413  49.474  1.00  0.00     0.128 HD
BRANCH  18  20
HETATM   20  C   UNL     1       4.332  26.957  48.775  1.00  0.00     0.030 A 
HETATM   21  C   UNL     1       3.759  28.087  48.155  1.00  0.00     0.055 A 
HETATM   22 CL   UNL     1       4.421  29.664  48.428  1.00  0.00    -0.082 Cl
HETATM   23  C   UNL     1       2.674  27.968  47.283  1.00  0.00     0.026 A 
HETATM   24  C   UNL     1       2.124  26.715  47.026  1.00  0.00     0.002 A 
HETATM   25  C   UNL     1       2.656  25.587  47.647  1.00  0.00     0.002 A 
HETATM   26  C   UNL     1       3.744  25.710  48.517  1.00  0.00     0.025 A 
ENDBRANCH  18  20
ENDBRANCH  17  18
ENDBRANCH   2  17
TORSDOF 5
ENDMDL
MODEL 8
REMARK VINA RESULT:      -8.3      2.676      4.081
REMARK  5 active torsions:
REMARK  status: ('A' for Active; 'I' for Inactive)
REMARK    1  A    between atoms: C_8  and  C_9 
REMARK    2  A    between atoms: N_10  and  N_11 
REMARK       I    between atoms: N_11  and  C_12 
REMARK    3  A    between atoms: C_12  and  C_13 
REMARK    4  A    between atoms: C_13  and  N_14 
REMARK    5  A    between atoms: N_14  and  C_15 
ROOT
HETATM    1  N   UNL     1       8.209  28.857  57.581  1.00  0.00    -0.246 N 
HETATM    2  C   UNL     1       9.399  29.569  57.724  1.00  0.00     0.250 C 
HETATM    3  O   UNL     1      10.366  29.508  56.966  1.00  0.00    -0.270 OA
HETATM    4  H   UNL     1       7.398  29.164  58.111  1.00  0.00     0.192 HD
ENDROOT
BRANCH   1   5
HETATM    5  N   UNL     1       7.890  28.032  56.527  1.00  0.00    -0.184 NA
HETATM    6  C   UNL     1       7.301  26.906  56.784  1.00  0.00     0.152 C 
BRANCH   6   7
HETATM    7  C   UNL     1       6.980  25.999  55.698  1.00  0.00     0.011 A 
HETATM    8  C   UNL     1       7.604  24.741  55.418  1.00  0.00     0.004 A 
HETATM    9  C   UNL     1       8.646  24.003  56.020  1.00  0.00     0.014 A 
HETATM   10  C   UNL     1       6.978  24.204  54.291  1.00  0.00     0.043 A 
HETATM   11  C   UNL     1       9.018  22.766  55.482  1.00  0.00     0.001 A 
HETATM   12  C   UNL     1       8.371  22.258  54.359  1.00  0.00     0.002 A 
HETATM   13  C   UNL     1       7.339  22.968  53.740  1.00  0.00     0.030 A 
HETATM   14  N   UNL     1       6.017  25.105  53.895  1.00  0.00    -0.364 N 
HETATM   15  H   UNL     1       5.409  24.980  53.098  1.00  0.00     0.165 HD
HETATM   16  C   UNL     1       6.007  26.187  54.733  1.00  0.00     0.102 A 
ENDBRANCH   6   7
ENDBRANCH   1   5
BRANCH   2  17
HETATM   17  C   UNL     1       9.426  30.425  58.993  1.00  0.00     0.197 C 
BRANCH  17  18
HETATM   18  N   UNL     1       8.335  30.072  59.911  1.00  0.00    -0.283 NA
HETATM   19  H   UNL     1       8.443  29.167  60.370  1.00  0.00     0.128 HD
BRANCH  18  20
HETATM   20  C   UNL     1       7.959  31.056  60.849  1.00  0.00     0.030 A 
HETATM   21  C   UNL     1       6.986  32.027  60.530  1.00  0.00     0.055 A 
HETATM   22 CL   UNL     1       6.165  31.975  59.006  1.00  0.00    -0.082 Cl
HETATM   23  C   UNL     1       6.632  33.029  61.438  1.00  0.00     0.026 A 
HETATM   24  C   UNL     1       7.259  33.095  62.680  1.00  0.00     0.002 A 
HETATM   25  C   UNL     1       8.241  32.162  63.007  1.00  0.00     0.002 A 
HETATM   26  C   UNL     1       8.591  31.158  62.098  1.00  0.00     0.025 A 
ENDBRANCH  18  20
ENDBRANCH  17  18
ENDBRANCH   2  17
TORSDOF 5
ENDMDL
MODEL 9
REMARK VINA RESULT:      -8.3      2.609      8.170
REMARK  5 active torsions:
REMARK  status: ('A' for Active; 'I' for Inactive)
REMARK    1  A    between atoms: C_8  and  C_9 
REMARK    2  A    between atoms: N_10  and  N_11 
REMARK       I    between atoms: N_11  and  C_12 
REMARK    3  A    between atoms: C_12  and  C_13 
REMARK    4  A    between atoms: C_13  and  N_14 
REMARK    5  A    between atoms: N_14  and  C_15 
ROOT
HETATM    1  N   UNL     1       6.948  27.492  55.150  1.00  0.00    -0.246 N 
HETATM    2  C   UNL     1       6.343  27.478  53.893  1.00  0.00     0.250 C 
HETATM    3  O   UNL     1       6.296  28.426  53.111  1.00  0.00    -0.270 OA
HETATM    4  H   UNL     1       7.143  26.601  55.599  1.00  0.00     0.192 HD
ENDROOT
BRANCH   1   5
HETATM    5  N   UNL     1       7.661  28.539  55.684  1.00  0.00    -0.184 NA
HETATM    6  C   UNL     1       8.591  28.273  56.548  1.00  0.00     0.152 C 
BRANCH   6   7
HETATM    7  C   UNL     1       9.341  29.357  57.154  1.00  0.00     0.011 A 
HETATM    8  C   UNL     1       8.879  30.257  58.169  1.00  0.00     0.004 A 
HETATM    9  C   UNL     1       7.663  30.410  58.870  1.00  0.00     0.014 A 
HETATM   10  C   UNL     1       9.927  31.132  58.461  1.00  0.00     0.043 A 
HETATM   11  C   UNL     1       7.543  31.418  59.833  1.00  0.00     0.001 A 
HETATM   12  C   UNL     1       8.609  32.272  60.102  1.00  0.00     0.002 A 
HETATM   13  C   UNL     1       9.822  32.146  59.421  1.00  0.00     0.030 A 
HETATM   14  N   UNL     1      10.982  30.784  57.650  1.00  0.00    -0.364 N 
HETATM   15  H   UNL     1      11.877  31.253  57.642  1.00  0.00     0.165 HD
HETATM   16  C   UNL     1      10.642  29.719  56.861  1.00  0.00     0.102 A 
ENDBRANCH   6   7
ENDBRANCH   1   5
BRANCH   2  17
HETATM   17  C   UNL     1       5.657  26.145  53.584  1.00  0.00     0.197 C 
BRANCH  17  18
HETATM   18  N   UNL     1       5.869  25.161  54.654  1.00  0.00    -0.283 NA
HETATM   19  H   UNL     1       5.013  24.750  55.027  1.00  0.00     0.128 HD
BRANCH  18  20
HETATM   20  C   UNL     1       6.827  24.157  54.404  1.00  0.00     0.030 A 
HETATM   21  C   UNL     1       7.750  23.773  55.400  1.00  0.00     0.055 A 
HETATM   22 CL   UNL     1       7.666  24.465  56.986  1.00  0.00    -0.082 Cl
HETATM   23  C   UNL     1       8.728  22.806  55.153  1.00  0.00     0.026 A 
HETATM   24  C   UNL     1       8.818  22.214  53.896  1.00  0.00     0.002 A 
HETATM   25  C   UNL     1       7.935  22.596  52.889  1.00  0.00     0.002 A 
HETATM   26  C   UNL     1       6.955  23.563  53.140  1.00  0.00     0.025 A 
ENDBRANCH  18  20
ENDBRANCH  17  18
ENDBRANCH   2  17
TORSDOF 5
ENDMDL
MODEL 10
REMARK VINA RESULT:      -8.1      2.510      8.439
REMARK  5 active torsions:
REMARK  status: ('A' for Active; 'I' for Inactive)
REMARK    1  A    between atoms: C_8  and  C_9 
REMARK    2  A    between atoms: N_10  and  N_11 
REMARK       I    between atoms: N_11  and  C_12 
REMARK    3  A    between atoms: C_12  and  C_13 
REMARK    4  A    between atoms: C_13  and  N_14 
REMARK    5  A    between atoms: N_14  and  C_15 
ROOT
HETATM    1  N   UNL     1       6.975  26.814  54.485  1.00  0.00    -0.246 N 
HETATM    2  C   UNL     1       6.129  26.193  53.566  1.00  0.00     0.250 C 
HETATM    3  O   UNL     1       4.961  26.506  53.344  1.00  0.00    -0.270 OA
HETATM    4  H   UNL     1       7.974  26.642  54.411  1.00  0.00     0.192 HD
ENDROOT
BRANCH   1   5
HETATM    5  N   UNL     1       6.668  27.926  55.233  1.00  0.00    -0.184 NA
HETATM    6  C   UNL     1       7.068  27.969  56.466  1.00  0.00     0.152 C 
BRANCH   6   7
HETATM    7  C   UNL     1       6.733  29.114  57.290  1.00  0.00     0.011 A 
HETATM    8  C   UNL     1       7.650  29.972  57.980  1.00  0.00     0.004 A 
HETATM    9  C   UNL     1       9.055  30.014  58.105  1.00  0.00     0.014 A 
HETATM   10  C   UNL     1       6.897  30.945  58.641  1.00  0.00     0.043 A 
HETATM   11  C   UNL     1       9.651  31.020  58.873  1.00  0.00     0.001 A 
HETATM   12  C   UNL     1       8.871  31.977  59.517  1.00  0.00     0.002 A 
HETATM   13  C   UNL     1       7.478  31.958  59.413  1.00  0.00     0.030 A 
HETATM   14  N   UNL     1       5.574  30.685  58.371  1.00  0.00    -0.364 N 
HETATM   15  H   UNL     1       4.799  31.228  58.725  1.00  0.00     0.165 HD
HETATM   16  C   UNL     1       5.462  29.588  57.560  1.00  0.00     0.102 A 
ENDBRANCH   6   7
ENDBRANCH   1   5
BRANCH   2  17
HETATM   17  C   UNL     1       6.788  24.998  52.872  1.00  0.00     0.197 C 
BRANCH  17  18
HETATM   18  N   UNL     1       7.939  24.492  53.633  1.00  0.00    -0.283 NA
HETATM   19  H   UNL     1       8.195  25.058  54.441  1.00  0.00     0.128 HD
BRANCH  18  20
HETATM   20  C   UNL     1       7.910  23.125  53.981  1.00  0.00     0.030 A 
HETATM   21  C   UNL     1       7.839  22.722  55.331  1.00  0.00     0.055 A 
HETATM   22 CL   UNL     1       7.692  23.903  56.590  1.00  0.00    -0.082 Cl
HETATM   23  C   UNL     1       7.848  21.372  55.690  1.00  0.00     0.026 A 
HETATM   24  C   UNL     1       7.949  20.392  54.706  1.00  0.00     0.002 A 
HETATM   25  C   UNL     1       8.047  20.766  53.368  1.00  0.00     0.002 A 
HETATM   26  C   UNL     1       8.034  22.119  53.011  1.00  0.00     0.025 A 
ENDBRANCH  18  20
ENDBRANCH  17  18
ENDBRANCH   2  17
TORSDOF 5
ENDMDL
