MODEL 1
REMARK VINA RESULT:      -9.3      0.000      0.000
REMARK  8 active torsions:
REMARK  status: ('A' for Active; 'I' for Inactive)
REMARK    1  A    between atoms: N_3  and  C_4 
REMARK    2  A    between atoms: C_7  and  O_8 
REMARK    3  A    between atoms: C_13  and  C_14 
REMARK    4  A    between atoms: N_15  and  N_16 
REMARK       I    between atoms: N_16  and  C_17 
REMARK    5  A    between atoms: C_17  and  C_18 
REMARK    6  A    between atoms: C_18  and  O_19 
REMARK    7  A    between atoms: C_18  and  C_20 
REMARK    8  A    between atoms: C_18  and  C_26 
ROOT
HETATM    1  N   UNL     1       6.063  32.873  61.819  1.00  0.00    -0.244 N 
HETATM    2  C   UNL     1       5.237  32.525  62.885  1.00  0.00     0.282 C 
HETATM    3  O   UNL     1       5.007  31.367  63.251  1.00  0.00    -0.268 OA
HETATM    4  H   UNL     1       6.026  33.826  61.468  1.00  0.00     0.192 HD
ENDROOT
BRANCH   1   5
HETATM    5  N   UNL     1       6.750  32.023  60.993  1.00  0.00    -0.184 NA
HETATM    6  C   UNL     1       6.841  32.292  59.731  1.00  0.00     0.152 C 
BRANCH   6   7
HETATM    7  C   UNL     1       7.555  31.356  58.878  1.00  0.00     0.008 A 
HETATM    8  C   UNL     1       6.976  30.374  58.081  1.00  0.00     0.025 A 
HETATM    9  N   UNL     1       7.997  29.628  57.486  1.00  0.00    -0.319 N 
HETATM   10  C   UNL     1       5.522  30.158  57.804  1.00  0.00     0.070 C 
HETATM   11  C   UNL     1       9.214  30.201  57.841  1.00  0.00     0.014 A 
HETATM   12  C   UNL     1      10.556  29.669  57.466  1.00  0.00     0.068 C 
HETATM   13  C   UNL     1       8.954  31.259  58.689  1.00  0.00     0.040 A 
BRANCH   9  14
HETATM   14  C   UNL     1       7.824  28.455  56.691  1.00  0.00     0.039 A 
HETATM   15  C   UNL     1       7.689  28.568  55.300  1.00  0.00     0.033 A 
HETATM   16  C   UNL     1       7.497  27.425  54.517  1.00  0.00     0.039 A 
HETATM   17  C   UNL     1       7.445  26.177  55.129  1.00  0.00     0.065 A 
HETATM   18  C   UNL     1       7.582  26.053  56.507  1.00  0.00     0.039 A 
HETATM   19  C   UNL     1       7.771  27.192  57.293  1.00  0.00     0.033 A 
BRANCH  17  20
HETATM   20  O   UNL     1       7.257  25.038  54.405  1.00  0.00    -0.361 OA
HETATM   21  H   UNL     1       7.677  24.298  54.876  1.00  0.00     0.217 HD
ENDBRANCH  17  20
ENDBRANCH   9  14
ENDBRANCH   6   7
ENDBRANCH   1   5
BRANCH   2  22
HETATM   22  C   UNL     1       4.534  33.736  63.600  1.00  0.00     0.195 C 
BRANCH  22  23
HETATM   23  O   UNL     1       3.131  33.396  63.692  1.00  0.00    -0.371 OA
HETATM   24  H   UNL     1       2.908  33.006  62.824  1.00  0.00     0.212 HD
ENDBRANCH  22  23
BRANCH  22  25
HETATM   25  C   UNL     1       5.070  33.888  65.036  1.00  0.00    -0.010 A 
HETATM   26  C   UNL     1       4.218  34.152  66.128  1.00  0.00     0.011 A 
HETATM   27  C   UNL     1       4.734  34.345  67.412  1.00  0.00     0.001 A 
HETATM   28  C   UNL     1       6.107  34.278  67.631  1.00  0.00     0.000 A 
HETATM   29  C   UNL     1       6.967  34.019  66.568  1.00  0.00     0.001 A 
HETATM   30  C   UNL     1       6.455  33.832  65.283  1.00  0.00     0.011 A 
ENDBRANCH  22  25
BRANCH  22  31
HETATM   31  C   UNL     1       4.551  35.034  62.777  1.00  0.00    -0.010 A 
HETATM   32  C   UNL     1       5.529  36.033  62.934  1.00  0.00     0.011 A 
HETATM   33  C   UNL     1       5.494  37.199  62.163  1.00  0.00     0.001 A 
HETATM   34  C   UNL     1       4.488  37.389  61.220  1.00  0.00     0.000 A 
HETATM   35  C   UNL     1       3.519  36.409  61.034  1.00  0.00     0.001 A 
HETATM   36  C   UNL     1       3.555  35.242  61.800  1.00  0.00     0.011 A 
ENDBRANCH  22  31
ENDBRANCH   2  22
TORSDOF 8
ENDMDL
MODEL 2
REMARK VINA RESULT:      -9.0      3.407      5.804
REMARK  8 active torsions:
REMARK  status: ('A' for Active; 'I' for Inactive)
REMARK    1  A    between atoms: N_3  and  C_4 
REMARK    2  A    between atoms: C_7  and  O_8 
REMARK    3  A    between atoms: C_13  and  C_14 
REMARK    4  A    between atoms: N_15  and  N_16 
REMARK       I    between atoms: N_16  and  C_17 
REMARK    5  A    between atoms: C_17  and  C_18 
REMARK    6  A    between atoms: C_18  and  O_19 
REMARK    7  A    between atoms: C_18  and  C_20 
REMARK    8  A    between atoms: C_18  and  C_26 
ROOT
HETATM    1  N   UNL     1       6.119  29.968  58.074  1.00  0.00    -0.244 N 
HETATM    2  C   UNL     1       5.144  30.845  58.544  1.00  0.00     0.282 C 
HETATM    3  O   UNL     1       3.926  30.679  58.417  1.00  0.00    -0.268 OA
HETATM    4  H   UNL     1       7.083  30.287  58.042  1.00  0.00     0.192 HD
ENDROOT
BRANCH   1   5
HETATM    5  N   UNL     1       5.919  28.794  57.396  1.00  0.00    -0.184 NA
HETATM    6  C   UNL     1       6.865  28.315  56.655  1.00  0.00     0.152 C 
BRANCH   6   7
HETATM    7  C   UNL     1       6.611  27.082  55.928  1.00  0.00     0.008 A 
HETATM    8  C   UNL     1       7.323  25.895  56.058  1.00  0.00     0.025 A 
HETATM    9  N   UNL     1       6.830  24.977  55.128  1.00  0.00    -0.319 N 
HETATM   10  C   UNL     1       8.387  25.571  57.058  1.00  0.00     0.070 C 
HETATM   11  C   UNL     1       5.749  25.562  54.476  1.00  0.00     0.014 A 
HETATM   12  C   UNL     1       4.977  24.938  53.362  1.00  0.00     0.068 C 
HETATM   13  C   UNL     1       5.605  26.846  54.960  1.00  0.00     0.040 A 
BRANCH   9  14
HETATM   14  C   UNL     1       7.370  23.684  54.859  1.00  0.00     0.039 A 
HETATM   15  C   UNL     1       8.014  23.436  53.638  1.00  0.00     0.033 A 
HETATM   16  C   UNL     1       8.526  22.165  53.358  1.00  0.00     0.039 A 
HETATM   17  C   UNL     1       8.394  21.151  54.301  1.00  0.00     0.065 A 
HETATM   18  C   UNL     1       7.762  21.387  55.517  1.00  0.00     0.039 A 
HETATM   19  C   UNL     1       7.246  22.654  55.799  1.00  0.00     0.033 A 
BRANCH  17  20
HETATM   20  O   UNL     1       8.876  19.897  54.070  1.00  0.00    -0.361 OA
HETATM   21  H   UNL     1       9.847  19.929  54.094  1.00  0.00     0.217 HD
ENDBRANCH  17  20
ENDBRANCH   9  14
ENDBRANCH   6   7
ENDBRANCH   1   5
BRANCH   2  22
HETATM   22  C   UNL     1       5.699  32.146  59.228  1.00  0.00     0.195 C 
BRANCH  22  23
HETATM   23  O   UNL     1       6.091  33.036  58.157  1.00  0.00    -0.371 OA
HETATM   24  H   UNL     1       6.793  32.555  57.674  1.00  0.00     0.212 HD
ENDBRANCH  22  23
BRANCH  22  25
HETATM   25  C   UNL     1       4.582  32.845  60.026  1.00  0.00    -0.010 A 
HETATM   26  C   UNL     1       3.940  34.007  59.554  1.00  0.00     0.011 A 
HETATM   27  C   UNL     1       2.971  34.657  60.322  1.00  0.00     0.001 A 
HETATM   28  C   UNL     1       2.623  34.159  61.574  1.00  0.00     0.000 A 
HETATM   29  C   UNL     1       3.243  33.012  62.062  1.00  0.00     0.001 A 
HETATM   30  C   UNL     1       4.217  32.365  61.299  1.00  0.00     0.011 A 
ENDBRANCH  22  25
BRANCH  22  31
HETATM   31  C   UNL     1       6.997  31.922  60.021  1.00  0.00    -0.010 A 
HETATM   32  C   UNL     1       7.017  31.512  61.366  1.00  0.00     0.011 A 
HETATM   33  C   UNL     1       8.227  31.329  62.043  1.00  0.00     0.001 A 
HETATM   34  C   UNL     1       9.438  31.547  61.391  1.00  0.00     0.000 A 
HETATM   35  C   UNL     1       9.445  31.936  60.056  1.00  0.00     0.001 A 
HETATM   36  C   UNL     1       8.238  32.115  59.378  1.00  0.00     0.011 A 
ENDBRANCH  22  31
ENDBRANCH   2  22
TORSDOF 8
ENDMDL
MODEL 3
REMARK VINA RESULT:      -8.9      3.937      6.096
REMARK  8 active torsions:
REMARK  status: ('A' for Active; 'I' for Inactive)
REMARK    1  A    between atoms: N_3  and  C_4 
REMARK    2  A    between atoms: C_7  and  O_8 
REMARK    3  A    between atoms: C_13  and  C_14 
REMARK    4  A    between atoms: N_15  and  N_16 
REMARK       I    between atoms: N_16  and  C_17 
REMARK    5  A    between atoms: C_17  and  C_18 
REMARK    6  A    between atoms: C_18  and  O_19 
REMARK    7  A    between atoms: C_18  and  C_20 
REMARK    8  A    between atoms: C_18  and  C_26 
ROOT
HETATM    1  N   UNL     1       5.033  29.411  57.835  1.00  0.00    -0.244 N 
HETATM    2  C   UNL     1       5.193  30.739  57.448  1.00  0.00     0.282 C 
HETATM    3  O   UNL     1       5.346  31.120  56.282  1.00  0.00    -0.268 OA
HETATM    4  H   UNL     1       5.121  29.180  58.821  1.00  0.00     0.192 HD
ENDROOT
BRANCH   1   5
HETATM    5  N   UNL     1       5.023  28.307  57.024  1.00  0.00    -0.184 NA
HETATM    6  C   UNL     1       6.140  27.738  56.704  1.00  0.00     0.152 C 
BRANCH   6   7
HETATM    7  C   UNL     1       6.097  26.585  55.820  1.00  0.00     0.008 A 
HETATM    8  C   UNL     1       6.835  25.416  55.965  1.00  0.00     0.025 A 
HETATM    9  N   UNL     1       6.579  24.590  54.868  1.00  0.00    -0.319 N 
HETATM   10  C   UNL     1       7.706  25.020  57.115  1.00  0.00     0.070 C 
HETATM   11  C   UNL     1       5.611  25.206  54.081  1.00  0.00     0.014 A 
HETATM   12  C   UNL     1       5.100  24.683  52.781  1.00  0.00     0.068 C 
HETATM   13  C   UNL     1       5.307  26.424  54.656  1.00  0.00     0.040 A 
BRANCH   9  14
HETATM   14  C   UNL     1       7.230  23.353  54.579  1.00  0.00     0.039 A 
HETATM   15  C   UNL     1       7.834  23.157  53.329  1.00  0.00     0.033 A 
HETATM   16  C   UNL     1       8.453  21.940  53.031  1.00  0.00     0.039 A 
HETATM   17  C   UNL     1       8.470  20.928  53.985  1.00  0.00     0.065 A 
HETATM   18  C   UNL     1       7.879  21.113  55.229  1.00  0.00     0.039 A 
HETATM   19  C   UNL     1       7.255  22.326  55.530  1.00  0.00     0.033 A 
BRANCH  17  20
HETATM   20  O   UNL     1       9.061  19.725  53.736  1.00  0.00    -0.361 OA
HETATM   21  H   UNL     1       8.905  19.140  54.496  1.00  0.00     0.217 HD
ENDBRANCH  17  20
ENDBRANCH   9  14
ENDBRANCH   6   7
ENDBRANCH   1   5
BRANCH   2  22
HETATM   22  C   UNL     1       5.225  31.774  58.630  1.00  0.00     0.195 C 
BRANCH  22  23
HETATM   23  O   UNL     1       4.374  31.235  59.668  1.00  0.00    -0.371 OA
HETATM   24  H   UNL     1       4.943  30.611  60.162  1.00  0.00     0.212 HD
ENDBRANCH  22  23
BRANCH  22  25
HETATM   25  C   UNL     1       6.650  31.880  59.205  1.00  0.00    -0.010 A 
HETATM   26  C   UNL     1       7.760  31.293  58.564  1.00  0.00     0.011 A 
HETATM   27  C   UNL     1       9.034  31.351  59.134  1.00  0.00     0.001 A 
HETATM   28  C   UNL     1       9.224  31.995  60.354  1.00  0.00     0.000 A 
HETATM   29  C   UNL     1       8.143  32.581  61.005  1.00  0.00     0.001 A 
HETATM   30  C   UNL     1       6.868  32.519  60.440  1.00  0.00     0.011 A 
ENDBRANCH  22  25
BRANCH  22  31
HETATM   31  C   UNL     1       4.581  33.127  58.284  1.00  0.00    -0.010 A 
HETATM   32  C   UNL     1       3.496  33.667  58.996  1.00  0.00     0.011 A 
HETATM   33  C   UNL     1       2.943  34.900  58.635  1.00  0.00     0.001 A 
HETATM   34  C   UNL     1       3.464  35.618  57.561  1.00  0.00     0.000 A 
HETATM   35  C   UNL     1       4.548  35.112  56.852  1.00  0.00     0.001 A 
HETATM   36  C   UNL     1       5.103  33.884  57.214  1.00  0.00     0.011 A 
ENDBRANCH  22  31
ENDBRANCH   2  22
TORSDOF 8
ENDMDL
MODEL 4
REMARK VINA RESULT:      -8.9      8.487     13.233
REMARK  8 active torsions:
REMARK  status: ('A' for Active; 'I' for Inactive)
REMARK    1  A    between atoms: N_3  and  C_4 
REMARK    2  A    between atoms: C_7  and  O_8 
REMARK    3  A    between atoms: C_13  and  C_14 
REMARK    4  A    between atoms: N_15  and  N_16 
REMARK       I    between atoms: N_16  and  C_17 
REMARK    5  A    between atoms: C_17  and  C_18 
REMARK    6  A    between atoms: C_18  and  O_19 
REMARK    7  A    between atoms: C_18  and  C_20 
REMARK    8  A    between atoms: C_18  and  C_26 
ROOT
HETATM    1  N   UNL     1       5.954  25.902  51.552  1.00  0.00    -0.244 N 
HETATM    2  C   UNL     1       5.735  25.057  52.637  1.00  0.00     0.282 C 
HETATM    3  O   UNL     1       4.675  24.465  52.867  1.00  0.00    -0.268 OA
HETATM    4  H   UNL     1       6.778  26.497  51.560  1.00  0.00     0.192 HD
ENDROOT
BRANCH   1   5
HETATM    5  N   UNL     1       5.061  26.234  50.567  1.00  0.00    -0.184 NA
HETATM    6  C   UNL     1       4.851  27.480  50.288  1.00  0.00     0.152 C 
BRANCH   6   7
HETATM    7  C   UNL     1       3.877  27.798  49.257  1.00  0.00     0.008 A 
HETATM    8  C   UNL     1       3.513  29.076  48.845  1.00  0.00     0.025 A 
HETATM    9  N   UNL     1       2.489  28.962  47.902  1.00  0.00    -0.319 N 
HETATM   10  C   UNL     1       4.130  30.378  49.245  1.00  0.00     0.070 C 
HETATM   11  C   UNL     1       2.275  27.609  47.658  1.00  0.00     0.014 A 
HETATM   12  C   UNL     1       1.222  27.054  46.759  1.00  0.00     0.068 C 
HETATM   13  C   UNL     1       3.120  26.890  48.478  1.00  0.00     0.040 A 
BRANCH   9  14
HETATM   14  C   UNL     1       1.757  30.043  47.324  1.00  0.00     0.039 A 
HETATM   15  C   UNL     1       0.601  30.521  47.957  1.00  0.00     0.033 A 
HETATM   16  C   UNL     1      -0.133  31.565  47.385  1.00  0.00     0.039 A 
HETATM   17  C   UNL     1       0.295  32.127  46.187  1.00  0.00     0.065 A 
HETATM   18  C   UNL     1       1.443  31.664  45.553  1.00  0.00     0.039 A 
HETATM   19  C   UNL     1       2.177  30.619  46.119  1.00  0.00     0.033 A 
BRANCH  17  20
HETATM   20  O   UNL     1      -0.391  33.144  45.593  1.00  0.00    -0.361 OA
HETATM   21  H   UNL     1       0.208  33.607  44.983  1.00  0.00     0.217 HD
ENDBRANCH  17  20
ENDBRANCH   9  14
ENDBRANCH   6   7
ENDBRANCH   1   5
BRANCH   2  22
HETATM   22  C   UNL     1       6.945  24.930  53.633  1.00  0.00     0.195 C 
BRANCH  22  23
HETATM   23  O   UNL     1       8.096  25.475  52.947  1.00  0.00    -0.371 OA
HETATM   24  H   UNL     1       8.658  24.701  52.742  1.00  0.00     0.212 HD
ENDBRANCH  22  23
BRANCH  22  25
HETATM   25  C   UNL     1       6.696  25.795  54.883  1.00  0.00    -0.010 A 
HETATM   26  C   UNL     1       5.560  25.621  55.698  1.00  0.00     0.011 A 
HETATM   27  C   UNL     1       5.325  26.457  56.793  1.00  0.00     0.001 A 
HETATM   28  C   UNL     1       6.220  27.480  57.095  1.00  0.00     0.000 A 
HETATM   29  C   UNL     1       7.349  27.671  56.304  1.00  0.00     0.001 A 
HETATM   30  C   UNL     1       7.582  26.841  55.205  1.00  0.00     0.011 A 
ENDBRANCH  22  25
BRANCH  22  31
HETATM   31  C   UNL     1       7.344  23.478  53.938  1.00  0.00    -0.010 A 
HETATM   32  C   UNL     1       7.370  22.943  55.238  1.00  0.00     0.011 A 
HETATM   33  C   UNL     1       7.748  21.615  55.460  1.00  0.00     0.001 A 
HETATM   34  C   UNL     1       8.103  20.795  54.391  1.00  0.00     0.000 A 
HETATM   35  C   UNL     1       8.069  21.296  53.094  1.00  0.00     0.001 A 
HETATM   36  C   UNL     1       7.688  22.620  52.871  1.00  0.00     0.011 A 
ENDBRANCH  22  31
ENDBRANCH   2  22
TORSDOF 8
ENDMDL
MODEL 5
REMARK VINA RESULT:      -8.7      3.198     11.734
REMARK  8 active torsions:
REMARK  status: ('A' for Active; 'I' for Inactive)
REMARK    1  A    between atoms: N_3  and  C_4 
REMARK    2  A    between atoms: C_7  and  O_8 
REMARK    3  A    between atoms: C_13  and  C_14 
REMARK    4  A    between atoms: N_15  and  N_16 
REMARK       I    between atoms: N_16  and  C_17 
REMARK    5  A    between atoms: C_17  and  C_18 
REMARK    6  A    between atoms: C_18  and  O_19 
REMARK    7  A    between atoms: C_18  and  C_20 
REMARK    8  A    between atoms: C_18  and  C_26 
ROOT
HETATM    1  N   UNL     1       5.112  27.404  55.358  1.00  0.00    -0.244 N 
HETATM    2  C   UNL     1       6.174  26.764  54.724  1.00  0.00     0.282 C 
HETATM    3  O   UNL     1       7.366  27.038  54.896  1.00  0.00    -0.268 OA
HETATM    4  H   UNL     1       4.172  27.252  55.002  1.00  0.00     0.192 HD
ENDROOT
BRANCH   1   5
HETATM    5  N   UNL     1       5.184  28.434  56.259  1.00  0.00    -0.184 NA
HETATM    6  C   UNL     1       5.701  29.564  55.898  1.00  0.00     0.152 C 
BRANCH   6   7
HETATM    7  C   UNL     1       5.788  30.626  56.886  1.00  0.00     0.008 A 
HETATM    8  C   UNL     1       6.552  30.601  58.047  1.00  0.00     0.025 A 
HETATM    9  N   UNL     1       6.297  31.768  58.772  1.00  0.00    -0.319 N 
HETATM   10  C   UNL     1       7.553  29.570  58.463  1.00  0.00     0.070 C 
HETATM   11  C   UNL     1       5.441  32.565  58.019  1.00  0.00     0.014 A 
HETATM   12  C   UNL     1       4.872  33.871  58.461  1.00  0.00     0.068 C 
HETATM   13  C   UNL     1       5.126  31.878  56.864  1.00  0.00     0.040 A 
BRANCH   9  14
HETATM   14  C   UNL     1       6.791  32.071  60.077  1.00  0.00     0.039 A 
HETATM   15  C   UNL     1       5.892  32.308  61.126  1.00  0.00     0.033 A 
HETATM   16  C   UNL     1       6.369  32.627  62.401  1.00  0.00     0.039 A 
HETATM   17  C   UNL     1       7.740  32.702  62.621  1.00  0.00     0.065 A 
HETATM   18  C   UNL     1       8.641  32.464  61.589  1.00  0.00     0.039 A 
HETATM   19  C   UNL     1       8.169  32.148  60.313  1.00  0.00     0.033 A 
BRANCH  17  20
HETATM   20  O   UNL     1       8.248  33.011  63.847  1.00  0.00    -0.361 OA
HETATM   21  H   UNL     1       8.600  33.917  63.818  1.00  0.00     0.217 HD
ENDBRANCH  17  20
ENDBRANCH   9  14
ENDBRANCH   6   7
ENDBRANCH   1   5
BRANCH   2  22
HETATM   22  C   UNL     1       5.757  25.658  53.688  1.00  0.00     0.195 C 
BRANCH  22  23
HETATM   23  O   UNL     1       4.473  25.153  54.124  1.00  0.00    -0.371 OA
HETATM   24  H   UNL     1       4.476  24.207  53.875  1.00  0.00     0.212 HD
ENDBRANCH  22  23
BRANCH  22  25
HETATM   25  C   UNL     1       5.562  26.283  52.294  1.00  0.00    -0.010 A 
HETATM   26  C   UNL     1       5.878  27.630  52.028  1.00  0.00     0.011 A 
HETATM   27  C   UNL     1       5.637  28.191  50.771  1.00  0.00     0.001 A 
HETATM   28  C   UNL     1       5.076  27.419  49.758  1.00  0.00     0.000 A 
HETATM   29  C   UNL     1       4.754  26.086  49.998  1.00  0.00     0.001 A 
HETATM   30  C   UNL     1       4.989  25.525  51.255  1.00  0.00     0.011 A 
ENDBRANCH  22  25
BRANCH  22  31
HETATM   31  C   UNL     1       6.670  24.421  53.704  1.00  0.00    -0.010 A 
HETATM   32  C   UNL     1       7.461  24.033  52.608  1.00  0.00     0.011 A 
HETATM   33  C   UNL     1       8.269  22.894  52.674  1.00  0.00     0.001 A 
HETATM   34  C   UNL     1       8.308  22.124  53.834  1.00  0.00     0.000 A 
HETATM   35  C   UNL     1       7.548  22.496  54.938  1.00  0.00     0.001 A 
HETATM   36  C   UNL     1       6.744  23.636  54.875  1.00  0.00     0.011 A 
ENDBRANCH  22  31
ENDBRANCH   2  22
TORSDOF 8
ENDMDL
MODEL 6
REMARK VINA RESULT:      -8.7      2.475     10.613
REMARK  8 active torsions:
REMARK  status: ('A' for Active; 'I' for Inactive)
REMARK    1  A    between atoms: N_3  and  C_4 
REMARK    2  A    between atoms: C_7  and  O_8 
REMARK    3  A    between atoms: C_13  and  C_14 
REMARK    4  A    between atoms: N_15  and  N_16 
REMARK       I    between atoms: N_16  and  C_17 
REMARK    5  A    between atoms: C_17  and  C_18 
REMARK    6  A    between atoms: C_18  and  O_19 
REMARK    7  A    between atoms: C_18  and  C_20 
REMARK    8  A    between atoms: C_18  and  C_26 
ROOT
HETATM    1  N   UNL     1       6.668  29.342  56.579  1.00  0.00    -0.244 N 
HETATM    2  C   UNL     1       5.939  28.286  56.037  1.00  0.00     0.282 C 
HETATM    3  O   UNL     1       5.045  27.670  56.627  1.00  0.00    -0.268 OA
HETATM    4  H   UNL     1       7.512  29.645  56.101  1.00  0.00     0.192 HD
ENDROOT
BRANCH   1   5
HETATM    5  N   UNL     1       6.542  29.876  57.835  1.00  0.00    -0.184 NA
HETATM    6  C   UNL     1       7.225  30.928  58.153  1.00  0.00     0.152 C 
BRANCH   6   7
HETATM    7  C   UNL     1       7.089  31.454  59.502  1.00  0.00     0.008 A 
HETATM    8  C   UNL     1       6.064  32.274  59.959  1.00  0.00     0.025 A 
HETATM    9  N   UNL     1       6.339  32.633  61.281  1.00  0.00    -0.319 N 
HETATM   10  C   UNL     1       4.816  32.670  59.235  1.00  0.00     0.070 C 
HETATM   11  C   UNL     1       7.492  31.964  61.678  1.00  0.00     0.014 A 
HETATM   12  C   UNL     1       8.163  32.120  63.002  1.00  0.00     0.068 C 
HETATM   13  C   UNL     1       7.956  31.239  60.600  1.00  0.00     0.040 A 
BRANCH   9  14
HETATM   14  C   UNL     1       5.594  33.560  62.070  1.00  0.00     0.039 A 
HETATM   15  C   UNL     1       5.947  34.918  62.071  1.00  0.00     0.033 A 
HETATM   16  C   UNL     1       5.236  35.827  62.859  1.00  0.00     0.039 A 
HETATM   17  C   UNL     1       4.175  35.377  63.638  1.00  0.00     0.065 A 
HETATM   18  C   UNL     1       3.814  34.034  63.641  1.00  0.00     0.039 A 
HETATM   19  C   UNL     1       4.523  33.121  62.858  1.00  0.00     0.033 A 
BRANCH  17  20
HETATM   20  O   UNL     1       3.456  36.229  64.423  1.00  0.00    -0.361 OA
HETATM   21  H   UNL     1       3.891  37.098  64.417  1.00  0.00     0.217 HD
ENDBRANCH  17  20
ENDBRANCH   9  14
ENDBRANCH   6   7
ENDBRANCH   1   5
BRANCH   2  22
HETATM   22  C   UNL     1       6.368  27.862  54.586  1.00  0.00     0.195 C 
BRANCH  22  23
HETATM   23  O   UNL     1       7.572  28.604  54.283  1.00  0.00    -0.371 OA
HETATM   24  H   UNL     1       7.268  29.514  54.094  1.00  0.00     0.212 HD
ENDBRANCH  22  23
BRANCH  22  25
HETATM   25  C   UNL     1       6.726  26.364  54.555  1.00  0.00    -0.010 A 
HETATM   26  C   UNL     1       6.162  25.480  53.614  1.00  0.00     0.011 A 
HETATM   27  C   UNL     1       6.456  24.115  53.642  1.00  0.00     0.001 A 
HETATM   28  C   UNL     1       7.318  23.606  54.610  1.00  0.00     0.000 A 
HETATM   29  C   UNL     1       7.887  24.460  55.550  1.00  0.00     0.001 A 
HETATM   30  C   UNL     1       7.589  25.824  55.527  1.00  0.00     0.011 A 
ENDBRANCH  22  25
BRANCH  22  31
HETATM   31  C   UNL     1       5.376  28.298  53.496  1.00  0.00    -0.010 A 
HETATM   32  C   UNL     1       3.985  28.350  53.696  1.00  0.00     0.011 A 
HETATM   33  C   UNL     1       3.126  28.748  52.667  1.00  0.00     0.001 A 
HETATM   34  C   UNL     1       3.638  29.106  51.422  1.00  0.00     0.000 A 
HETATM   35  C   UNL     1       5.011  29.079  51.204  1.00  0.00     0.001 A 
HETATM   36  C   UNL     1       5.870  28.686  52.232  1.00  0.00     0.011 A 
ENDBRANCH  22  31
ENDBRANCH   2  22
TORSDOF 8
ENDMDL
MODEL 7
REMARK VINA RESULT:      -8.6      2.742     11.029
REMARK  8 active torsions:
REMARK  status: ('A' for Active; 'I' for Inactive)
REMARK    1  A    between atoms: N_3  and  C_4 
REMARK    2  A    between atoms: C_7  and  O_8 
REMARK    3  A    between atoms: C_13  and  C_14 
REMARK    4  A    between atoms: N_15  and  N_16 
REMARK       I    between atoms: N_16  and  C_17 
REMARK    5  A    between atoms: C_17  and  C_18 
REMARK    6  A    between atoms: C_18  and  O_19 
REMARK    7  A    between atoms: C_18  and  C_20 
REMARK    8  A    between atoms: C_18  and  C_26 
ROOT
HETATM    1  N   UNL     1       6.371  29.165  55.746  1.00  0.00    -0.244 N 
HETATM    2  C   UNL     1       5.634  28.408  54.838  1.00  0.00     0.282 C 
HETATM    3  O   UNL     1       4.413  28.230  54.896  1.00  0.00    -0.268 OA
HETATM    4  H   UNL     1       7.384  29.084  55.735  1.00  0.00     0.192 HD
ENDROOT
BRANCH   1   5
HETATM    5  N   UNL     1       5.898  29.829  56.847  1.00  0.00    -0.184 NA
HETATM    6  C   UNL     1       6.580  30.809  57.345  1.00  0.00     0.152 C 
BRANCH   6   7
HETATM    7  C   UNL     1       6.063  31.474  58.530  1.00  0.00     0.008 A 
HETATM    8  C   UNL     1       6.822  31.962  59.588  1.00  0.00     0.025 A 
HETATM    9  N   UNL     1       5.954  32.449  60.569  1.00  0.00    -0.319 N 
HETATM   10  C   UNL     1       8.312  32.053  59.682  1.00  0.00     0.070 C 
HETATM   11  C   UNL     1       4.654  32.346  60.084  1.00  0.00     0.014 A 
HETATM   12  C   UNL     1       3.422  32.699  60.847  1.00  0.00     0.068 C 
HETATM   13  C   UNL     1       4.710  31.755  58.838  1.00  0.00     0.040 A 
BRANCH   9  14
HETATM   14  C   UNL     1       6.330  32.924  61.861  1.00  0.00     0.039 A 
HETATM   15  C   UNL     1       6.017  34.238  62.240  1.00  0.00     0.033 A 
HETATM   16  C   UNL     1       6.402  34.718  63.495  1.00  0.00     0.039 A 
HETATM   17  C   UNL     1       7.093  33.882  64.366  1.00  0.00     0.065 A 
HETATM   18  C   UNL     1       7.405  32.577  64.003  1.00  0.00     0.039 A 
HETATM   19  C   UNL     1       7.026  32.094  62.748  1.00  0.00     0.033 A 
BRANCH  17  20
HETATM   20  O   UNL     1       7.490  34.309  65.598  1.00  0.00    -0.361 OA
HETATM   21  H   UNL     1       7.830  35.216  65.517  1.00  0.00     0.217 HD
ENDBRANCH  17  20
ENDBRANCH   9  14
ENDBRANCH   6   7
ENDBRANCH   1   5
BRANCH   2  22
HETATM   22  C   UNL     1       6.483  27.714  53.712  1.00  0.00     0.195 C 
BRANCH  22  23
HETATM   23  O   UNL     1       7.716  28.464  53.609  1.00  0.00    -0.371 OA
HETATM   24  H   UNL     1       7.507  29.346  53.977  1.00  0.00     0.212 HD
ENDBRANCH  22  23
BRANCH  22  25
HETATM   25  C   UNL     1       6.847  26.277  54.131  1.00  0.00    -0.010 A 
HETATM   26  C   UNL     1       7.765  25.496  53.402  1.00  0.00     0.011 A 
HETATM   27  C   UNL     1       8.035  24.175  53.767  1.00  0.00     0.001 A 
HETATM   28  C   UNL     1       7.394  23.609  54.865  1.00  0.00     0.000 A 
HETATM   29  C   UNL     1       6.482  24.361  55.600  1.00  0.00     0.001 A 
HETATM   30  C   UNL     1       6.206  25.680  55.233  1.00  0.00     0.011 A 
ENDBRANCH  22  25
BRANCH  22  31
HETATM   31  C   UNL     1       5.860  27.826  52.311  1.00  0.00    -0.010 A 
HETATM   32  C   UNL     1       5.679  29.051  51.644  1.00  0.00     0.011 A 
HETATM   33  C   UNL     1       5.100  29.097  50.372  1.00  0.00     0.001 A 
HETATM   34  C   UNL     1       4.696  27.923  49.740  1.00  0.00     0.000 A 
HETATM   35  C   UNL     1       4.880  26.698  50.371  1.00  0.00     0.001 A 
HETATM   36  C   UNL     1       5.462  26.651  51.640  1.00  0.00     0.011 A 
ENDBRANCH  22  31
ENDBRANCH   2  22
TORSDOF 8
ENDMDL
MODEL 8
REMARK VINA RESULT:      -8.6      8.503     12.997
REMARK  8 active torsions:
REMARK  status: ('A' for Active; 'I' for Inactive)
REMARK    1  A    between atoms: N_3  and  C_4 
REMARK    2  A    between atoms: C_7  and  O_8 
REMARK    3  A    between atoms: C_13  and  C_14 
REMARK    4  A    between atoms: N_15  and  N_16 
REMARK       I    between atoms: N_16  and  C_17 
REMARK    5  A    between atoms: C_17  and  C_18 
REMARK    6  A    between atoms: C_18  and  O_19 
REMARK    7  A    between atoms: C_18  and  C_20 
REMARK    8  A    between atoms: C_18  and  C_26 
ROOT
HETATM    1  N   UNL     1       5.805  26.153  52.221  1.00  0.00    -0.244 N 
HETATM    2  C   UNL     1       5.842  25.240  53.271  1.00  0.00     0.282 C 
HETATM    3  O   UNL     1       4.846  24.751  53.816  1.00  0.00    -0.268 OA
HETATM    4  H   UNL     1       6.658  26.650  51.980  1.00  0.00     0.192 HD
ENDROOT
BRANCH   1   5
HETATM    5  N   UNL     1       4.692  26.673  51.614  1.00  0.00    -0.184 NA
HETATM    6  C   UNL     1       4.785  27.775  50.943  1.00  0.00     0.152 C 
BRANCH   6   7
HETATM    7  C   UNL     1       3.580  28.314  50.335  1.00  0.00     0.008 A 
HETATM    8  C   UNL     1       3.024  27.909  49.127  1.00  0.00     0.025 A 
HETATM    9  N   UNL     1       1.925  28.726  48.848  1.00  0.00    -0.319 N 
HETATM   10  C   UNL     1       3.436  26.755  48.270  1.00  0.00     0.070 C 
HETATM   11  C   UNL     1       1.740  29.584  49.928  1.00  0.00     0.014 A 
HETATM   12  C   UNL     1       0.711  30.660  50.004  1.00  0.00     0.068 C 
HETATM   13  C   UNL     1       2.744  29.338  50.843  1.00  0.00     0.040 A 
BRANCH   9  14
HETATM   14  C   UNL     1       1.155  28.715  47.647  1.00  0.00     0.039 A 
HETATM   15  C   UNL     1       1.098  29.863  46.843  1.00  0.00     0.033 A 
HETATM   16  C   UNL     1       0.328  29.867  45.676  1.00  0.00     0.039 A 
HETATM   17  C   UNL     1      -0.378  28.723  45.318  1.00  0.00     0.065 A 
HETATM   18  C   UNL     1      -0.326  27.578  46.104  1.00  0.00     0.039 A 
HETATM   19  C   UNL     1       0.440  27.571  47.273  1.00  0.00     0.033 A 
BRANCH  17  20
HETATM   20  O   UNL     1      -1.143  28.684  44.190  1.00  0.00    -0.361 OA
HETATM   21  H   UNL     1      -1.475  29.579  44.010  1.00  0.00     0.217 HD
ENDBRANCH  17  20
ENDBRANCH   9  14
ENDBRANCH   6   7
ENDBRANCH   1   5
BRANCH   2  22
HETATM   22  C   UNL     1       7.283  24.887  53.792  1.00  0.00     0.195 C 
BRANCH  22  23
HETATM   23  O   UNL     1       8.200  25.252  52.734  1.00  0.00    -0.371 OA
HETATM   24  H   UNL     1       8.191  26.230  52.718  1.00  0.00     0.212 HD
ENDBRANCH  22  23
BRANCH  22  25
HETATM   25  C   UNL     1       7.628  25.746  55.023  1.00  0.00    -0.010 A 
HETATM   26  C   UNL     1       7.971  25.172  56.263  1.00  0.00     0.011 A 
HETATM   27  C   UNL     1       8.223  25.971  57.381  1.00  0.00     0.001 A 
HETATM   28  C   UNL     1       8.137  27.357  57.282  1.00  0.00     0.000 A 
HETATM   29  C   UNL     1       7.800  27.947  56.068  1.00  0.00     0.001 A 
HETATM   30  C   UNL     1       7.541  27.150  54.951  1.00  0.00     0.011 A 
ENDBRANCH  22  25
BRANCH  22  31
HETATM   31  C   UNL     1       7.518  23.380  53.986  1.00  0.00    -0.010 A 
HETATM   32  C   UNL     1       7.377  22.732  55.226  1.00  0.00     0.011 A 
HETATM   33  C   UNL     1       7.610  21.359  55.349  1.00  0.00     0.001 A 
HETATM   34  C   UNL     1       7.982  20.606  54.238  1.00  0.00     0.000 A 
HETATM   35  C   UNL     1       8.111  21.220  52.997  1.00  0.00     0.001 A 
HETATM   36  C   UNL     1       7.875  22.591  52.872  1.00  0.00     0.011 A 
ENDBRANCH  22  31
ENDBRANCH   2  22
TORSDOF 8
ENDMDL
MODEL 9
REMARK VINA RESULT:      -8.5      2.934     11.184
REMARK  8 active torsions:
REMARK  status: ('A' for Active; 'I' for Inactive)
REMARK    1  A    between atoms: N_3  and  C_4 
REMARK    2  A    between atoms: C_7  and  O_8 
REMARK    3  A    between atoms: C_13  and  C_14 
REMARK    4  A    between atoms: N_15  and  N_16 
REMARK       I    between atoms: N_16  and  C_17 
REMARK    5  A    between atoms: C_17  and  C_18 
REMARK    6  A    between atoms: C_18  and  O_19 
REMARK    7  A    between atoms: C_18  and  C_20 
REMARK    8  A    between atoms: C_18  and  C_26 
ROOT
HETATM    1  N   UNL     1       7.318  28.148  55.659  1.00  0.00    -0.244 N 
HETATM    2  C   UNL     1       6.378  27.369  54.988  1.00  0.00     0.282 C 
HETATM    3  O   UNL     1       5.205  27.216  55.346  1.00  0.00    -0.268 OA
HETATM    4  H   UNL     1       8.298  28.047  55.408  1.00  0.00     0.192 HD
ENDROOT
BRANCH   1   5
HETATM    5  N   UNL     1       7.130  28.864  56.811  1.00  0.00    -0.184 NA
HETATM    6  C   UNL     1       6.816  30.118  56.741  1.00  0.00     0.152 C 
BRANCH   6   7
HETATM    7  C   UNL     1       6.651  30.855  57.982  1.00  0.00     0.008 A 
HETATM    8  C   UNL     1       5.453  31.359  58.479  1.00  0.00     0.025 A 
HETATM    9  N   UNL     1       5.725  32.078  59.645  1.00  0.00    -0.319 N 
HETATM   10  C   UNL     1       4.074  31.133  57.946  1.00  0.00     0.070 C 
HETATM   11  C   UNL     1       7.081  31.949  59.926  1.00  0.00     0.014 A 
HETATM   12  C   UNL     1       7.793  32.618  61.054  1.00  0.00     0.068 C 
HETATM   13  C   UNL     1       7.655  31.201  58.918  1.00  0.00     0.040 A 
BRANCH   9  14
HETATM   14  C   UNL     1       4.785  32.850  60.393  1.00  0.00     0.039 A 
HETATM   15  C   UNL     1       4.191  32.306  61.541  1.00  0.00     0.033 A 
HETATM   16  C   UNL     1       3.253  33.048  62.266  1.00  0.00     0.039 A 
HETATM   17  C   UNL     1       2.917  34.329  61.841  1.00  0.00     0.065 A 
HETATM   18  C   UNL     1       3.502  34.880  60.706  1.00  0.00     0.039 A 
HETATM   19  C   UNL     1       4.437  34.141  59.977  1.00  0.00     0.033 A 
BRANCH  17  20
HETATM   20  O   UNL     1       2.006  35.086  62.515  1.00  0.00    -0.361 OA
HETATM   21  H   UNL     1       1.765  34.623  63.335  1.00  0.00     0.217 HD
ENDBRANCH  17  20
ENDBRANCH   9  14
ENDBRANCH   6   7
ENDBRANCH   1   5
BRANCH   2  22
HETATM   22  C   UNL     1       6.925  26.614  53.723  1.00  0.00     0.195 C 
BRANCH  22  23
HETATM   23  O   UNL     1       8.193  27.230  53.396  1.00  0.00    -0.371 OA
HETATM   24  H   UNL     1       7.963  28.121  53.065  1.00  0.00     0.212 HD
ENDBRANCH  22  23
BRANCH  22  25
HETATM   25  C   UNL     1       7.201  25.137  54.064  1.00  0.00    -0.010 A 
HETATM   26  C   UNL     1       6.827  24.573  55.300  1.00  0.00     0.011 A 
HETATM   27  C   UNL     1       7.140  23.247  55.610  1.00  0.00     0.001 A 
HETATM   28  C   UNL     1       7.831  22.460  54.693  1.00  0.00     0.000 A 
HETATM   29  C   UNL     1       8.211  22.995  53.466  1.00  0.00     0.001 A 
HETATM   30  C   UNL     1       7.904  24.323  53.157  1.00  0.00     0.011 A 
ENDBRANCH  22  25
BRANCH  22  31
HETATM   31  C   UNL     1       6.072  26.823  52.462  1.00  0.00    -0.010 A 
HETATM   32  C   UNL     1       5.567  25.762  51.688  1.00  0.00     0.011 A 
HETATM   33  C   UNL     1       4.801  26.010  50.545  1.00  0.00     0.001 A 
HETATM   34  C   UNL     1       4.519  27.317  50.154  1.00  0.00     0.000 A 
HETATM   35  C   UNL     1       4.993  28.382  50.912  1.00  0.00     0.001 A 
HETATM   36  C   UNL     1       5.755  28.137  52.056  1.00  0.00     0.011 A 
ENDBRANCH  22  31
ENDBRANCH   2  22
TORSDOF 8
ENDMDL
MODEL 10
REMARK VINA RESULT:      -8.5      7.695     12.289
REMARK  8 active torsions:
REMARK  status: ('A' for Active; 'I' for Inactive)
REMARK    1  A    between atoms: N_3  and  C_4 
REMARK    2  A    between atoms: C_7  and  O_8 
REMARK    3  A    between atoms: C_13  and  C_14 
REMARK    4  A    between atoms: N_15  and  N_16 
REMARK       I    between atoms: N_16  and  C_17 
REMARK    5  A    between atoms: C_17  and  C_18 
REMARK    6  A    between atoms: C_18  and  O_19 
REMARK    7  A    between atoms: C_18  and  C_20 
REMARK    8  A    between atoms: C_18  and  C_26 
ROOT
HETATM    1  N   UNL     1       5.403  26.977  52.602  1.00  0.00    -0.244 N 
HETATM    2  C   UNL     1       5.109  25.798  53.281  1.00  0.00     0.282 C 
HETATM    3  O   UNL     1       4.306  24.942  52.893  1.00  0.00    -0.268 OA
HETATM    4  H   UNL     1       5.913  27.706  53.094  1.00  0.00     0.192 HD
ENDROOT
BRANCH   1   5
HETATM    5  N   UNL     1       4.869  27.405  51.415  1.00  0.00    -0.184 NA
HETATM    6  C   UNL     1       4.646  28.666  51.232  1.00  0.00     0.152 C 
BRANCH   6   7
HETATM    7  C   UNL     1       4.052  29.084  49.972  1.00  0.00     0.008 A 
HETATM    8  C   UNL     1       2.715  28.953  49.617  1.00  0.00     0.025 A 
HETATM    9  N   UNL     1       2.561  29.389  48.298  1.00  0.00    -0.319 N 
HETATM   10  C   UNL     1       1.577  28.506  50.480  1.00  0.00     0.070 C 
HETATM   11  C   UNL     1       3.788  29.877  47.860  1.00  0.00     0.014 A 
HETATM   12  C   UNL     1       4.070  30.381  46.485  1.00  0.00     0.068 C 
HETATM   13  C   UNL     1       4.704  29.698  48.876  1.00  0.00     0.040 A 
BRANCH   9  14
HETATM   14  C   UNL     1       1.366  29.305  47.521  1.00  0.00     0.039 A 
HETATM   15  C   UNL     1       0.497  30.404  47.457  1.00  0.00     0.033 A 
HETATM   16  C   UNL     1      -0.685  30.322  46.716  1.00  0.00     0.039 A 
HETATM   17  C   UNL     1      -0.990  29.145  46.040  1.00  0.00     0.065 A 
HETATM   18  C   UNL     1      -0.134  28.051  46.093  1.00  0.00     0.039 A 
HETATM   19  C   UNL     1       1.047  28.127  46.835  1.00  0.00     0.033 A 
BRANCH  17  20
HETATM   20  O   UNL     1      -2.133  29.020  45.308  1.00  0.00    -0.361 OA
HETATM   21  H   UNL     1      -2.671  28.308  45.692  1.00  0.00     0.217 HD
ENDBRANCH  17  20
ENDBRANCH   9  14
ENDBRANCH   6   7
ENDBRANCH   1   5
BRANCH   2  22
HETATM   22  C   UNL     1       5.845  25.626  54.659  1.00  0.00     0.195 C 
BRANCH  22  23
HETATM   23  O   UNL     1       4.825  25.284  55.627  1.00  0.00    -0.371 OA
HETATM   24  H   UNL     1       4.656  26.111  56.119  1.00  0.00     0.212 HD
ENDBRANCH  22  23
BRANCH  22  25
HETATM   25  C   UNL     1       6.834  24.447  54.590  1.00  0.00    -0.010 A 
HETATM   26  C   UNL     1       7.348  23.834  55.750  1.00  0.00     0.011 A 
HETATM   27  C   UNL     1       8.289  22.805  55.663  1.00  0.00     0.001 A 
HETATM   28  C   UNL     1       8.735  22.369  54.418  1.00  0.00     0.000 A 
HETATM   29  C   UNL     1       8.242  22.961  53.258  1.00  0.00     0.001 A 
HETATM   30  C   UNL     1       7.305  23.993  53.343  1.00  0.00     0.011 A 
ENDBRANCH  22  25
BRANCH  22  31
HETATM   31  C   UNL     1       6.452  26.930  55.202  1.00  0.00    -0.010 A 
HETATM   32  C   UNL     1       7.633  27.500  54.695  1.00  0.00     0.011 A 
HETATM   33  C   UNL     1       8.146  28.685  55.231  1.00  0.00     0.001 A 
HETATM   34  C   UNL     1       7.489  29.326  56.278  1.00  0.00     0.000 A 
HETATM   35  C   UNL     1       6.310  28.792  56.786  1.00  0.00     0.001 A 
HETATM   36  C   UNL     1       5.795  27.610  56.249  1.00  0.00     0.011 A 
ENDBRANCH  22  31
ENDBRANCH   2  22
TORSDOF 8
ENDMDL
