MODEL 1
REMARK VINA RESULT:      -9.8      0.000      0.000
REMARK  3 active torsions:
REMARK  status: ('A' for Active; 'I' for Inactive)
REMARK    1  A    between atoms: C_6  and  N_7 
REMARK       I    between atoms: N_7  and  C_8 
REMARK    2  A    between atoms: C_8  and  C_9 
REMARK    3  A    between atoms: C_9  and  C_10 
ROOT
HETATM    1  C   UNL     1       7.067  28.662  55.727  1.00  0.00     0.286 C 
HETATM    2  N   UNL     1       8.242  27.956  56.419  1.00  0.00    -0.056 N 
HETATM    3  H   UNL     1       7.832  27.183  56.988  1.00  0.00     0.278 HD
HETATM    4  H   UNL     1       8.837  27.484  55.727  1.00  0.00     0.278 HD
HETATM    5  C   UNL     1       9.058  28.781  57.368  1.00  0.00     0.209 C 
HETATM    6  C   UNL     1       8.121  29.554  58.324  1.00  0.00     0.115 C 
HETATM    7  N   UNL     1       7.110  30.317  57.602  1.00  0.00    -0.353 N 
HETATM    8  C   UNL     1       6.433  29.823  56.521  1.00  0.00     0.249 C 
HETATM    9  O   UNL     1       5.374  30.339  56.171  1.00  0.00    -0.271 OA
HETATM   10  C   UNL     1      10.002  29.697  56.591  1.00  0.00     0.035 C 
HETATM   11  C   UNL     1      10.801  30.580  57.549  1.00  0.00     0.002 C 
HETATM   12  C   UNL     1       9.890  31.374  58.484  1.00  0.00     0.002 C 
HETATM   13  C   UNL     1       8.928  30.466  59.252  1.00  0.00     0.027 C 
HETATM   14  H   UNL     1       6.579  31.021  58.111  1.00  0.00     0.163 HD
ENDROOT
BRANCH   1  15
HETATM   15  C   UNL     1       5.968  27.644  55.378  1.00  0.00     0.146 C 
BRANCH  15  16
HETATM   16  C   UNL     1       6.638  26.547  54.582  1.00  0.00     0.224 C 
HETATM   17  N   UNL     1       6.189  25.278  54.837  1.00  0.00    -0.327 N 
HETATM   18  H   UNL     1       5.312  25.164  55.336  1.00  0.00     0.169 HD
HETATM   19  O   UNL     1       7.597  26.876  53.880  1.00  0.00    -0.273 OA
BRANCH  17  20
HETATM   20  C   UNL     1       6.858  24.073  54.522  1.00  0.00     0.035 A 
HETATM   21  C   UNL     1       7.249  23.128  55.474  1.00  0.00     0.037 A 
HETATM   22  C   UNL     1       7.834  21.905  55.096  1.00  0.00    -0.054 A 
HETATM   23  C   UNL     1       8.075  21.646  53.735  1.00  0.00    -0.056 A 
HETATM   24  C   UNL     1       8.209  20.913  56.165  1.00  0.00     0.049 C 
HETATM   25  C   UNL     1       8.695  20.356  53.273  1.00  0.00     0.049 C 
HETATM   26  C   UNL     1       7.685  22.598  52.783  1.00  0.00     0.009 A 
HETATM   27  C   UNL     1       7.079  23.796  53.171  1.00  0.00     0.030 A 
ENDBRANCH  17  20
ENDBRANCH  15  16
ENDBRANCH   1  15
TORSDOF 3
ENDMDL
MODEL 2
REMARK VINA RESULT:      -9.6      2.869      4.810
REMARK  3 active torsions:
REMARK  status: ('A' for Active; 'I' for Inactive)
REMARK    1  A    between atoms: C_6  and  N_7 
REMARK       I    between atoms: N_7  and  C_8 
REMARK    2  A    between atoms: C_8  and  C_9 
REMARK    3  A    between atoms: C_9  and  C_10 
ROOT
HETATM    1  C   UNL     1       5.795  28.113  55.186  1.00  0.00     0.286 C 
HETATM    2  N   UNL     1       4.471  27.461  54.766  1.00  0.00    -0.056 N 
HETATM    3  H   UNL     1       4.527  26.459  55.051  1.00  0.00     0.278 HD
HETATM    4  H   UNL     1       3.691  27.844  55.313  1.00  0.00     0.278 HD
HETATM    5  C   UNL     1       4.159  27.456  53.299  1.00  0.00     0.209 C 
HETATM    6  C   UNL     1       5.393  26.971  52.505  1.00  0.00     0.115 C 
HETATM    7  N   UNL     1       6.595  27.722  52.849  1.00  0.00    -0.353 N 
HETATM    8  C   UNL     1       6.922  28.063  54.133  1.00  0.00     0.249 C 
HETATM    9  O   UNL     1       8.077  28.371  54.411  1.00  0.00    -0.271 OA
HETATM   10  C   UNL     1       3.675  28.838  52.860  1.00  0.00     0.035 C 
HETATM   11  C   UNL     1       3.404  28.857  51.356  1.00  0.00     0.002 C 
HETATM   12  C   UNL     1       4.624  28.408  50.553  1.00  0.00     0.002 C 
HETATM   13  C   UNL     1       5.126  27.034  50.999  1.00  0.00     0.027 C 
HETATM   14  H   UNL     1       7.411  27.634  52.245  1.00  0.00     0.163 HD
ENDROOT
BRANCH   1  15
HETATM   15  C   UNL     1       6.309  27.477  56.489  1.00  0.00     0.146 C 
BRANCH  15  16
HETATM   16  C   UNL     1       6.342  25.984  56.254  1.00  0.00     0.224 C 
HETATM   17  N   UNL     1       7.514  25.496  55.738  1.00  0.00    -0.327 N 
HETATM   18  H   UNL     1       8.341  26.086  55.768  1.00  0.00     0.169 HD
HETATM   19  O   UNL     1       5.286  25.371  56.426  1.00  0.00    -0.273 OA
BRANCH  17  20
HETATM   20  C   UNL     1       7.694  24.247  55.101  1.00  0.00     0.035 A 
HETATM   21  C   UNL     1       7.735  23.026  55.779  1.00  0.00     0.037 A 
HETATM   22  C   UNL     1       7.829  21.805  55.085  1.00  0.00    -0.054 A 
HETATM   23  C   UNL     1       7.932  21.813  53.683  1.00  0.00    -0.056 A 
HETATM   24  C   UNL     1       7.842  20.519  55.868  1.00  0.00     0.049 C 
HETATM   25  C   UNL     1       8.032  20.539  52.890  1.00  0.00     0.049 C 
HETATM   26  C   UNL     1       7.893  23.040  53.006  1.00  0.00     0.009 A 
HETATM   27  C   UNL     1       7.770  24.244  53.706  1.00  0.00     0.030 A 
ENDBRANCH  17  20
ENDBRANCH  15  16
ENDBRANCH   1  15
TORSDOF 3
ENDMDL
MODEL 3
REMARK VINA RESULT:      -9.4      4.601      7.215
REMARK  3 active torsions:
REMARK  status: ('A' for Active; 'I' for Inactive)
REMARK    1  A    between atoms: C_6  and  N_7 
REMARK       I    between atoms: N_7  and  C_8 
REMARK    2  A    between atoms: C_8  and  C_9 
REMARK    3  A    between atoms: C_9  and  C_10 
ROOT
HETATM    1  C   UNL     1       4.849  26.854  51.070  1.00  0.00     0.286 C 
HETATM    2  N   UNL     1       5.426  26.410  49.719  1.00  0.00    -0.056 N 
HETATM    3  H   UNL     1       6.366  26.855  49.635  1.00  0.00     0.278 HD
HETATM    4  H   UNL     1       5.614  25.400  49.721  1.00  0.00     0.278 HD
HETATM    5  C   UNL     1       4.663  26.820  48.494  1.00  0.00     0.209 C 
HETATM    6  C   UNL     1       4.311  28.323  48.579  1.00  0.00     0.115 C 
HETATM    7  N   UNL     1       3.640  28.658  49.830  1.00  0.00    -0.353 N 
HETATM    8  C   UNL     1       4.029  28.161  51.044  1.00  0.00     0.249 C 
HETATM    9  O   UNL     1       3.681  28.723  52.079  1.00  0.00    -0.271 OA
HETATM   10  C   UNL     1       3.434  25.930  48.318  1.00  0.00     0.035 C 
HETATM   11  C   UNL     1       2.622  26.374  47.101  1.00  0.00     0.002 C 
HETATM   12  C   UNL     1       2.239  27.851  47.183  1.00  0.00     0.002 C 
HETATM   13  C   UNL     1       3.462  28.749  47.378  1.00  0.00     0.027 C 
HETATM   14  H   UNL     1       3.178  29.563  49.906  1.00  0.00     0.163 HD
ENDROOT
BRANCH   1  15
HETATM   15  C   UNL     1       5.977  26.999  52.106  1.00  0.00     0.146 C 
BRANCH  15  16
HETATM   16  C   UNL     1       5.905  25.776  52.991  1.00  0.00     0.224 C 
HETATM   17  N   UNL     1       7.111  25.287  53.418  1.00  0.00    -0.327 N 
HETATM   18  H   UNL     1       7.934  25.877  53.329  1.00  0.00     0.169 HD
HETATM   19  O   UNL     1       4.793  25.265  53.144  1.00  0.00    -0.273 OA
BRANCH  17  20
HETATM   20  C   UNL     1       7.357  23.994  53.934  1.00  0.00     0.035 A 
HETATM   21  C   UNL     1       7.639  22.879  53.140  1.00  0.00     0.037 A 
HETATM   22  C   UNL     1       7.962  21.634  53.711  1.00  0.00    -0.054 A 
HETATM   23  C   UNL     1       7.955  21.494  55.110  1.00  0.00    -0.056 A 
HETATM   24  C   UNL     1       8.283  20.476  52.805  1.00  0.00     0.049 C 
HETATM   25  C   UNL     1       8.294  20.188  55.775  1.00  0.00     0.049 C 
HETATM   26  C   UNL     1       7.668  22.613  55.904  1.00  0.00     0.009 A 
HETATM   27  C   UNL     1       7.378  23.851  55.323  1.00  0.00     0.030 A 
ENDBRANCH  17  20
ENDBRANCH  15  16
ENDBRANCH   1  15
TORSDOF 3
ENDMDL
MODEL 4
REMARK VINA RESULT:      -8.9      1.559      7.653
REMARK  3 active torsions:
REMARK  status: ('A' for Active; 'I' for Inactive)
REMARK    1  A    between atoms: C_6  and  N_7 
REMARK       I    between atoms: N_7  and  C_8 
REMARK    2  A    between atoms: C_8  and  C_9 
REMARK    3  A    between atoms: C_9  and  C_10 
ROOT
HETATM    1  C   UNL     1       5.848  25.499  54.714  1.00  0.00     0.286 C 
HETATM    2  N   UNL     1       7.282  25.326  55.234  1.00  0.00    -0.056 N 
HETATM    3  H   UNL     1       7.851  26.087  54.801  1.00  0.00     0.278 HD
HETATM    4  H   UNL     1       7.324  25.510  56.243  1.00  0.00     0.278 HD
HETATM    5  C   UNL     1       7.974  24.042  54.883  1.00  0.00     0.209 C 
HETATM    6  C   UNL     1       7.798  23.751  53.375  1.00  0.00     0.115 C 
HETATM    7  N   UNL     1       6.398  23.795  52.969  1.00  0.00    -0.353 N 
HETATM    8  C   UNL     1       5.523  24.752  53.403  1.00  0.00     0.249 C 
HETATM    9  O   UNL     1       4.484  24.962  52.784  1.00  0.00    -0.271 OA
HETATM   10  C   UNL     1       7.462  22.910  55.771  1.00  0.00     0.035 C 
HETATM   11  C   UNL     1       8.124  21.587  55.386  1.00  0.00     0.002 C 
HETATM   12  C   UNL     1       7.935  21.268  53.904  1.00  0.00     0.002 C 
HETATM   13  C   UNL     1       8.428  22.404  53.007  1.00  0.00     0.027 C 
HETATM   14  H   UNL     1       6.146  23.416  52.057  1.00  0.00     0.163 HD
ENDROOT
BRANCH   1  15
HETATM   15  C   UNL     1       5.531  26.993  54.523  1.00  0.00     0.146 C 
BRANCH  15  16
HETATM   16  C   UNL     1       5.971  27.689  55.789  1.00  0.00     0.224 C 
HETATM   17  N   UNL     1       6.699  28.836  55.608  1.00  0.00    -0.327 N 
HETATM   18  H   UNL     1       6.698  29.272  54.690  1.00  0.00     0.169 HD
HETATM   19  O   UNL     1       5.747  27.105  56.852  1.00  0.00    -0.273 OA
BRANCH  17  20
HETATM   20  C   UNL     1       7.520  29.469  56.569  1.00  0.00     0.035 A 
HETATM   21  C   UNL     1       8.916  29.405  56.563  1.00  0.00     0.037 A 
HETATM   22  C   UNL     1       9.687  30.127  57.493  1.00  0.00    -0.054 A 
HETATM   23  C   UNL     1       9.041  30.892  58.480  1.00  0.00    -0.056 A 
HETATM   24  C   UNL     1      11.188  30.041  57.422  1.00  0.00     0.049 C 
HETATM   25  C   UNL     1       9.813  31.686  59.497  1.00  0.00     0.049 C 
HETATM   26  C   UNL     1       7.641  30.952  58.484  1.00  0.00     0.009 A 
HETATM   27  C   UNL     1       6.888  30.252  57.537  1.00  0.00     0.030 A 
ENDBRANCH  17  20
ENDBRANCH  15  16
ENDBRANCH   1  15
TORSDOF 3
ENDMDL
MODEL 5
REMARK VINA RESULT:      -8.5      2.678      3.438
REMARK  3 active torsions:
REMARK  status: ('A' for Active; 'I' for Inactive)
REMARK    1  A    between atoms: C_6  and  N_7 
REMARK       I    between atoms: N_7  and  C_8 
REMARK    2  A    between atoms: C_8  and  C_9 
REMARK    3  A    between atoms: C_9  and  C_10 
ROOT
HETATM    1  C   UNL     1       5.305  27.964  56.571  1.00  0.00     0.286 C 
HETATM    2  N   UNL     1       4.919  28.853  57.762  1.00  0.00    -0.056 N 
HETATM    3  H   UNL     1       4.114  28.387  58.234  1.00  0.00     0.278 HD
HETATM    4  H   UNL     1       5.668  28.859  58.465  1.00  0.00     0.278 HD
HETATM    5  C   UNL     1       4.462  30.245  57.441  1.00  0.00     0.209 C 
HETATM    6  C   UNL     1       3.412  30.200  56.307  1.00  0.00     0.115 C 
HETATM    7  N   UNL     1       3.891  29.456  55.148  1.00  0.00    -0.353 N 
HETATM    8  C   UNL     1       4.578  28.277  55.247  1.00  0.00     0.249 C 
HETATM    9  O   UNL     1       4.650  27.524  54.280  1.00  0.00    -0.271 OA
HETATM   10  C   UNL     1       5.662  31.129  57.105  1.00  0.00     0.035 C 
HETATM   11  C   UNL     1       5.201  32.536  56.726  1.00  0.00     0.002 C 
HETATM   12  C   UNL     1       4.184  32.513  55.586  1.00  0.00     0.002 C 
HETATM   13  C   UNL     1       2.988  31.615  55.906  1.00  0.00     0.027 C 
HETATM   14  H   UNL     1       3.376  29.538  54.273  1.00  0.00     0.163 HD
ENDROOT
BRANCH   1  15
HETATM   15  C   UNL     1       5.078  26.483  56.921  1.00  0.00     0.146 C 
BRANCH  15  16
HETATM   16  C   UNL     1       6.249  25.722  56.344  1.00  0.00     0.224 C 
HETATM   17  N   UNL     1       5.955  24.906  55.284  1.00  0.00    -0.327 N 
HETATM   18  H   UNL     1       5.067  25.030  54.807  1.00  0.00     0.169 HD
HETATM   19  O   UNL     1       7.321  25.808  56.949  1.00  0.00    -0.273 OA
BRANCH  17  20
HETATM   20  C   UNL     1       6.750  23.841  54.800  1.00  0.00     0.035 A 
HETATM   21  C   UNL     1       7.237  22.806  55.602  1.00  0.00     0.037 A 
HETATM   22  C   UNL     1       7.950  21.724  55.051  1.00  0.00    -0.054 A 
HETATM   23  C   UNL     1       8.221  21.708  53.671  1.00  0.00    -0.056 A 
HETATM   24  C   UNL     1       8.427  20.624  55.961  1.00  0.00     0.049 C 
HETATM   25  C   UNL     1       8.976  20.577  53.028  1.00  0.00     0.049 C 
HETATM   26  C   UNL     1       7.733  22.749  52.870  1.00  0.00     0.009 A 
HETATM   27  C   UNL     1       7.002  23.802  53.427  1.00  0.00     0.030 A 
ENDBRANCH  17  20
ENDBRANCH  15  16
ENDBRANCH   1  15
TORSDOF 3
ENDMDL
MODEL 6
REMARK VINA RESULT:      -8.4      3.455      9.202
REMARK  3 active torsions:
REMARK  status: ('A' for Active; 'I' for Inactive)
REMARK    1  A    between atoms: C_6  and  N_7 
REMARK       I    between atoms: N_7  and  C_8 
REMARK    2  A    between atoms: C_8  and  C_9 
REMARK    3  A    between atoms: C_9  and  C_10 
ROOT
HETATM    1  C   UNL     1       6.519  29.271  57.539  1.00  0.00     0.286 C 
HETATM    2  N   UNL     1       7.953  28.750  57.370  1.00  0.00    -0.056 N 
HETATM    3  H   UNL     1       8.442  29.419  56.736  1.00  0.00     0.278 HD
HETATM    4  H   UNL     1       8.465  28.809  58.258  1.00  0.00     0.278 HD
HETATM    5  C   UNL     1       8.107  27.397  56.741  1.00  0.00     0.209 C 
HETATM    6  C   UNL     1       7.240  27.315  55.464  1.00  0.00     0.115 C 
HETATM    7  N   UNL     1       5.854  27.691  55.719  1.00  0.00    -0.353 N 
HETATM    8  C   UNL     1       5.500  28.755  56.502  1.00  0.00     0.249 C 
HETATM    9  O   UNL     1       4.376  29.241  56.408  1.00  0.00    -0.271 OA
HETATM   10  C   UNL     1       7.776  26.304  57.756  1.00  0.00     0.035 C 
HETATM   11  C   UNL     1       7.880  24.923  57.109  1.00  0.00     0.002 C 
HETATM   12  C   UNL     1       7.006  24.814  55.861  1.00  0.00     0.002 C 
HETATM   13  C   UNL     1       7.317  25.915  54.847  1.00  0.00     0.027 C 
HETATM   14  H   UNL     1       5.155  27.474  55.010  1.00  0.00     0.163 HD
ENDROOT
BRANCH   1  15
HETATM   15  C   UNL     1       6.509  30.809  57.518  1.00  0.00     0.146 C 
BRANCH  15  16
HETATM   16  C   UNL     1       7.221  31.259  58.773  1.00  0.00     0.224 C 
HETATM   17  N   UNL     1       6.450  31.298  59.904  1.00  0.00    -0.327 N 
HETATM   18  H   UNL     1       5.555  30.817  59.900  1.00  0.00     0.169 HD
HETATM   19  O   UNL     1       8.379  31.663  58.641  1.00  0.00    -0.273 OA
BRANCH  17  20
HETATM   20  C   UNL     1       6.743  32.001  61.096  1.00  0.00     0.035 A 
HETATM   21  C   UNL     1       6.173  33.231  61.435  1.00  0.00     0.037 A 
HETATM   22  C   UNL     1       6.435  33.844  62.674  1.00  0.00    -0.054 A 
HETATM   23  C   UNL     1       7.326  33.231  63.573  1.00  0.00    -0.056 A 
HETATM   24  C   UNL     1       5.771  35.156  62.995  1.00  0.00     0.049 C 
HETATM   25  C   UNL     1       7.642  33.840  64.912  1.00  0.00     0.049 C 
HETATM   26  C   UNL     1       7.898  31.999  63.228  1.00  0.00     0.009 A 
HETATM   27  C   UNL     1       7.607  31.388  62.006  1.00  0.00     0.030 A 
ENDBRANCH  17  20
ENDBRANCH  15  16
ENDBRANCH   1  15
TORSDOF 3
ENDMDL
MODEL 7
REMARK VINA RESULT:      -8.4      1.847      7.928
REMARK  3 active torsions:
REMARK  status: ('A' for Active; 'I' for Inactive)
REMARK    1  A    between atoms: C_6  and  N_7 
REMARK       I    between atoms: N_7  and  C_8 
REMARK    2  A    between atoms: C_8  and  C_9 
REMARK    3  A    between atoms: C_9  and  C_10 
ROOT
HETATM    1  C   UNL     1       5.736  27.170  55.017  1.00  0.00     0.286 C 
HETATM    2  N   UNL     1       7.187  26.789  55.341  1.00  0.00    -0.056 N 
HETATM    3  H   UNL     1       7.785  27.580  55.015  1.00  0.00     0.278 HD
HETATM    4  H   UNL     1       7.332  26.753  56.357  1.00  0.00     0.278 HD
HETATM    5  C   UNL     1       7.726  25.560  54.669  1.00  0.00     0.209 C 
HETATM    6  C   UNL     1       7.396  25.606  53.160  1.00  0.00     0.115 C 
HETATM    7  N   UNL     1       5.976  25.835  52.916  1.00  0.00    -0.353 N 
HETATM    8  C   UNL     1       5.234  26.741  53.623  1.00  0.00     0.249 C 
HETATM    9  O   UNL     1       4.168  27.150  53.169  1.00  0.00    -0.271 OA
HETATM   10  C   UNL     1       7.189  24.307  55.358  1.00  0.00     0.035 C 
HETATM   11  C   UNL     1       7.691  23.049  54.648  1.00  0.00     0.002 C 
HETATM   12  C   UNL     1       7.348  23.063  53.159  1.00  0.00     0.002 C 
HETATM   13  C   UNL     1       7.865  24.324  52.465  1.00  0.00     0.027 C 
HETATM   14  H   UNL     1       5.613  25.675  51.978  1.00  0.00     0.163 HD
ENDROOT
BRANCH   1  15
HETATM   15  C   UNL     1       5.543  28.689  55.165  1.00  0.00     0.146 C 
BRANCH  15  16
HETATM   16  C   UNL     1       5.872  29.025  56.602  1.00  0.00     0.224 C 
HETATM   17  N   UNL     1       6.437  30.256  56.803  1.00  0.00    -0.327 N 
HETATM   18  H   UNL     1       6.385  30.943  56.057  1.00  0.00     0.169 HD
HETATM   19  O   UNL     1       5.720  28.125  57.431  1.00  0.00    -0.273 OA
BRANCH  17  20
HETATM   20  C   UNL     1       7.155  30.672  57.948  1.00  0.00     0.035 A 
HETATM   21  C   UNL     1       6.625  31.502  58.940  1.00  0.00     0.037 A 
HETATM   22  C   UNL     1       7.356  31.814  60.102  1.00  0.00    -0.054 A 
HETATM   23  C   UNL     1       8.664  31.321  60.249  1.00  0.00    -0.056 A 
HETATM   24  C   UNL     1       6.723  32.691  61.149  1.00  0.00     0.049 C 
HETATM   25  C   UNL     1       9.490  31.620  61.470  1.00  0.00     0.049 C 
HETATM   26  C   UNL     1       9.193  30.491  59.251  1.00  0.00     0.009 A 
HETATM   27  C   UNL     1       8.446  30.166  58.115  1.00  0.00     0.030 A 
ENDBRANCH  17  20
ENDBRANCH  15  16
ENDBRANCH   1  15
TORSDOF 3
ENDMDL
MODEL 8
REMARK VINA RESULT:      -8.3      3.597      7.338
REMARK  3 active torsions:
REMARK  status: ('A' for Active; 'I' for Inactive)
REMARK    1  A    between atoms: C_6  and  N_7 
REMARK       I    between atoms: N_7  and  C_8 
REMARK    2  A    between atoms: C_8  and  C_9 
REMARK    3  A    between atoms: C_9  and  C_10 
ROOT
HETATM    1  C   UNL     1       8.009  24.683  55.037  1.00  0.00     0.286 C 
HETATM    2  N   UNL     1       7.150  23.764  54.157  1.00  0.00    -0.056 N 
HETATM    3  H   UNL     1       6.160  23.902  54.458  1.00  0.00     0.278 HD
HETATM    4  H   UNL     1       7.171  24.078  53.179  1.00  0.00     0.278 HD
HETATM    5  C   UNL     1       7.414  22.291  54.265  1.00  0.00     0.209 C 
HETATM    6  C   UNL     1       7.475  21.881  55.753  1.00  0.00     0.115 C 
HETATM    7  N   UNL     1       8.414  22.703  56.509  1.00  0.00    -0.353 N 
HETATM    8  C   UNL     1       8.512  24.059  56.355  1.00  0.00     0.249 C 
HETATM    9  O   UNL     1       9.039  24.740  57.230  1.00  0.00    -0.271 OA
HETATM   10  C   UNL     1       8.681  21.927  53.493  1.00  0.00     0.035 C 
HETATM   11  C   UNL     1       8.987  20.437  53.640  1.00  0.00     0.002 C 
HETATM   12  C   UNL     1       9.081  20.018  55.107  1.00  0.00     0.002 C 
HETATM   13  C   UNL     1       7.824  20.396  55.891  1.00  0.00     0.027 C 
HETATM   14  H   UNL     1       8.691  22.392  57.439  1.00  0.00     0.163 HD
ENDROOT
BRANCH   1  15
HETATM   15  C   UNL     1       7.239  25.975  55.364  1.00  0.00     0.146 C 
BRANCH  15  16
HETATM   16  C   UNL     1       6.963  26.655  54.043  1.00  0.00     0.224 C 
HETATM   17  N   UNL     1       5.641  26.762  53.702  1.00  0.00    -0.327 N 
HETATM   18  H   UNL     1       4.939  26.612  54.422  1.00  0.00     0.169 HD
HETATM   19  O   UNL     1       7.942  26.933  53.345  1.00  0.00    -0.273 OA
BRANCH  17  20
HETATM   20  C   UNL     1       5.125  27.013  52.409  1.00  0.00     0.035 A 
HETATM   21  C   UNL     1       4.525  28.217  52.031  1.00  0.00     0.037 A 
HETATM   22  C   UNL     1       4.108  28.443  50.706  1.00  0.00    -0.054 A 
HETATM   23  C   UNL     1       4.253  27.420  49.752  1.00  0.00    -0.056 A 
HETATM   24  C   UNL     1       3.492  29.770  50.350  1.00  0.00     0.049 C 
HETATM   25  C   UNL     1       3.827  27.607  48.321  1.00  0.00     0.049 C 
HETATM   26  C   UNL     1       4.853  26.213  50.136  1.00  0.00     0.009 A 
HETATM   27  C   UNL     1       5.288  26.013  51.448  1.00  0.00     0.030 A 
ENDBRANCH  17  20
ENDBRANCH  15  16
ENDBRANCH   1  15
TORSDOF 3
ENDMDL
MODEL 9
REMARK VINA RESULT:      -8.3      1.838      2.733
REMARK  3 active torsions:
REMARK  status: ('A' for Active; 'I' for Inactive)
REMARK    1  A    between atoms: C_6  and  N_7 
REMARK       I    between atoms: N_7  and  C_8 
REMARK    2  A    between atoms: C_8  and  C_9 
REMARK    3  A    between atoms: C_9  and  C_10 
ROOT
HETATM    1  C   UNL     1       5.873  28.354  54.753  1.00  0.00     0.286 C 
HETATM    2  N   UNL     1       6.057  27.908  56.211  1.00  0.00    -0.056 N 
HETATM    3  H   UNL     1       5.332  27.181  56.395  1.00  0.00     0.278 HD
HETATM    4  H   UNL     1       6.953  27.418  56.327  1.00  0.00     0.278 HD
HETATM    5  C   UNL     1       5.868  28.958  57.264  1.00  0.00     0.209 C 
HETATM    6  C   UNL     1       4.562  29.739  56.992  1.00  0.00     0.115 C 
HETATM    7  N   UNL     1       4.507  30.256  55.630  1.00  0.00    -0.353 N 
HETATM    8  C   UNL     1       4.898  29.530  54.538  1.00  0.00     0.249 C 
HETATM    9  O   UNL     1       4.517  29.852  53.416  1.00  0.00    -0.271 OA
HETATM   10  C   UNL     1       7.098  29.862  57.333  1.00  0.00     0.035 C 
HETATM   11  C   UNL     1       6.893  30.967  58.369  1.00  0.00     0.002 C 
HETATM   12  C   UNL     1       5.621  31.769  58.098  1.00  0.00     0.002 C 
HETATM   13  C   UNL     1       4.387  30.871  58.009  1.00  0.00     0.027 C 
HETATM   14  H   UNL     1       3.802  30.955  55.404  1.00  0.00     0.163 HD
ENDROOT
BRANCH   1  15
HETATM   15  C   UNL     1       5.413  27.166  53.890  1.00  0.00     0.146 C 
BRANCH  15  16
HETATM   16  C   UNL     1       6.511  26.130  53.967  1.00  0.00     0.224 C 
HETATM   17  N   UNL     1       6.093  24.826  53.922  1.00  0.00    -0.327 N 
HETATM   18  H   UNL     1       5.146  24.630  53.610  1.00  0.00     0.169 HD
HETATM   19  O   UNL     1       7.652  26.545  54.185  1.00  0.00    -0.273 OA
BRANCH  17  20
HETATM   20  C   UNL     1       6.836  23.693  54.326  1.00  0.00     0.035 A 
HETATM   21  C   UNL     1       7.284  22.703  53.448  1.00  0.00     0.037 A 
HETATM   22  C   UNL     1       8.095  21.641  53.892  1.00  0.00    -0.054 A 
HETATM   23  C   UNL     1       8.422  21.547  55.256  1.00  0.00    -0.056 A 
HETATM   24  C   UNL     1       8.570  20.618  52.895  1.00  0.00     0.049 C 
HETATM   25  C   UNL     1       9.287  20.436  55.786  1.00  0.00     0.049 C 
HETATM   26  C   UNL     1       7.969  22.540  56.134  1.00  0.00     0.009 A 
HETATM   27  C   UNL     1       7.189  23.604  55.675  1.00  0.00     0.030 A 
ENDBRANCH  17  20
ENDBRANCH  15  16
ENDBRANCH   1  15
TORSDOF 3
ENDMDL
MODEL 10
REMARK VINA RESULT:      -8.2      6.200      9.404
REMARK  3 active torsions:
REMARK  status: ('A' for Active; 'I' for Inactive)
REMARK    1  A    between atoms: C_6  and  N_7 
REMARK       I    between atoms: N_7  and  C_8 
REMARK    2  A    between atoms: C_8  and  C_9 
REMARK    3  A    between atoms: C_9  and  C_10 
ROOT
HETATM    1  C   UNL     1       5.503  33.539  62.926  1.00  0.00     0.286 C 
HETATM    2  N   UNL     1       5.213  32.731  64.199  1.00  0.00    -0.056 N 
HETATM    3  H   UNL     1       4.439  32.072  63.964  1.00  0.00     0.278 HD
HETATM    4  H   UNL     1       6.010  32.126  64.431  1.00  0.00     0.278 HD
HETATM    5  C   UNL     1       4.748  33.507  65.396  1.00  0.00     0.209 C 
HETATM    6  C   UNL     1       3.620  34.478  64.981  1.00  0.00     0.115 C 
HETATM    7  N   UNL     1       4.007  35.316  63.851  1.00  0.00    -0.353 N 
HETATM    8  C   UNL     1       4.687  34.838  62.765  1.00  0.00     0.249 C 
HETATM    9  O   UNL     1       4.682  35.468  61.710  1.00  0.00    -0.271 OA
HETATM   10  C   UNL     1       5.931  34.214  66.055  1.00  0.00     0.035 C 
HETATM   11  C   UNL     1       5.459  35.049  67.245  1.00  0.00     0.002 C 
HETATM   12  C   UNL     1       4.363  36.037  66.847  1.00  0.00     0.002 C 
HETATM   13  C   UNL     1       3.183  35.339  66.169  1.00  0.00     0.027 C 
HETATM   14  H   UNL     1       3.432  36.127  63.630  1.00  0.00     0.163 HD
ENDROOT
BRANCH   1  15
HETATM   15  C   UNL     1       5.286  32.661  61.681  1.00  0.00     0.146 C 
BRANCH  15  16
HETATM   16  C   UNL     1       6.654  32.412  61.089  1.00  0.00     0.224 C 
HETATM   17  N   UNL     1       6.661  31.904  59.817  1.00  0.00    -0.327 N 
HETATM   18  H   UNL     1       5.805  31.947  59.271  1.00  0.00     0.169 HD
HETATM   19  O   UNL     1       7.621  32.568  61.839  1.00  0.00    -0.273 OA
BRANCH  17  20
HETATM   20  C   UNL     1       7.743  31.256  59.178  1.00  0.00     0.035 A 
HETATM   21  C   UNL     1       7.645  30.009  58.554  1.00  0.00     0.037 A 
HETATM   22  C   UNL     1       8.733  29.450  57.857  1.00  0.00    -0.054 A 
HETATM   23  C   UNL     1       9.960  30.137  57.828  1.00  0.00    -0.056 A 
HETATM   24  C   UNL     1       8.561  28.116  57.182  1.00  0.00     0.049 C 
HETATM   25  C   UNL     1      11.155  29.589  57.097  1.00  0.00     0.049 C 
HETATM   26  C   UNL     1      10.055  31.385  58.457  1.00  0.00     0.009 A 
HETATM   27  C   UNL     1       8.958  31.942  59.121  1.00  0.00     0.030 A 
ENDBRANCH  17  20
ENDBRANCH  15  16
ENDBRANCH   1  15
TORSDOF 3
ENDMDL
