MODEL 1
REMARK VINA RESULT:      -8.8      0.000      0.000
REMARK  6 active torsions:
REMARK  status: ('A' for Active; 'I' for Inactive)
REMARK    1  A    between atoms: C_6  and  O_7 
REMARK    2  A    between atoms: C_8  and  C_9 
REMARK    3  A    between atoms: C_9  and  N_10 
REMARK    4  A    between atoms: N_10  and  C_12 
REMARK    5  A    between atoms: C_12  and  C_13 
REMARK    6  A    between atoms: C_12  and  C_16 
REMARK       I    between atoms: C_13  and  N_14 
ROOT
HETATM    1  N   UNL     1       7.580  26.242  56.023  1.00  0.00    -0.054 N 
HETATM    2  H   UNL     1       8.250  26.119  55.249  1.00  0.00     0.281 HD
HETATM    3  C   UNL     1       8.288  25.881  57.296  1.00  0.00     0.271 C 
ENDROOT
BRANCH   1   4
HETATM    4  C   UNL     1       6.487  25.249  55.684  1.00  0.00     0.277 C 
BRANCH   4   5
HETATM    5  C   UNL     1       7.020  24.029  54.974  1.00  0.00     0.001 A 
HETATM    6  C   UNL     1       7.295  24.055  53.605  1.00  0.00     0.074 A 
HETATM    7  C   UNL     1       7.808  22.939  52.950  1.00  0.00     0.044 A 
HETATM    8  C   UNL     1       8.072  21.760  53.666  1.00  0.00    -0.053 A 
HETATM    9  C   UNL     1       7.786  21.708  55.045  1.00  0.00    -0.055 A 
HETATM   10  C   UNL     1       8.645  20.571  52.941  1.00  0.00     0.049 C 
HETATM   11  C   UNL     1       8.071  20.474  55.860  1.00  0.00     0.049 C 
HETATM   12  C   UNL     1       7.263  22.845  55.685  1.00  0.00     0.019 A 
BRANCH   6  13
HETATM   13  O   UNL     1       7.094  25.228  52.929  1.00  0.00    -0.360 OA
HETATM   14  H   UNL     1       6.151  25.258  52.665  1.00  0.00     0.217 HD
ENDBRANCH   6  13
ENDBRANCH   4   5
ENDBRANCH   1   4
BRANCH   1  15
HETATM   15  C   UNL     1       7.150  27.714  55.995  1.00  0.00     0.312 C 
BRANCH  15  16
HETATM   16  C   UNL     1       6.914  28.284  54.568  1.00  0.00     0.251 C 
HETATM   17  N   UNL     1       5.866  29.149  54.410  1.00  0.00    -0.368 N 
HETATM   18  H   UNL     1       5.392  29.611  55.179  1.00  0.00     0.159 HD
HETATM   19  H   UNL     1       5.732  29.555  53.489  1.00  0.00     0.159 HD
HETATM   20  O   UNL     1       7.589  27.957  53.595  1.00  0.00    -0.271 OA
ENDBRANCH  15  16
BRANCH  15  21
HETATM   21  C   UNL     1       8.031  28.592  56.872  1.00  0.00    -0.016 A 
HETATM   22  C   UNL     1       9.350  28.862  56.466  1.00  0.00     0.052 A 
HETATM   23  C   UNL     1      10.177  29.662  57.249  1.00  0.00     0.117 A 
HETATM   24  F   UNL     1      11.430  29.899  56.842  1.00  0.00    -0.206 F 
HETATM   25  C   UNL     1       9.724  30.212  58.438  1.00  0.00     0.042 A 
HETATM   26  C   UNL     1       8.416  29.966  58.850  1.00  0.00     0.004 A 
HETATM   27  C   UNL     1       7.572  29.167  58.071  1.00  0.00     0.010 A 
ENDBRANCH  15  21
ENDBRANCH   1  15
TORSDOF 6
ENDMDL
MODEL 2
REMARK VINA RESULT:      -8.3      1.511      2.375
REMARK  6 active torsions:
REMARK  status: ('A' for Active; 'I' for Inactive)
REMARK    1  A    between atoms: C_6  and  O_7 
REMARK    2  A    between atoms: C_8  and  C_9 
REMARK    3  A    between atoms: C_9  and  N_10 
REMARK    4  A    between atoms: N_10  and  C_12 
REMARK    5  A    between atoms: C_12  and  C_13 
REMARK    6  A    between atoms: C_12  and  C_16 
REMARK       I    between atoms: C_13  and  N_14 
ROOT
HETATM    1  N   UNL     1       6.106  25.865  54.416  1.00  0.00    -0.054 N 
HETATM    2  H   UNL     1       6.057  25.481  55.372  1.00  0.00     0.281 HD
HETATM    3  C   UNL     1       4.986  25.256  53.625  1.00  0.00     0.271 C 
ENDROOT
BRANCH   1   4
HETATM    4  C   UNL     1       7.462  25.391  53.932  1.00  0.00     0.277 C 
BRANCH   4   5
HETATM    5  C   UNL     1       7.776  23.988  54.388  1.00  0.00     0.001 A 
HETATM    6  C   UNL     1       7.949  23.693  55.742  1.00  0.00     0.074 A 
HETATM    7  C   UNL     1       8.217  22.396  56.171  1.00  0.00     0.044 A 
HETATM    8  C   UNL     1       8.306  21.349  55.239  1.00  0.00    -0.053 A 
HETATM    9  C   UNL     1       8.151  21.629  53.867  1.00  0.00    -0.055 A 
HETATM   10  C   UNL     1       8.577  19.950  55.727  1.00  0.00     0.049 C 
HETATM   11  C   UNL     1       8.216  20.537  52.830  1.00  0.00     0.049 C 
HETATM   12  C   UNL     1       7.886  22.946  53.456  1.00  0.00     0.019 A 
BRANCH   6  13
HETATM   13  O   UNL     1       7.798  24.708  56.649  1.00  0.00    -0.360 OA
HETATM   14  H   UNL     1       8.688  24.935  56.988  1.00  0.00     0.217 HD
ENDBRANCH   6  13
ENDBRANCH   4   5
ENDBRANCH   1   4
BRANCH   1  15
HETATM   15  C   UNL     1       5.963  27.386  54.552  1.00  0.00     0.312 C 
BRANCH  15  16
HETATM   16  C   UNL     1       5.849  28.142  53.199  1.00  0.00     0.251 C 
HETATM   17  N   UNL     1       5.213  29.353  53.216  1.00  0.00    -0.368 N 
HETATM   18  H   UNL     1       5.024  29.882  54.060  1.00  0.00     0.159 HD
HETATM   19  H   UNL     1       5.171  29.869  52.341  1.00  0.00     0.159 HD
HETATM   20  O   UNL     1       6.257  27.680  52.136  1.00  0.00    -0.271 OA
ENDBRANCH  15  16
BRANCH  15  21
HETATM   21  C   UNL     1       6.987  27.981  55.507  1.00  0.00    -0.016 A 
HETATM   22  C   UNL     1       8.125  28.620  54.981  1.00  0.00     0.052 A 
HETATM   23  C   UNL     1       9.078  29.173  55.831  1.00  0.00     0.117 A 
HETATM   24  F   UNL     1      10.153  29.771  55.303  1.00  0.00    -0.206 F 
HETATM   25  C   UNL     1       8.929  29.114  57.208  1.00  0.00     0.042 A 
HETATM   26  C   UNL     1       7.802  28.496  57.747  1.00  0.00     0.004 A 
HETATM   27  C   UNL     1       6.835  27.939  56.905  1.00  0.00     0.010 A 
ENDBRANCH  15  21
ENDBRANCH   1  15
TORSDOF 6
ENDMDL
MODEL 3
REMARK VINA RESULT:      -8.1      3.488      4.757
REMARK  6 active torsions:
REMARK  status: ('A' for Active; 'I' for Inactive)
REMARK    1  A    between atoms: C_6  and  O_7 
REMARK    2  A    between atoms: C_8  and  C_9 
REMARK    3  A    between atoms: C_9  and  N_10 
REMARK    4  A    between atoms: N_10  and  C_12 
REMARK    5  A    between atoms: C_12  and  C_13 
REMARK    6  A    between atoms: C_12  and  C_16 
REMARK       I    between atoms: C_13  and  N_14 
ROOT
HETATM    1  N   UNL     1       5.787  25.737  54.161  1.00  0.00    -0.054 N 
HETATM    2  H   UNL     1       5.640  25.235  55.050  1.00  0.00     0.281 HD
HETATM    3  C   UNL     1       4.735  25.269  53.198  1.00  0.00     0.271 C 
ENDROOT
BRANCH   1   4
HETATM    4  C   UNL     1       7.173  25.289  53.746  1.00  0.00     0.277 C 
BRANCH   4   5
HETATM    5  C   UNL     1       7.512  23.914  54.265  1.00  0.00     0.001 A 
HETATM    6  C   UNL     1       7.529  23.646  55.635  1.00  0.00     0.074 A 
HETATM    7  C   UNL     1       7.819  22.373  56.119  1.00  0.00     0.044 A 
HETATM    8  C   UNL     1       8.090  21.324  55.226  1.00  0.00    -0.053 A 
HETATM    9  C   UNL     1       8.094  21.578  53.840  1.00  0.00    -0.055 A 
HETATM   10  C   UNL     1       8.382  19.950  55.771  1.00  0.00     0.049 C 
HETATM   11  C   UNL     1       8.357  20.481  52.842  1.00  0.00     0.049 C 
HETATM   12  C   UNL     1       7.804  22.871  53.374  1.00  0.00     0.019 A 
BRANCH   6  13
HETATM   13  O   UNL     1       7.203  24.660  56.496  1.00  0.00    -0.360 OA
HETATM   14  H   UNL     1       6.522  24.317  57.110  1.00  0.00     0.217 HD
ENDBRANCH   6  13
ENDBRANCH   4   5
ENDBRANCH   1   4
BRANCH   1  15
HETATM   15  C   UNL     1       5.657  27.231  54.482  1.00  0.00     0.312 C 
BRANCH  15  16
HETATM   16  C   UNL     1       5.061  27.536  55.885  1.00  0.00     0.251 C 
HETATM   17  N   UNL     1       4.580  26.473  56.599  1.00  0.00    -0.368 N 
HETATM   18  H   UNL     1       4.790  25.504  56.384  1.00  0.00     0.159 HD
HETATM   19  H   UNL     1       4.225  26.661  57.532  1.00  0.00     0.159 HD
HETATM   20  O   UNL     1       4.968  28.672  56.342  1.00  0.00    -0.271 OA
ENDBRANCH  15  16
BRANCH  15  21
HETATM   21  C   UNL     1       5.003  28.012  53.351  1.00  0.00    -0.016 A 
HETATM   22  C   UNL     1       5.804  28.509  52.308  1.00  0.00     0.052 A 
HETATM   23  C   UNL     1       5.232  29.225  51.261  1.00  0.00     0.117 A 
HETATM   24  F   UNL     1       6.019  29.691  50.283  1.00  0.00    -0.206 F 
HETATM   25  C   UNL     1       3.867  29.463  51.218  1.00  0.00     0.042 A 
HETATM   26  C   UNL     1       3.056  28.968  52.237  1.00  0.00     0.004 A 
HETATM   27  C   UNL     1       3.616  28.242  53.293  1.00  0.00     0.010 A 
ENDBRANCH  15  21
ENDBRANCH   1  15
TORSDOF 6
ENDMDL
MODEL 4
REMARK VINA RESULT:      -8.0      2.794      3.789
REMARK  6 active torsions:
REMARK  status: ('A' for Active; 'I' for Inactive)
REMARK    1  A    between atoms: C_6  and  O_7 
REMARK    2  A    between atoms: C_8  and  C_9 
REMARK    3  A    between atoms: C_9  and  N_10 
REMARK    4  A    between atoms: N_10  and  C_12 
REMARK    5  A    between atoms: C_12  and  C_13 
REMARK    6  A    between atoms: C_12  and  C_16 
REMARK       I    between atoms: C_13  and  N_14 
ROOT
HETATM    1  N   UNL     1       6.947  26.791  54.286  1.00  0.00    -0.054 N 
HETATM    2  H   UNL     1       7.263  26.476  53.357  1.00  0.00     0.281 HD
HETATM    3  C   UNL     1       7.441  28.194  54.483  1.00  0.00     0.271 C 
ENDROOT
BRANCH   1   4
HETATM    4  C   UNL     1       7.629  25.815  55.223  1.00  0.00     0.277 C 
BRANCH   4   5
HETATM    5  C   UNL     1       7.740  24.432  54.630  1.00  0.00     0.001 A 
HETATM    6  C   UNL     1       7.978  24.251  53.266  1.00  0.00     0.074 A 
HETATM    7  C   UNL     1       8.104  22.977  52.718  1.00  0.00     0.044 A 
HETATM    8  C   UNL     1       8.004  21.843  53.539  1.00  0.00    -0.053 A 
HETATM    9  C   UNL     1       7.747  22.004  54.916  1.00  0.00    -0.055 A 
HETATM   10  C   UNL     1       8.163  20.475  52.929  1.00  0.00     0.049 C 
HETATM   11  C   UNL     1       7.653  20.820  55.842  1.00  0.00     0.049 C 
HETATM   12  C   UNL     1       7.619  23.299  55.447  1.00  0.00     0.019 A 
BRANCH   6  13
HETATM   13  O   UNL     1       8.136  25.363  52.485  1.00  0.00    -0.360 OA
HETATM   14  H   UNL     1       9.057  25.362  52.153  1.00  0.00     0.217 HD
ENDBRANCH   6  13
ENDBRANCH   4   5
ENDBRANCH   1   4
BRANCH   1  15
HETATM   15  C   UNL     1       5.415  26.711  54.272  1.00  0.00     0.312 C 
BRANCH  15  16
HETATM   16  C   UNL     1       4.820  26.047  52.998  1.00  0.00     0.251 C 
HETATM   17  N   UNL     1       3.990  24.976  53.187  1.00  0.00    -0.368 N 
HETATM   18  H   UNL     1       3.563  24.739  54.076  1.00  0.00     0.159 HD
HETATM   19  H   UNL     1       3.568  24.563  52.360  1.00  0.00     0.159 HD
HETATM   20  O   UNL     1       5.101  26.411  51.859  1.00  0.00    -0.271 OA
ENDBRANCH  15  16
BRANCH  15  21
HETATM   21  C   UNL     1       4.762  28.037  54.637  1.00  0.00    -0.016 A 
HETATM   22  C   UNL     1       4.708  28.425  55.988  1.00  0.00     0.052 A 
HETATM   23  C   UNL     1       4.118  29.632  56.351  1.00  0.00     0.117 A 
HETATM   24  F   UNL     1       4.075  29.974  57.644  1.00  0.00    -0.206 F 
HETATM   25  C   UNL     1       3.577  30.479  55.396  1.00  0.00     0.042 A 
HETATM   26  C   UNL     1       3.632  30.117  54.052  1.00  0.00     0.004 A 
HETATM   27  C   UNL     1       4.226  28.909  53.672  1.00  0.00     0.010 A 
ENDBRANCH  15  21
ENDBRANCH   1  15
TORSDOF 6
ENDMDL
MODEL 5
REMARK VINA RESULT:      -8.0      2.545      7.070
REMARK  6 active torsions:
REMARK  status: ('A' for Active; 'I' for Inactive)
REMARK    1  A    between atoms: C_6  and  O_7 
REMARK    2  A    between atoms: C_8  and  C_9 
REMARK    3  A    between atoms: C_9  and  N_10 
REMARK    4  A    between atoms: N_10  and  C_12 
REMARK    5  A    between atoms: C_12  and  C_13 
REMARK    6  A    between atoms: C_12  and  C_16 
REMARK       I    between atoms: C_13  and  N_14 
ROOT
HETATM    1  N   UNL     1       7.220  26.747  54.861  1.00  0.00    -0.054 N 
HETATM    2  H   UNL     1       8.085  26.740  55.422  1.00  0.00     0.281 HD
HETATM    3  C   UNL     1       7.619  26.766  53.414  1.00  0.00     0.271 C 
ENDROOT
BRANCH   1   4
HETATM    4  C   UNL     1       6.554  28.041  55.281  1.00  0.00     0.277 C 
BRANCH   4   5
HETATM    5  C   UNL     1       7.347  28.780  56.331  1.00  0.00     0.001 A 
HETATM    6  C   UNL     1       6.734  29.260  57.490  1.00  0.00     0.074 A 
HETATM    7  C   UNL     1       7.464  29.922  58.472  1.00  0.00     0.044 A 
HETATM    8  C   UNL     1       8.847  30.109  58.318  1.00  0.00    -0.053 A 
HETATM    9  C   UNL     1       9.482  29.646  57.147  1.00  0.00    -0.055 A 
HETATM   10  C   UNL     1       9.622  30.811  59.402  1.00  0.00     0.049 C 
HETATM   11  C   UNL     1      10.966  29.803  56.944  1.00  0.00     0.049 C 
HETATM   12  C   UNL     1       8.724  28.985  56.166  1.00  0.00     0.019 A 
BRANCH   6  13
HETATM   13  O   UNL     1       5.397  29.018  57.661  1.00  0.00    -0.360 OA
HETATM   14  H   UNL     1       4.987  29.847  57.983  1.00  0.00     0.217 HD
ENDBRANCH   6  13
ENDBRANCH   4   5
ENDBRANCH   1   4
BRANCH   1  15
HETATM   15  C   UNL     1       6.452  25.472  55.234  1.00  0.00     0.312 C 
BRANCH  15  16
HETATM   16  C   UNL     1       6.025  25.396  56.727  1.00  0.00     0.251 C 
HETATM   17  N   UNL     1       4.692  25.231  56.984  1.00  0.00    -0.368 N 
HETATM   18  H   UNL     1       4.014  24.930  56.292  1.00  0.00     0.159 HD
HETATM   19  H   UNL     1       4.413  25.141  57.957  1.00  0.00     0.159 HD
HETATM   20  O   UNL     1       6.817  25.523  57.658  1.00  0.00    -0.271 OA
ENDBRANCH  15  16
BRANCH  15  21
HETATM   21  C   UNL     1       7.137  24.212  54.723  1.00  0.00    -0.016 A 
HETATM   22  C   UNL     1       7.931  23.458  55.606  1.00  0.00     0.052 A 
HETATM   23  C   UNL     1       8.568  22.302  55.166  1.00  0.00     0.117 A 
HETATM   24  F   UNL     1       9.322  21.605  56.026  1.00  0.00    -0.206 F 
HETATM   25  C   UNL     1       8.435  21.865  53.858  1.00  0.00     0.042 A 
HETATM   26  C   UNL     1       7.643  22.593  52.972  1.00  0.00     0.004 A 
HETATM   27  C   UNL     1       6.993  23.754  53.401  1.00  0.00     0.010 A 
ENDBRANCH  15  21
ENDBRANCH   1  15
TORSDOF 6
ENDMDL
MODEL 6
REMARK VINA RESULT:      -8.0      2.141      3.179
REMARK  6 active torsions:
REMARK  status: ('A' for Active; 'I' for Inactive)
REMARK    1  A    between atoms: C_6  and  O_7 
REMARK    2  A    between atoms: C_8  and  C_9 
REMARK    3  A    between atoms: C_9  and  N_10 
REMARK    4  A    between atoms: N_10  and  C_12 
REMARK    5  A    between atoms: C_12  and  C_13 
REMARK    6  A    between atoms: C_12  and  C_16 
REMARK       I    between atoms: C_13  and  N_14 
ROOT
HETATM    1  N   UNL     1       5.745  25.793  53.637  1.00  0.00    -0.054 N 
HETATM    2  H   UNL     1       5.714  25.552  54.640  1.00  0.00     0.281 HD
HETATM    3  C   UNL     1       4.619  25.066  52.961  1.00  0.00     0.271 C 
ENDROOT
BRANCH   1   4
HETATM    4  C   UNL     1       7.098  25.267  53.205  1.00  0.00     0.277 C 
BRANCH   4   5
HETATM    5  C   UNL     1       7.439  23.952  53.860  1.00  0.00     0.001 A 
HETATM    6  C   UNL     1       7.425  23.816  55.250  1.00  0.00     0.074 A 
HETATM    7  C   UNL     1       7.718  22.599  55.859  1.00  0.00     0.044 A 
HETATM    8  C   UNL     1       8.023  21.473  55.077  1.00  0.00    -0.053 A 
HETATM    9  C   UNL     1       8.058  21.595  53.673  1.00  0.00    -0.055 A 
HETATM   10  C   UNL     1       8.317  20.161  55.756  1.00  0.00     0.049 C 
HETATM   11  C   UNL     1       8.358  20.412  52.790  1.00  0.00     0.049 C 
HETATM   12  C   UNL     1       7.765  22.834  53.080  1.00  0.00     0.019 A 
BRANCH   6  13
HETATM   13  O   UNL     1       7.066  24.902  56.002  1.00  0.00    -0.360 OA
HETATM   14  H   UNL     1       6.124  24.793  56.245  1.00  0.00     0.217 HD
ENDBRANCH   6  13
ENDBRANCH   4   5
ENDBRANCH   1   4
BRANCH   1  15
HETATM   15  C   UNL     1       5.584  27.317  53.555  1.00  0.00     0.312 C 
BRANCH  15  16
HETATM   16  C   UNL     1       5.720  27.897  52.119  1.00  0.00     0.251 C 
HETATM   17  N   UNL     1       5.702  29.259  51.996  1.00  0.00    -0.368 N 
HETATM   18  H   UNL     1       5.837  29.900  52.770  1.00  0.00     0.159 HD
HETATM   19  H   UNL     1       5.829  29.644  51.064  1.00  0.00     0.159 HD
HETATM   20  O   UNL     1       5.793  27.193  51.115  1.00  0.00    -0.271 OA
ENDBRANCH  15  16
BRANCH  15  21
HETATM   21  C   UNL     1       6.422  28.045  54.596  1.00  0.00    -0.016 A 
HETATM   22  C   UNL     1       5.798  28.535  55.757  1.00  0.00     0.052 A 
HETATM   23  C   UNL     1       6.540  29.204  56.726  1.00  0.00     0.117 A 
HETATM   24  F   UNL     1       5.920  29.665  57.819  1.00  0.00    -0.206 F 
HETATM   25  C   UNL     1       7.904  29.399  56.575  1.00  0.00     0.042 A 
HETATM   26  C   UNL     1       8.542  28.909  55.437  1.00  0.00     0.004 A 
HETATM   27  C   UNL     1       7.810  28.232  54.457  1.00  0.00     0.010 A 
ENDBRANCH  15  21
ENDBRANCH   1  15
TORSDOF 6
ENDMDL
MODEL 7
REMARK VINA RESULT:      -8.0      1.867      2.570
REMARK  6 active torsions:
REMARK  status: ('A' for Active; 'I' for Inactive)
REMARK    1  A    between atoms: C_6  and  O_7 
REMARK    2  A    between atoms: C_8  and  C_9 
REMARK    3  A    between atoms: C_9  and  N_10 
REMARK    4  A    between atoms: N_10  and  C_12 
REMARK    5  A    between atoms: C_12  and  C_13 
REMARK    6  A    between atoms: C_12  and  C_16 
REMARK       I    between atoms: C_13  and  N_14 
ROOT
HETATM    1  N   UNL     1       6.416  26.103  56.773  1.00  0.00    -0.054 N 
HETATM    2  H   UNL     1       6.916  25.817  57.629  1.00  0.00     0.281 HD
HETATM    3  C   UNL     1       5.156  25.292  56.691  1.00  0.00     0.271 C 
ENDROOT
BRANCH   1   4
HETATM    4  C   UNL     1       7.394  25.740  55.674  1.00  0.00     0.277 C 
BRANCH   4   5
HETATM    5  C   UNL     1       7.738  24.271  55.673  1.00  0.00     0.001 A 
HETATM    6  C   UNL     1       8.188  23.637  56.833  1.00  0.00     0.074 A 
HETATM    7  C   UNL     1       8.485  22.276  56.844  1.00  0.00     0.044 A 
HETATM    8  C   UNL     1       8.322  21.510  55.679  1.00  0.00    -0.053 A 
HETATM    9  C   UNL     1       7.885  22.135  54.494  1.00  0.00    -0.055 A 
HETATM   10  C   UNL     1       8.631  20.036  55.718  1.00  0.00     0.049 C 
HETATM   11  C   UNL     1       7.674  21.351  53.224  1.00  0.00     0.049 C 
HETATM   12  C   UNL     1       7.596  23.510  54.504  1.00  0.00     0.019 A 
BRANCH   6  13
HETATM   13  O   UNL     1       8.284  24.379  57.980  1.00  0.00    -0.360 OA
HETATM   14  H   UNL     1       7.638  24.015  58.620  1.00  0.00     0.217 HD
ENDBRANCH   6  13
ENDBRANCH   4   5
ENDBRANCH   1   4
BRANCH   1  15
HETATM   15  C   UNL     1       6.133  27.603  56.919  1.00  0.00     0.312 C 
BRANCH  15  16
HETATM   16  C   UNL     1       5.044  28.146  55.952  1.00  0.00     0.251 C 
HETATM   17  N   UNL     1       3.888  28.611  56.517  1.00  0.00    -0.368 N 
HETATM   18  H   UNL     1       3.789  28.837  57.502  1.00  0.00     0.159 HD
HETATM   19  H   UNL     1       3.189  29.003  55.893  1.00  0.00     0.159 HD
HETATM   20  O   UNL     1       5.163  28.128  54.730  1.00  0.00    -0.271 OA
ENDBRANCH  15  16
BRANCH  15  21
HETATM   21  C   UNL     1       7.409  28.434  56.940  1.00  0.00    -0.016 A 
HETATM   22  C   UNL     1       7.837  29.002  58.153  1.00  0.00     0.052 A 
HETATM   23  C   UNL     1       8.999  29.766  58.201  1.00  0.00     0.117 A 
HETATM   24  F   UNL     1       9.382  30.299  59.368  1.00  0.00    -0.206 F 
HETATM   25  C   UNL     1       9.761  29.981  57.064  1.00  0.00     0.042 A 
HETATM   26  C   UNL     1       9.359  29.416  55.855  1.00  0.00     0.004 A 
HETATM   27  C   UNL     1       8.196  28.643  55.793  1.00  0.00     0.010 A 
ENDBRANCH  15  21
ENDBRANCH   1  15
TORSDOF 6
ENDMDL
MODEL 8
REMARK VINA RESULT:      -7.7      3.134      4.229
REMARK  6 active torsions:
REMARK  status: ('A' for Active; 'I' for Inactive)
REMARK    1  A    between atoms: C_6  and  O_7 
REMARK    2  A    between atoms: C_8  and  C_9 
REMARK    3  A    between atoms: C_9  and  N_10 
REMARK    4  A    between atoms: N_10  and  C_12 
REMARK    5  A    between atoms: C_12  and  C_13 
REMARK    6  A    between atoms: C_12  and  C_16 
REMARK       I    between atoms: C_13  and  N_14 
ROOT
HETATM    1  N   UNL     1       7.137  26.526  54.444  1.00  0.00    -0.054 N 
HETATM    2  H   UNL     1       7.499  25.873  53.733  1.00  0.00     0.281 HD
HETATM    3  C   UNL     1       7.667  27.892  54.116  1.00  0.00     0.271 C 
ENDROOT
BRANCH   1   4
HETATM    4  C   UNL     1       7.725  25.986  55.731  1.00  0.00     0.277 C 
BRANCH   4   5
HETATM    5  C   UNL     1       7.944  24.494  55.680  1.00  0.00     0.001 A 
HETATM    6  C   UNL     1       8.207  23.766  56.842  1.00  0.00     0.074 A 
HETATM    7  C   UNL     1       8.387  22.386  56.804  1.00  0.00     0.044 A 
HETATM    8  C   UNL     1       8.293  21.695  55.586  1.00  0.00    -0.053 A 
HETATM    9  C   UNL     1       8.044  22.414  54.399  1.00  0.00    -0.055 A 
HETATM   10  C   UNL     1       8.472  20.199  55.571  1.00  0.00     0.049 C 
HETATM   11  C   UNL     1       7.913  21.716  53.071  1.00  0.00     0.049 C 
HETATM   12  C   UNL     1       7.871  23.807  54.460  1.00  0.00     0.019 A 
BRANCH   6  13
HETATM   13  O   UNL     1       8.235  24.438  58.034  1.00  0.00    -0.360 OA
HETATM   14  H   UNL     1       7.702  25.252  57.925  1.00  0.00     0.217 HD
ENDBRANCH   6  13
ENDBRANCH   4   5
ENDBRANCH   1   4
BRANCH   1  15
HETATM   15  C   UNL     1       5.607  26.460  54.353  1.00  0.00     0.312 C 
BRANCH  15  16
HETATM   16  C   UNL     1       5.070  25.861  53.022  1.00  0.00     0.251 C 
HETATM   17  N   UNL     1       4.012  24.999  53.112  1.00  0.00    -0.368 N 
HETATM   18  H   UNL     1       3.423  24.907  53.932  1.00  0.00     0.159 HD
HETATM   19  H   UNL     1       3.633  24.635  52.242  1.00  0.00     0.159 HD
HETATM   20  O   UNL     1       5.581  26.092  51.929  1.00  0.00    -0.271 OA
ENDBRANCH  15  16
BRANCH  15  21
HETATM   21  C   UNL     1       4.945  27.772  54.749  1.00  0.00    -0.016 A 
HETATM   22  C   UNL     1       4.386  28.587  53.749  1.00  0.00     0.052 A 
HETATM   23  C   UNL     1       3.774  29.792  54.083  1.00  0.00     0.117 A 
HETATM   24  F   UNL     1       3.254  30.551  53.111  1.00  0.00    -0.206 F 
HETATM   25  C   UNL     1       3.697  30.213  55.401  1.00  0.00     0.042 A 
HETATM   26  C   UNL     1       4.235  29.413  56.407  1.00  0.00     0.004 A 
HETATM   27  C   UNL     1       4.849  28.198  56.087  1.00  0.00     0.010 A 
ENDBRANCH  15  21
ENDBRANCH   1  15
TORSDOF 6
ENDMDL
MODEL 9
REMARK VINA RESULT:      -7.7      2.884      6.846
REMARK  6 active torsions:
REMARK  status: ('A' for Active; 'I' for Inactive)
REMARK    1  A    between atoms: C_6  and  O_7 
REMARK    2  A    between atoms: C_8  and  C_9 
REMARK    3  A    between atoms: C_9  and  N_10 
REMARK    4  A    between atoms: N_10  and  C_12 
REMARK    5  A    between atoms: C_12  and  C_13 
REMARK    6  A    between atoms: C_12  and  C_16 
REMARK       I    between atoms: C_13  and  N_14 
ROOT
HETATM    1  N   UNL     1       6.789  26.948  53.707  1.00  0.00    -0.054 N 
HETATM    2  H   UNL     1       7.795  27.104  53.869  1.00  0.00     0.281 HD
HETATM    3  C   UNL     1       6.249  28.161  53.007  1.00  0.00     0.271 C 
ENDROOT
BRANCH   1   4
HETATM    4  C   UNL     1       6.237  26.815  55.112  1.00  0.00     0.277 C 
BRANCH   4   5
HETATM    5  C   UNL     1       6.792  27.859  56.048  1.00  0.00     0.001 A 
HETATM    6  C   UNL     1       5.955  28.567  56.914  1.00  0.00     0.074 A 
HETATM    7  C   UNL     1       6.465  29.515  57.796  1.00  0.00     0.044 A 
HETATM    8  C   UNL     1       7.845  29.769  57.839  1.00  0.00    -0.053 A 
HETATM    9  C   UNL     1       8.704  29.077  56.962  1.00  0.00    -0.055 A 
HETATM   10  C   UNL     1       8.378  30.785  58.815  1.00  0.00     0.049 C 
HETATM   11  C   UNL     1      10.194  29.298  56.985  1.00  0.00     0.049 C 
HETATM   12  C   UNL     1       8.168  28.127  56.076  1.00  0.00     0.019 A 
BRANCH   6  13
HETATM   13  O   UNL     1       4.619  28.268  56.909  1.00  0.00    -0.360 OA
HETATM   14  H   UNL     1       4.305  28.340  55.984  1.00  0.00     0.217 HD
ENDBRANCH   6  13
ENDBRANCH   4   5
ENDBRANCH   1   4
BRANCH   1  15
HETATM   15  C   UNL     1       6.680  25.683  52.846  1.00  0.00     0.312 C 
BRANCH  15  16
HETATM   16  C   UNL     1       5.247  25.386  52.322  1.00  0.00     0.251 C 
HETATM   17  N   UNL     1       4.318  24.991  53.245  1.00  0.00    -0.368 N 
HETATM   18  H   UNL     1       4.433  25.101  54.247  1.00  0.00     0.159 HD
HETATM   19  H   UNL     1       3.371  24.834  52.914  1.00  0.00     0.159 HD
HETATM   20  O   UNL     1       4.942  25.447  51.133  1.00  0.00    -0.271 OA
ENDBRANCH  15  16
BRANCH  15  21
HETATM   21  C   UNL     1       7.363  24.484  53.488  1.00  0.00    -0.016 A 
HETATM   22  C   UNL     1       7.406  23.264  52.790  1.00  0.00     0.052 A 
HETATM   23  C   UNL     1       8.024  22.152  53.353  1.00  0.00     0.117 A 
HETATM   24  F   UNL     1       8.047  21.002  52.669  1.00  0.00    -0.206 F 
HETATM   25  C   UNL     1       8.612  22.219  54.607  1.00  0.00     0.042 A 
HETATM   26  C   UNL     1       8.590  23.422  55.309  1.00  0.00     0.004 A 
HETATM   27  C   UNL     1       7.976  24.549  54.753  1.00  0.00     0.010 A 
ENDBRANCH  15  21
ENDBRANCH   1  15
TORSDOF 6
ENDMDL
MODEL 10
REMARK VINA RESULT:      -7.7      3.947      5.803
REMARK  6 active torsions:
REMARK  status: ('A' for Active; 'I' for Inactive)
REMARK    1  A    between atoms: C_6  and  O_7 
REMARK    2  A    between atoms: C_8  and  C_9 
REMARK    3  A    between atoms: C_9  and  N_10 
REMARK    4  A    between atoms: N_10  and  C_12 
REMARK    5  A    between atoms: C_12  and  C_13 
REMARK    6  A    between atoms: C_12  and  C_16 
REMARK       I    between atoms: C_13  and  N_14 
ROOT
HETATM    1  N   UNL     1       6.420  26.630  53.135  1.00  0.00    -0.054 N 
HETATM    2  H   UNL     1       6.686  26.031  52.339  1.00  0.00     0.281 HD
HETATM    3  C   UNL     1       7.684  27.130  53.770  1.00  0.00     0.271 C 
ENDROOT
BRANCH   1   4
HETATM    4  C   UNL     1       5.672  25.674  54.041  1.00  0.00     0.277 C 
BRANCH   4   5
HETATM    5  C   UNL     1       6.529  24.516  54.486  1.00  0.00     0.001 A 
HETATM    6  C   UNL     1       6.908  24.372  55.822  1.00  0.00     0.074 A 
HETATM    7  C   UNL     1       7.680  23.293  56.242  1.00  0.00     0.044 A 
HETATM    8  C   UNL     1       8.083  22.313  55.321  1.00  0.00    -0.053 A 
HETATM    9  C   UNL     1       7.725  22.448  53.965  1.00  0.00    -0.055 A 
HETATM   10  C   UNL     1       8.902  21.143  55.801  1.00  0.00     0.049 C 
HETATM   11  C   UNL     1       8.115  21.412  52.943  1.00  0.00     0.049 C 
HETATM   12  C   UNL     1       6.950  23.548  53.562  1.00  0.00     0.019 A 
BRANCH   6  13
HETATM   13  O   UNL     1       6.458  25.299  56.724  1.00  0.00    -0.360 OA
HETATM   14  H   UNL     1       5.626  24.955  57.109  1.00  0.00     0.217 HD
ENDBRANCH   6  13
ENDBRANCH   4   5
ENDBRANCH   1   4
BRANCH   1  15
HETATM   15  C   UNL     1       5.572  27.769  52.554  1.00  0.00     0.312 C 
BRANCH  15  16
HETATM   16  C   UNL     1       4.321  28.134  53.402  1.00  0.00     0.251 C 
HETATM   17  N   UNL     1       3.114  27.667  52.961  1.00  0.00    -0.368 N 
HETATM   18  H   UNL     1       3.009  26.929  52.272  1.00  0.00     0.159 HD
HETATM   19  H   UNL     1       2.299  27.869  53.533  1.00  0.00     0.159 HD
HETATM   20  O   UNL     1       4.374  28.846  54.402  1.00  0.00    -0.271 OA
ENDBRANCH  15  16
BRANCH  15  21
HETATM   21  C   UNL     1       5.278  27.575  51.073  1.00  0.00    -0.016 A 
HETATM   22  C   UNL     1       5.362  28.680  50.207  1.00  0.00     0.052 A 
HETATM   23  C   UNL     1       5.098  28.532  48.849  1.00  0.00     0.117 A 
HETATM   24  F   UNL     1       5.180  29.601  48.047  1.00  0.00    -0.206 F 
HETATM   25  C   UNL     1       4.753  27.299  48.318  1.00  0.00     0.042 A 
HETATM   26  C   UNL     1       4.677  26.190  49.158  1.00  0.00     0.004 A 
HETATM   27  C   UNL     1       4.943  26.324  50.525  1.00  0.00     0.010 A 
ENDBRANCH  15  21
ENDBRANCH   1  15
TORSDOF 6
ENDMDL
