MODEL 1
REMARK VINA RESULT:     -10.2      0.000      0.000
REMARK  3 active torsions:
REMARK  status: ('A' for Active; 'I' for Inactive)
REMARK    1  A    between atoms: C_10  and  N_11 
REMARK       I    between atoms: N_11  and  C_12 
REMARK    2  A    between atoms: C_12  and  C_13 
REMARK    3  A    between atoms: C_18  and  N_19 
ROOT
HETATM    1  N   UNL     1       6.983  27.498  55.557  1.00  0.00    -0.323 N 
HETATM    2  C   UNL     1       7.705  28.664  55.706  1.00  0.00     0.258 C 
HETATM    3  O   UNL     1       8.754  28.965  55.147  1.00  0.00    -0.267 OA
HETATM    4  H   UNL     1       6.130  27.417  56.098  1.00  0.00     0.169 HD
ENDROOT
BRANCH   2   5
HETATM    5  C   UNL     1       7.064  29.693  56.568  1.00  0.00     0.056 A 
HETATM    6  C   UNL     1       5.856  30.326  56.271  1.00  0.00     0.050 A 
HETATM    7 CL   UNL     1       4.889  29.929  54.897  1.00  0.00    -0.083 Cl
HETATM    8  C   UNL     1       5.385  31.324  57.122  1.00  0.00     0.027 A 
HETATM    9  C   UNL     1       6.114  31.693  58.260  1.00  0.00     0.031 A 
HETATM   10  C   UNL     1       7.324  31.069  58.583  1.00  0.00     0.038 A 
HETATM   11  C   UNL     1       7.775  30.051  57.731  1.00  0.00     0.048 A 
BRANCH  10  12
HETATM   12  N   UNL     1       8.089  31.453  59.719  1.00  0.00    -0.318 N 
HETATM   13  C   UNL     1       9.385  31.991  59.703  1.00  0.00     0.224 C 
HETATM   14  O   UNL     1      10.087  32.289  58.749  1.00  0.00    -0.273 OA
HETATM   15  C   UNL     1       9.867  32.074  61.132  1.00  0.00     0.105 C 
HETATM   16  C   UNL     1       8.584  32.007  61.936  1.00  0.00     0.029 C 
HETATM   17  C   UNL     1       7.674  31.160  61.073  1.00  0.00     0.133 C 
ENDBRANCH  10  12
ENDBRANCH   2   5
BRANCH   1  18
HETATM   18  C   UNL     1       7.263  26.407  54.708  1.00  0.00     0.035 A 
HETATM   19  C   UNL     1       7.425  26.516  53.327  1.00  0.00     0.032 A 
HETATM   20  C   UNL     1       7.665  25.389  52.527  1.00  0.00     0.033 A 
HETATM   21  C   UNL     1       7.729  24.144  53.159  1.00  0.00     0.042 A 
HETATM   22  N   UNL     1       7.930  22.887  52.636  1.00  0.00    -0.359 N 
HETATM   23  C   UNL     1       7.582  23.997  54.535  1.00  0.00    -0.005 A 
HETATM   24  C   UNL     1       7.899  21.942  53.632  1.00  0.00     0.006 A 
HETATM   25  H   UNL     1       8.065  22.695  51.653  1.00  0.00     0.166 HD
HETATM   26  C   UNL     1       8.061  20.493  53.357  1.00  0.00     0.068 C 
HETATM   27  C   UNL     1       7.698  22.610  54.823  1.00  0.00     0.038 A 
HETATM   28  C   UNL     1       7.355  25.146  55.319  1.00  0.00     0.043 A 
ENDBRANCH   1  18
TORSDOF 3
ENDMDL
MODEL 2
REMARK VINA RESULT:      -9.9      1.078      1.688
REMARK  3 active torsions:
REMARK  status: ('A' for Active; 'I' for Inactive)
REMARK    1  A    between atoms: C_10  and  N_11 
REMARK       I    between atoms: N_11  and  C_12 
REMARK    2  A    between atoms: C_12  and  C_13 
REMARK    3  A    between atoms: C_18  and  N_19 
ROOT
HETATM    1  N   UNL     1       7.422  26.908  57.011  1.00  0.00    -0.323 N 
HETATM    2  C   UNL     1       7.568  28.056  56.261  1.00  0.00     0.258 C 
HETATM    3  O   UNL     1       8.021  28.149  55.125  1.00  0.00    -0.267 OA
HETATM    4  H   UNL     1       7.023  27.015  57.936  1.00  0.00     0.169 HD
ENDROOT
BRANCH   2   5
HETATM    5  C   UNL     1       7.012  29.287  56.883  1.00  0.00     0.056 A 
HETATM    6  C   UNL     1       5.920  29.997  56.381  1.00  0.00     0.050 A 
HETATM    7 CL   UNL     1       5.002  29.484  55.012  1.00  0.00    -0.083 Cl
HETATM    8  C   UNL     1       5.527  31.176  57.014  1.00  0.00     0.027 A 
HETATM    9  C   UNL     1       6.222  31.648  58.135  1.00  0.00     0.031 A 
HETATM   10  C   UNL     1       7.315  30.951  58.661  1.00  0.00     0.038 A 
HETATM   11  C   UNL     1       7.684  29.755  58.029  1.00  0.00     0.048 A 
BRANCH  10  12
HETATM   12  N   UNL     1       8.046  31.433  59.781  1.00  0.00    -0.318 N 
HETATM   13  C   UNL     1       9.320  32.023  59.750  1.00  0.00     0.224 C 
HETATM   14  O   UNL     1      10.023  32.292  58.788  1.00  0.00    -0.273 OA
HETATM   15  C   UNL     1       9.777  32.210  61.177  1.00  0.00     0.105 C 
HETATM   16  C   UNL     1       8.486  32.138  61.968  1.00  0.00     0.029 C 
HETATM   17  C   UNL     1       7.623  31.204  61.145  1.00  0.00     0.133 C 
ENDBRANCH  10  12
ENDBRANCH   2   5
BRANCH   1  18
HETATM   18  C   UNL     1       7.724  25.582  56.636  1.00  0.00     0.035 A 
HETATM   19  C   UNL     1       8.435  24.688  57.435  1.00  0.00     0.032 A 
HETATM   20  C   UNL     1       8.739  23.392  56.993  1.00  0.00     0.033 A 
HETATM   21  C   UNL     1       8.312  23.024  55.714  1.00  0.00     0.042 A 
HETATM   22  N   UNL     1       8.479  21.846  55.022  1.00  0.00    -0.359 N 
HETATM   23  C   UNL     1       7.593  23.885  54.891  1.00  0.00    -0.005 A 
HETATM   24  C   UNL     1       7.903  21.935  53.777  1.00  0.00     0.006 A 
HETATM   25  H   UNL     1       8.971  21.040  55.381  1.00  0.00     0.166 HD
HETATM   26  C   UNL     1       7.952  20.821  52.800  1.00  0.00     0.068 C 
HETATM   27  C   UNL     1       7.334  23.189  53.679  1.00  0.00     0.038 A 
HETATM   28  C   UNL     1       7.287  25.177  55.363  1.00  0.00     0.043 A 
ENDBRANCH   1  18
TORSDOF 3
ENDMDL
MODEL 3
REMARK VINA RESULT:      -9.6      2.359      8.938
REMARK  3 active torsions:
REMARK  status: ('A' for Active; 'I' for Inactive)
REMARK    1  A    between atoms: C_10  and  N_11 
REMARK       I    between atoms: N_11  and  C_12 
REMARK    2  A    between atoms: C_12  and  C_13 
REMARK    3  A    between atoms: C_18  and  N_19 
ROOT
HETATM    1  N   UNL     1       7.411  27.610  55.960  1.00  0.00    -0.323 N 
HETATM    2  C   UNL     1       6.496  26.641  55.607  1.00  0.00     0.258 C 
HETATM    3  O   UNL     1       5.327  26.556  55.968  1.00  0.00    -0.267 OA
HETATM    4  H   UNL     1       8.340  27.527  55.562  1.00  0.00     0.169 HD
ENDROOT
BRANCH   2   5
HETATM    5  C   UNL     1       6.976  25.662  54.595  1.00  0.00     0.056 A 
HETATM    6  C   UNL     1       6.978  25.892  53.219  1.00  0.00     0.050 A 
HETATM    7 CL   UNL     1       6.506  27.391  52.506  1.00  0.00    -0.083 Cl
HETATM    8  C   UNL     1       7.392  24.874  52.361  1.00  0.00     0.027 A 
HETATM    9  C   UNL     1       7.796  23.633  52.870  1.00  0.00     0.031 A 
HETATM   10  C   UNL     1       7.809  23.381  54.247  1.00  0.00     0.038 A 
HETATM   11  C   UNL     1       7.413  24.421  55.099  1.00  0.00     0.048 A 
BRANCH  10  12
HETATM   12  N   UNL     1       8.190  22.117  54.776  1.00  0.00    -0.318 N 
HETATM   13  C   UNL     1       8.079  20.877  54.126  1.00  0.00     0.224 C 
HETATM   14  O   UNL     1       7.702  20.631  52.991  1.00  0.00    -0.273 OA
HETATM   15  C   UNL     1       8.429  19.800  55.126  1.00  0.00     0.105 C 
HETATM   16  C   UNL     1       9.197  20.553  56.194  1.00  0.00     0.029 C 
HETATM   17  C   UNL     1       8.584  21.937  56.155  1.00  0.00     0.133 C 
ENDBRANCH  10  12
ENDBRANCH   2   5
BRANCH   1  18
HETATM   18  C   UNL     1       7.207  28.738  56.783  1.00  0.00     0.035 A 
HETATM   19  C   UNL     1       6.283  29.746  56.509  1.00  0.00     0.032 A 
HETATM   20  C   UNL     1       6.150  30.864  57.345  1.00  0.00     0.033 A 
HETATM   21  C   UNL     1       6.983  30.942  58.464  1.00  0.00     0.042 A 
HETATM   22  N   UNL     1       7.087  31.913  59.434  1.00  0.00    -0.359 N 
HETATM   23  C   UNL     1       7.910  29.952  58.776  1.00  0.00    -0.005 A 
HETATM   24  C   UNL     1       8.061  31.581  60.345  1.00  0.00     0.006 A 
HETATM   25  H   UNL     1       6.530  32.756  59.456  1.00  0.00     0.166 HD
HETATM   26  C   UNL     1       8.411  32.459  61.488  1.00  0.00     0.068 C 
HETATM   27  C   UNL     1       8.577  30.359  59.963  1.00  0.00     0.038 A 
HETATM   28  C   UNL     1       8.016  28.831  57.928  1.00  0.00     0.043 A 
ENDBRANCH   1  18
TORSDOF 3
ENDMDL
MODEL 4
REMARK VINA RESULT:      -9.5      1.937      8.597
REMARK  3 active torsions:
REMARK  status: ('A' for Active; 'I' for Inactive)
REMARK    1  A    between atoms: C_10  and  N_11 
REMARK       I    between atoms: N_11  and  C_12 
REMARK    2  A    between atoms: C_12  and  C_13 
REMARK    3  A    between atoms: C_18  and  N_19 
ROOT
HETATM    1  N   UNL     1       7.536  28.011  56.027  1.00  0.00    -0.323 N 
HETATM    2  C   UNL     1       7.647  27.872  54.659  1.00  0.00     0.258 C 
HETATM    3  O   UNL     1       8.373  28.508  53.904  1.00  0.00    -0.267 OA
HETATM    4  H   UNL     1       6.883  27.394  56.497  1.00  0.00     0.169 HD
ENDROOT
BRANCH   2   5
HETATM    5  C   UNL     1       6.864  26.749  54.077  1.00  0.00     0.056 A 
HETATM    6  C   UNL     1       5.614  26.892  53.472  1.00  0.00     0.050 A 
HETATM    7 CL   UNL     1       4.845  28.419  53.232  1.00  0.00    -0.083 Cl
HETATM    8  C   UNL     1       4.944  25.757  53.020  1.00  0.00     0.027 A 
HETATM    9  C   UNL     1       5.511  24.485  53.175  1.00  0.00     0.031 A 
HETATM   10  C   UNL     1       6.766  24.316  53.772  1.00  0.00     0.038 A 
HETATM   11  C   UNL     1       7.439  25.469  54.201  1.00  0.00     0.048 A 
BRANCH  10  12
HETATM   12  N   UNL     1       7.341  23.030  53.961  1.00  0.00    -0.318 N 
HETATM   13  C   UNL     1       7.693  22.450  55.191  1.00  0.00     0.224 C 
HETATM   14  O   UNL     1       7.535  22.882  56.322  1.00  0.00    -0.273 OA
HETATM   15  C   UNL     1       8.431  21.165  54.900  1.00  0.00     0.105 C 
HETATM   16  C   UNL     1       8.030  20.849  53.473  1.00  0.00     0.029 C 
HETATM   17  C   UNL     1       7.807  22.215  52.861  1.00  0.00     0.133 C 
ENDBRANCH  10  12
ENDBRANCH   2   5
BRANCH   1  18
HETATM   18  C   UNL     1       8.252  28.885  56.871  1.00  0.00     0.035 A 
HETATM   19  C   UNL     1       9.581  29.254  56.664  1.00  0.00     0.032 A 
HETATM   20  C   UNL     1      10.254  30.099  57.559  1.00  0.00     0.033 A 
HETATM   21  C   UNL     1       9.550  30.557  58.676  1.00  0.00     0.042 A 
HETATM   22  N   UNL     1       9.951  31.368  59.713  1.00  0.00    -0.359 N 
HETATM   23  C   UNL     1       8.220  30.219  58.911  1.00  0.00    -0.005 A 
HETATM   24  C   UNL     1       8.924  31.545  60.609  1.00  0.00     0.006 A 
HETATM   25  H   UNL     1      10.877  31.762  59.801  1.00  0.00     0.166 HD
HETATM   26  C   UNL     1       9.079  32.353  61.843  1.00  0.00     0.068 C 
HETATM   27  C   UNL     1       7.834  30.850  60.124  1.00  0.00     0.038 A 
HETATM   28  C   UNL     1       7.561  29.380  57.990  1.00  0.00     0.043 A 
ENDBRANCH   1  18
TORSDOF 3
ENDMDL
MODEL 5
REMARK VINA RESULT:      -9.5      4.671      8.041
REMARK  3 active torsions:
REMARK  status: ('A' for Active; 'I' for Inactive)
REMARK    1  A    between atoms: C_10  and  N_11 
REMARK       I    between atoms: N_11  and  C_12 
REMARK    2  A    between atoms: C_12  and  C_13 
REMARK    3  A    between atoms: C_18  and  N_19 
ROOT
HETATM    1  N   UNL     1       6.576  26.599  53.194  1.00  0.00    -0.323 N 
HETATM    2  C   UNL     1       6.196  26.521  54.518  1.00  0.00     0.258 C 
HETATM    3  O   UNL     1       5.184  26.987  55.029  1.00  0.00    -0.267 OA
HETATM    4  H   UNL     1       7.448  26.149  52.942  1.00  0.00     0.169 HD
ENDROOT
BRANCH   2   5
HETATM    5  C   UNL     1       7.078  25.685  55.375  1.00  0.00     0.056 A 
HETATM    6  C   UNL     1       7.713  26.142  56.532  1.00  0.00     0.050 A 
HETATM    7 CL   UNL     1       7.482  27.725  57.178  1.00  0.00    -0.083 Cl
HETATM    8  C   UNL     1       8.570  25.284  57.220  1.00  0.00     0.027 A 
HETATM    9  C   UNL     1       8.799  23.982  56.756  1.00  0.00     0.031 A 
HETATM   10  C   UNL     1       8.169  23.499  55.604  1.00  0.00     0.038 A 
HETATM   11  C   UNL     1       7.291  24.364  54.935  1.00  0.00     0.048 A 
BRANCH  10  12
HETATM   12  N   UNL     1       8.413  22.189  55.106  1.00  0.00    -0.318 N 
HETATM   13  C   UNL     1       8.411  21.003  55.856  1.00  0.00     0.224 C 
HETATM   14  O   UNL     1       8.151  20.836  57.038  1.00  0.00    -0.273 OA
HETATM   15  C   UNL     1       8.896  19.889  54.959  1.00  0.00     0.105 C 
HETATM   16  C   UNL     1       8.695  20.452  53.566  1.00  0.00     0.029 C 
HETATM   17  C   UNL     1       8.881  21.942  53.761  1.00  0.00     0.133 C 
ENDBRANCH  10  12
ENDBRANCH   2   5
BRANCH   1  18
HETATM   18  C   UNL     1       5.877  27.197  52.125  1.00  0.00     0.035 A 
HETATM   19  C   UNL     1       5.649  28.568  52.012  1.00  0.00     0.032 A 
HETATM   20  C   UNL     1       4.914  29.104  50.945  1.00  0.00     0.033 A 
HETATM   21  C   UNL     1       4.406  28.214  49.995  1.00  0.00     0.042 A 
HETATM   22  N   UNL     1       3.646  28.447  48.870  1.00  0.00    -0.359 N 
HETATM   23  C   UNL     1       4.620  26.841  50.067  1.00  0.00    -0.005 A 
HETATM   24  C   UNL     1       3.356  27.264  48.233  1.00  0.00     0.006 A 
HETATM   25  H   UNL     1       3.338  29.362  48.572  1.00  0.00     0.166 HD
HETATM   26  C   UNL     1       2.528  27.208  47.004  1.00  0.00     0.068 C 
HETATM   27  C   UNL     1       3.963  26.254  48.952  1.00  0.00     0.038 A 
HETATM   28  C   UNL     1       5.374  26.328  51.142  1.00  0.00     0.043 A 
ENDBRANCH   1  18
TORSDOF 3
ENDMDL
MODEL 6
REMARK VINA RESULT:      -9.0      4.019      6.160
REMARK  3 active torsions:
REMARK  status: ('A' for Active; 'I' for Inactive)
REMARK    1  A    between atoms: C_10  and  N_11 
REMARK       I    between atoms: N_11  and  C_12 
REMARK    2  A    between atoms: C_12  and  C_13 
REMARK    3  A    between atoms: C_18  and  N_19 
ROOT
HETATM    1  N   UNL     1       7.498  30.539  59.344  1.00  0.00    -0.323 N 
HETATM    2  C   UNL     1       8.100  31.719  59.732  1.00  0.00     0.258 C 
HETATM    3  O   UNL     1       8.764  32.478  59.035  1.00  0.00    -0.267 OA
HETATM    4  H   UNL     1       6.980  30.036  60.055  1.00  0.00     0.169 HD
ENDROOT
BRANCH   2   5
HETATM    5  C   UNL     1       7.806  32.143  61.126  1.00  0.00     0.056 A 
HETATM    6  C   UNL     1       8.401  31.586  62.260  1.00  0.00     0.050 A 
HETATM    7 CL   UNL     1       9.637  30.384  62.189  1.00  0.00    -0.083 Cl
HETATM    8  C   UNL     1       7.998  32.021  63.522  1.00  0.00     0.027 A 
HETATM    9  C   UNL     1       7.005  33.000  63.654  1.00  0.00     0.031 A 
HETATM   10  C   UNL     1       6.398  33.578  62.534  1.00  0.00     0.038 A 
HETATM   11  C   UNL     1       6.830  33.149  61.271  1.00  0.00     0.048 A 
BRANCH  10  12
HETATM   12  N   UNL     1       5.369  34.552  62.654  1.00  0.00    -0.318 N 
HETATM   13  C   UNL     1       4.011  34.299  62.905  1.00  0.00     0.224 C 
HETATM   14  O   UNL     1       3.451  33.236  63.123  1.00  0.00    -0.273 OA
HETATM   15  C   UNL     1       3.265  35.605  62.768  1.00  0.00     0.105 C 
HETATM   16  C   UNL     1       4.358  36.646  62.910  1.00  0.00     0.029 C 
HETATM   17  C   UNL     1       5.579  35.950  62.348  1.00  0.00     0.133 C 
ENDBRANCH  10  12
ENDBRANCH   2   5
BRANCH   1  18
HETATM   18  C   UNL     1       7.479  29.957  58.059  1.00  0.00     0.035 A 
HETATM   19  C   UNL     1       8.610  29.462  57.411  1.00  0.00     0.032 A 
HETATM   20  C   UNL     1       8.537  28.926  56.116  1.00  0.00     0.033 A 
HETATM   21  C   UNL     1       7.289  28.912  55.488  1.00  0.00     0.042 A 
HETATM   22  N   UNL     1       6.925  28.473  54.236  1.00  0.00    -0.359 N 
HETATM   23  C   UNL     1       6.136  29.387  56.107  1.00  0.00    -0.005 A 
HETATM   24  C   UNL     1       5.580  28.668  54.030  1.00  0.00     0.006 A 
HETATM   25  H   UNL     1       7.567  28.077  53.563  1.00  0.00     0.166 HD
HETATM   26  C   UNL     1       4.913  28.311  52.754  1.00  0.00     0.068 C 
HETATM   27  C   UNL     1       5.067  29.223  55.185  1.00  0.00     0.038 A 
HETATM   28  C   UNL     1       6.233  29.907  57.413  1.00  0.00     0.043 A 
ENDBRANCH   1  18
TORSDOF 3
ENDMDL
MODEL 7
REMARK VINA RESULT:      -9.0      2.459      2.984
REMARK  3 active torsions:
REMARK  status: ('A' for Active; 'I' for Inactive)
REMARK    1  A    between atoms: C_10  and  N_11 
REMARK       I    between atoms: N_11  and  C_12 
REMARK    2  A    between atoms: C_12  and  C_13 
REMARK    3  A    between atoms: C_18  and  N_19 
ROOT
HETATM    1  N   UNL     1       6.651  27.115  55.606  1.00  0.00    -0.323 N 
HETATM    2  C   UNL     1       5.463  27.485  56.203  1.00  0.00     0.258 C 
HETATM    3  O   UNL     1       4.677  26.761  56.804  1.00  0.00    -0.267 OA
HETATM    4  H   UNL     1       7.181  27.850  55.153  1.00  0.00     0.169 HD
ENDROOT
BRANCH   2   5
HETATM    5  C   UNL     1       5.182  28.945  56.189  1.00  0.00     0.056 A 
HETATM    6  C   UNL     1       4.853  29.672  55.044  1.00  0.00     0.050 A 
HETATM    7 CL   UNL     1       4.636  28.950  53.492  1.00  0.00    -0.083 Cl
HETATM    8  C   UNL     1       4.675  31.051  55.142  1.00  0.00     0.027 A 
HETATM    9  C   UNL     1       4.829  31.703  56.372  1.00  0.00     0.031 A 
HETATM   10  C   UNL     1       5.151  30.996  57.536  1.00  0.00     0.038 A 
HETATM   11  C   UNL     1       5.305  29.607  57.427  1.00  0.00     0.048 A 
BRANCH  10  12
HETATM   12  N   UNL     1       5.338  31.649  58.785  1.00  0.00    -0.318 N 
HETATM   13  C   UNL     1       4.329  32.187  59.600  1.00  0.00     0.224 C 
HETATM   14  O   UNL     1       3.117  32.161  59.448  1.00  0.00    -0.273 OA
HETATM   15  C   UNL     1       4.998  32.937  60.728  1.00  0.00     0.105 C 
HETATM   16  C   UNL     1       6.401  32.364  60.742  1.00  0.00     0.029 C 
HETATM   17  C   UNL     1       6.645  32.001  59.293  1.00  0.00     0.133 C 
ENDBRANCH  10  12
ENDBRANCH   2   5
BRANCH   1  18
HETATM   18  C   UNL     1       7.247  25.837  55.580  1.00  0.00     0.035 A 
HETATM   19  C   UNL     1       8.054  25.332  56.599  1.00  0.00     0.032 A 
HETATM   20  C   UNL     1       8.652  24.067  56.501  1.00  0.00     0.033 A 
HETATM   21  C   UNL     1       8.420  23.326  55.339  1.00  0.00     0.042 A 
HETATM   22  N   UNL     1       8.882  22.085  54.965  1.00  0.00    -0.359 N 
HETATM   23  C   UNL     1       7.613  23.792  54.305  1.00  0.00    -0.005 A 
HETATM   24  C   UNL     1       8.408  21.752  53.719  1.00  0.00     0.006 A 
HETATM   25  H   UNL     1       9.495  21.513  55.529  1.00  0.00     0.166 HD
HETATM   26  C   UNL     1       8.766  20.478  53.049  1.00  0.00     0.068 C 
HETATM   27  C   UNL     1       7.606  22.793  53.295  1.00  0.00     0.038 A 
HETATM   28  C   UNL     1       7.012  25.061  54.433  1.00  0.00     0.043 A 
ENDBRANCH   1  18
TORSDOF 3
ENDMDL
MODEL 8
REMARK VINA RESULT:      -8.8      4.125      8.385
REMARK  3 active torsions:
REMARK  status: ('A' for Active; 'I' for Inactive)
REMARK    1  A    between atoms: C_10  and  N_11 
REMARK       I    between atoms: N_11  and  C_12 
REMARK    2  A    between atoms: C_12  and  C_13 
REMARK    3  A    between atoms: C_18  and  N_19 
ROOT
HETATM    1  N   UNL     1       5.517  27.313  54.515  1.00  0.00    -0.323 N 
HETATM    2  C   UNL     1       6.891  27.204  54.574  1.00  0.00     0.258 C 
HETATM    3  O   UNL     1       7.718  27.955  54.071  1.00  0.00    -0.267 OA
HETATM    4  H   UNL     1       4.981  26.600  54.995  1.00  0.00     0.169 HD
ENDROOT
BRANCH   2   5
HETATM    5  C   UNL     1       7.396  26.102  55.436  1.00  0.00     0.056 A 
HETATM    6  C   UNL     1       7.866  26.275  56.739  1.00  0.00     0.050 A 
HETATM    7 CL   UNL     1       7.837  27.791  57.564  1.00  0.00    -0.083 Cl
HETATM    8  C   UNL     1       8.376  25.177  57.429  1.00  0.00     0.027 A 
HETATM    9  C   UNL     1       8.424  23.914  56.823  1.00  0.00     0.031 A 
HETATM   10  C   UNL     1       7.952  23.713  55.521  1.00  0.00     0.038 A 
HETATM   11  C   UNL     1       7.420  24.822  54.848  1.00  0.00     0.048 A 
BRANCH  10  12
HETATM   12  N   UNL     1       8.020  22.444  54.884  1.00  0.00    -0.318 N 
HETATM   13  C   UNL     1       7.996  22.207  53.500  1.00  0.00     0.224 C 
HETATM   14  O   UNL     1       7.971  23.009  52.579  1.00  0.00    -0.273 OA
HETATM   15  C   UNL     1       7.906  20.714  53.290  1.00  0.00     0.105 C 
HETATM   16  C   UNL     1       8.372  20.148  54.616  1.00  0.00     0.029 C 
HETATM   17  C   UNL     1       7.943  21.200  55.616  1.00  0.00     0.133 C 
ENDBRANCH  10  12
ENDBRANCH   2   5
BRANCH   1  18
HETATM   18  C   UNL     1       4.753  28.325  53.897  1.00  0.00     0.035 A 
HETATM   19  C   UNL     1       4.495  29.569  54.472  1.00  0.00     0.032 A 
HETATM   20  C   UNL     1       3.697  30.524  53.826  1.00  0.00     0.033 A 
HETATM   21  C   UNL     1       3.157  30.186  52.583  1.00  0.00     0.042 A 
HETATM   22  N   UNL     1       2.337  30.902  51.741  1.00  0.00    -0.359 N 
HETATM   23  C   UNL     1       3.400  28.959  51.971  1.00  0.00    -0.005 A 
HETATM   24  C   UNL     1       2.037  30.166  50.620  1.00  0.00     0.006 A 
HETATM   25  H   UNL     1       1.997  31.834  51.935  1.00  0.00     0.166 HD
HETATM   26  C   UNL     1       1.148  30.677  49.549  1.00  0.00     0.068 C 
HETATM   27  C   UNL     1       2.697  28.959  50.736  1.00  0.00     0.038 A 
HETATM   28  C   UNL     1       4.217  28.021  52.634  1.00  0.00     0.043 A 
ENDBRANCH   1  18
TORSDOF 3
ENDMDL
MODEL 9
REMARK VINA RESULT:      -8.7      4.025      5.307
REMARK  3 active torsions:
REMARK  status: ('A' for Active; 'I' for Inactive)
REMARK    1  A    between atoms: C_10  and  N_11 
REMARK       I    between atoms: N_11  and  C_12 
REMARK    2  A    between atoms: C_12  and  C_13 
REMARK    3  A    between atoms: C_18  and  N_19 
ROOT
HETATM    1  N   UNL     1       6.240  27.623  52.836  1.00  0.00    -0.323 N 
HETATM    2  C   UNL     1       5.708  27.805  54.096  1.00  0.00     0.258 C 
HETATM    3  O   UNL     1       4.571  28.167  54.377  1.00  0.00    -0.267 OA
HETATM    4  H   UNL     1       7.204  27.313  52.789  1.00  0.00     0.169 HD
ENDROOT
BRANCH   2   5
HETATM    5  C   UNL     1       6.602  27.413  55.218  1.00  0.00     0.056 A 
HETATM    6  C   UNL     1       6.568  26.170  55.853  1.00  0.00     0.050 A 
HETATM    7 CL   UNL     1       5.537  24.879  55.357  1.00  0.00    -0.083 Cl
HETATM    8  C   UNL     1       7.412  25.939  56.938  1.00  0.00     0.027 A 
HETATM    9  C   UNL     1       8.281  26.940  57.391  1.00  0.00     0.031 A 
HETATM   10  C   UNL     1       8.339  28.191  56.767  1.00  0.00     0.038 A 
HETATM   11  C   UNL     1       7.502  28.402  55.662  1.00  0.00     0.048 A 
BRANCH  10  12
HETATM   12  N   UNL     1       9.196  29.225  57.233  1.00  0.00    -0.318 N 
HETATM   13  C   UNL     1       8.955  30.071  58.328  1.00  0.00     0.224 C 
HETATM   14  O   UNL     1       8.026  30.066  59.120  1.00  0.00    -0.273 OA
HETATM   15  C   UNL     1      10.036  31.127  58.341  1.00  0.00     0.105 C 
HETATM   16  C   UNL     1      11.131  30.514  57.491  1.00  0.00     0.029 C 
HETATM   17  C   UNL     1      10.368  29.655  56.504  1.00  0.00     0.133 C 
ENDBRANCH  10  12
ENDBRANCH   2   5
BRANCH   1  18
HETATM   18  C   UNL     1       5.594  27.775  51.592  1.00  0.00     0.035 A 
HETATM   19  C   UNL     1       5.369  29.005  50.975  1.00  0.00     0.032 A 
HETATM   20  C   UNL     1       4.687  29.099  49.753  1.00  0.00     0.033 A 
HETATM   21  C   UNL     1       4.229  27.913  49.172  1.00  0.00     0.042 A 
HETATM   22  N   UNL     1       3.527  27.703  48.007  1.00  0.00    -0.359 N 
HETATM   23  C   UNL     1       4.444  26.666  49.751  1.00  0.00    -0.005 A 
HETATM   24  C   UNL     1       3.273  26.364  47.833  1.00  0.00     0.006 A 
HETATM   25  H   UNL     1       3.231  28.439  47.381  1.00  0.00     0.166 HD
HETATM   26  C   UNL     1       2.507  25.846  46.674  1.00  0.00     0.068 C 
HETATM   27  C   UNL     1       3.845  25.698  48.899  1.00  0.00     0.038 A 
HETATM   28  C   UNL     1       5.144  26.597  50.972  1.00  0.00     0.043 A 
ENDBRANCH   1  18
TORSDOF 3
ENDMDL
MODEL 10
REMARK VINA RESULT:      -8.6      5.403     11.633
REMARK  3 active torsions:
REMARK  status: ('A' for Active; 'I' for Inactive)
REMARK    1  A    between atoms: C_10  and  N_11 
REMARK       I    between atoms: N_11  and  C_12 
REMARK    2  A    between atoms: C_12  and  C_13 
REMARK    3  A    between atoms: C_18  and  N_19 
ROOT
HETATM    1  N   UNL     1       4.464  33.690  63.225  1.00  0.00    -0.323 N 
HETATM    2  C   UNL     1       5.119  34.276  62.161  1.00  0.00     0.258 C 
HETATM    3  O   UNL     1       5.838  35.268  62.187  1.00  0.00    -0.267 OA
HETATM    4  H   UNL     1       3.911  32.866  63.022  1.00  0.00     0.169 HD
ENDROOT
BRANCH   2   5
HETATM    5  C   UNL     1       5.007  33.540  60.874  1.00  0.00     0.056 A 
HETATM    6  C   UNL     1       3.846  33.480  60.101  1.00  0.00     0.050 A 
HETATM    7 CL   UNL     1       2.399  34.335  60.495  1.00  0.00    -0.083 Cl
HETATM    8  C   UNL     1       3.839  32.704  58.943  1.00  0.00     0.027 A 
HETATM    9  C   UNL     1       4.981  31.988  58.559  1.00  0.00     0.031 A 
HETATM   10  C   UNL     1       6.159  32.039  59.312  1.00  0.00     0.038 A 
HETATM   11  C   UNL     1       6.158  32.841  60.462  1.00  0.00     0.048 A 
BRANCH  10  12
HETATM   12  N   UNL     1       7.316  31.295  58.949  1.00  0.00    -0.318 N 
HETATM   13  C   UNL     1       8.649  31.706  59.106  1.00  0.00     0.224 C 
HETATM   14  O   UNL     1       9.089  32.722  59.620  1.00  0.00    -0.273 OA
HETATM   15  C   UNL     1       9.529  30.686  58.421  1.00  0.00     0.105 C 
HETATM   16  C   UNL     1       8.632  29.469  58.314  1.00  0.00     0.029 C 
HETATM   17  C   UNL     1       7.246  30.066  58.192  1.00  0.00     0.133 C 
ENDBRANCH  10  12
ENDBRANCH   2   5
BRANCH   1  18
HETATM   18  C   UNL     1       4.497  34.074  64.582  1.00  0.00     0.035 A 
HETATM   19  C   UNL     1       3.427  34.666  65.251  1.00  0.00     0.032 A 
HETATM   20  C   UNL     1       3.530  35.062  66.593  1.00  0.00     0.033 A 
HETATM   21  C   UNL     1       4.750  34.851  67.241  1.00  0.00     0.042 A 
HETATM   22  N   UNL     1       5.142  35.149  68.526  1.00  0.00    -0.359 N 
HETATM   23  C   UNL     1       5.838  34.255  66.609  1.00  0.00    -0.005 A 
HETATM   24  C   UNL     1       6.448  34.776  68.729  1.00  0.00     0.006 A 
HETATM   25  H   UNL     1       4.548  35.593  69.213  1.00  0.00     0.166 HD
HETATM   26  C   UNL     1       7.146  35.002  70.018  1.00  0.00     0.068 C 
HETATM   27  C   UNL     1       6.898  34.206  67.555  1.00  0.00     0.038 A 
HETATM   28  C   UNL     1       5.705  33.853  65.265  1.00  0.00     0.043 A 
ENDBRANCH   1  18
TORSDOF 3
ENDMDL
