MODEL 1
REMARK VINA RESULT:      -9.9      0.000      0.000
REMARK  6 active torsions:
REMARK  status: ('A' for Active; 'I' for Inactive)
REMARK    1  A    between atoms: N_2  and  C_5 
REMARK    2  A    between atoms: C_10  and  N_11 
REMARK       I    between atoms: N_11  and  C_12 
REMARK    3  A    between atoms: C_12  and  C_14 
REMARK    4  A    between atoms: C_18  and  C_20 
REMARK       I    between atoms: N_24  and  C_25 
REMARK    5  A    between atoms: C_25  and  C_27 
REMARK    6  A    between atoms: C_32  and  O_33 
ROOT
HETATM    1  C   UNL     1       6.378  24.917  52.411  1.00  0.00     0.033 A 
HETATM    2  C   UNL     1       7.658  25.227  51.934  1.00  0.00     0.017 A 
HETATM    3  C   UNL     1       8.781  24.587  52.455  1.00  0.00     0.002 A 
HETATM    4  C   UNL     1       8.635  23.630  53.458  1.00  0.00     0.009 A 
HETATM    5  C   UNL     1       7.363  23.299  53.953  1.00  0.00    -0.034 A 
HETATM    6  C   UNL     1       6.236  23.937  53.404  1.00  0.00     0.026 A 
ENDROOT
BRANCH   5   7
HETATM    7  C   UNL     1       7.188  22.286  55.065  1.00  0.00     0.120 C 
HETATM    8  C   UNL     1       7.587  20.871  54.612  1.00  0.00     0.032 C 
HETATM    9  C   UNL     1       8.013  20.198  55.909  1.00  0.00     0.022 C 
HETATM   10  C   UNL     1       8.720  21.319  56.654  1.00  0.00     0.127 C 
HETATM   11  N   UNL     1       8.008  22.523  56.259  1.00  0.00    -0.339 N 
HETATM   12  C   UNL     1       8.051  23.642  57.073  1.00  0.00     0.254 C 
HETATM   13  O   UNL     1       8.738  23.725  58.086  1.00  0.00    -0.267 OA
BRANCH  12  14
HETATM   14  C   UNL     1       7.251  24.818  56.686  1.00  0.00     0.033 A 
HETATM   15  C   UNL     1       5.892  24.831  56.998  1.00  0.00     0.018 A 
HETATM   16  C   UNL     1       5.135  25.967  56.719  1.00  0.00     0.013 A 
HETATM   17  C   UNL     1       5.722  27.085  56.107  1.00  0.00    -0.023 A 
HETATM   18  C   UNL     1       4.973  28.242  55.844  1.00  0.00     0.048 A 
HETATM   19  C   UNL     1       7.092  27.043  55.742  1.00  0.00    -0.025 A 
HETATM   20  C   UNL     1       5.570  29.331  55.218  1.00  0.00     0.066 A 
HETATM   21  C   UNL     1       6.904  29.291  54.836  1.00  0.00     0.037 A 
HETATM   22  C   UNL     1       7.666  28.153  55.099  1.00  0.00     0.015 A 
HETATM   23  C   UNL     1       7.849  25.899  56.034  1.00  0.00     0.029 A 
BRANCH  20  24
HETATM   24  O   UNL     1       4.868  30.473  54.957  1.00  0.00    -0.361 OA
HETATM   25  H   UNL     1       4.156  30.256  54.330  1.00  0.00     0.217 HD
ENDBRANCH  20  24
ENDBRANCH  12  14
ENDBRANCH   5   7
BRANCH   1  26
HETATM   26  C   UNL     1       5.208  25.612  51.794  1.00  0.00     0.257 C 
HETATM   27  N   UNL     1       5.310  25.877  50.445  1.00  0.00    -0.301 N 
HETATM   28  H   UNL     1       6.061  25.500  49.887  1.00  0.00     0.171 HD
HETATM   29  O   UNL     1       4.256  25.885  52.518  1.00  0.00    -0.267 OA
BRANCH  27  30
HETATM   30  C   UNL     1       4.376  26.632  49.791  1.00  0.00     0.174 A 
HETATM   31  N   UNL     1       4.007  27.871  50.007  1.00  0.00    -0.228 NA
HETATM   32  C   UNL     1       3.059  28.239  49.091  1.00  0.00     0.050 A 
HETATM   33  C   UNL     1       2.461  29.602  49.114  1.00  0.00     0.062 C 
HETATM   34  C   UNL     1       2.748  27.279  48.151  1.00  0.00     0.013 A 
HETATM   35  C   UNL     1       1.190  29.659  48.244  1.00  0.00     0.039 C 
HETATM   36  C   UNL     1       1.419  28.958  46.887  1.00  0.00     0.192 C 
HETATM   37  C   UNL     1       1.760  27.446  47.048  1.00  0.00     0.081 C 
HETATM   38  S   UNL     1       3.626  25.851  48.462  1.00  0.00    -0.055 SA
BRANCH  36  39
HETATM   39  N   UNL     1       0.231  29.149  45.935  1.00  0.00    -0.074 N 
HETATM   40  C   UNL     1      -0.574  27.912  45.628  1.00  0.00     0.269 C 
HETATM   41  H   UNL     1       0.634  29.453  45.037  1.00  0.00     0.279 HD
HETATM   42  C   UNL     1      -0.673  30.285  46.355  1.00  0.00     0.269 C 
ENDBRANCH  36  39
ENDBRANCH  27  30
ENDBRANCH   1  26
TORSDOF 6
ENDMDL
MODEL 2
REMARK VINA RESULT:      -9.7      5.708     10.581
REMARK  6 active torsions:
REMARK  status: ('A' for Active; 'I' for Inactive)
REMARK    1  A    between atoms: N_2  and  C_5 
REMARK    2  A    between atoms: C_10  and  N_11 
REMARK       I    between atoms: N_11  and  C_12 
REMARK    3  A    between atoms: C_12  and  C_14 
REMARK    4  A    between atoms: C_18  and  C_20 
REMARK       I    between atoms: N_24  and  C_25 
REMARK    5  A    between atoms: C_25  and  C_27 
REMARK    6  A    between atoms: C_32  and  O_33 
ROOT
HETATM    1  C   UNL     1       7.153  28.891  56.119  1.00  0.00     0.033 A 
HETATM    2  C   UNL     1       8.347  28.603  55.447  1.00  0.00     0.017 A 
HETATM    3  C   UNL     1       8.329  28.230  54.103  1.00  0.00     0.002 A 
HETATM    4  C   UNL     1       7.118  28.143  53.420  1.00  0.00     0.009 A 
HETATM    5  C   UNL     1       5.906  28.429  54.070  1.00  0.00    -0.034 A 
HETATM    6  C   UNL     1       5.939  28.824  55.420  1.00  0.00     0.026 A 
ENDROOT
BRANCH   5   7
HETATM    7  C   UNL     1       4.578  28.308  53.353  1.00  0.00     0.120 C 
HETATM    8  C   UNL     1       3.966  29.688  53.055  1.00  0.00     0.032 C 
HETATM    9  C   UNL     1       3.112  29.431  51.822  1.00  0.00     0.022 C 
HETATM   10  C   UNL     1       3.954  28.443  51.030  1.00  0.00     0.127 C 
HETATM   11  N   UNL     1       4.635  27.651  52.041  1.00  0.00    -0.339 N 
HETATM   12  C   UNL     1       5.099  26.386  51.725  1.00  0.00     0.254 C 
HETATM   13  O   UNL     1       5.057  25.906  50.597  1.00  0.00    -0.267 OA
BRANCH  12  14
HETATM   14  C   UNL     1       5.709  25.578  52.795  1.00  0.00     0.033 A 
HETATM   15  C   UNL     1       5.122  25.596  54.060  1.00  0.00     0.018 A 
HETATM   16  C   UNL     1       5.630  24.773  55.064  1.00  0.00     0.013 A 
HETATM   17  C   UNL     1       6.740  23.949  54.819  1.00  0.00    -0.023 A 
HETATM   18  C   UNL     1       7.244  23.100  55.817  1.00  0.00     0.048 A 
HETATM   19  C   UNL     1       7.366  23.978  53.546  1.00  0.00    -0.025 A 
HETATM   20  C   UNL     1       8.358  22.307  55.559  1.00  0.00     0.066 A 
HETATM   21  C   UNL     1       8.991  22.346  54.324  1.00  0.00     0.037 A 
HETATM   22  C   UNL     1       8.496  23.176  53.319  1.00  0.00     0.015 A 
HETATM   23  C   UNL     1       6.843  24.803  52.539  1.00  0.00     0.029 A 
BRANCH  20  24
HETATM   24  O   UNL     1       8.865  21.466  56.507  1.00  0.00    -0.361 OA
HETATM   25  H   UNL     1       9.241  20.690  56.057  1.00  0.00     0.217 HD
ENDBRANCH  20  24
ENDBRANCH  12  14
ENDBRANCH   5   7
BRANCH   1  26
HETATM   26  C   UNL     1       7.234  29.315  57.550  1.00  0.00     0.257 C 
HETATM   27  N   UNL     1       6.727  30.565  57.835  1.00  0.00    -0.301 N 
HETATM   28  H   UNL     1       6.209  31.095  57.151  1.00  0.00     0.171 HD
HETATM   29  O   UNL     1       7.731  28.532  58.352  1.00  0.00    -0.267 OA
BRANCH  27  30
HETATM   30  C   UNL     1       6.869  31.129  59.073  1.00  0.00     0.174 A 
HETATM   31  N   UNL     1       7.873  31.055  59.911  1.00  0.00    -0.228 NA
HETATM   32  C   UNL     1       7.603  31.804  61.025  1.00  0.00     0.050 A 
HETATM   33  C   UNL     1       8.581  31.889  62.145  1.00  0.00     0.062 C 
HETATM   34  C   UNL     1       6.403  32.483  60.999  1.00  0.00     0.013 A 
HETATM   35  C   UNL     1       7.919  32.473  63.408  1.00  0.00     0.039 C 
HETATM   36  C   UNL     1       7.061  33.710  63.059  1.00  0.00     0.192 C 
HETATM   37  C   UNL     1       5.895  33.369  62.084  1.00  0.00     0.081 C 
HETATM   38  S   UNL     1       5.560  32.123  59.562  1.00  0.00    -0.055 SA
BRANCH  36  39
HETATM   39  N   UNL     1       6.532  34.413  64.316  1.00  0.00    -0.074 N 
HETATM   40  C   UNL     1       5.057  34.729  64.323  1.00  0.00     0.269 C 
HETATM   41  H   UNL     1       7.015  35.323  64.355  1.00  0.00     0.279 HD
HETATM   42  C   UNL     1       6.934  33.707  65.590  1.00  0.00     0.269 C 
ENDBRANCH  36  39
ENDBRANCH  27  30
ENDBRANCH   1  26
TORSDOF 6
ENDMDL
MODEL 3
REMARK VINA RESULT:      -9.6      5.391      9.747
REMARK  6 active torsions:
REMARK  status: ('A' for Active; 'I' for Inactive)
REMARK    1  A    between atoms: N_2  and  C_5 
REMARK    2  A    between atoms: C_10  and  N_11 
REMARK       I    between atoms: N_11  and  C_12 
REMARK    3  A    between atoms: C_12  and  C_14 
REMARK    4  A    between atoms: C_18  and  C_20 
REMARK       I    between atoms: N_24  and  C_25 
REMARK    5  A    between atoms: C_25  and  C_27 
REMARK    6  A    between atoms: C_32  and  O_33 
ROOT
HETATM    1  C   UNL     1       7.739  30.150  58.686  1.00  0.00     0.033 A 
HETATM    2  C   UNL     1       8.778  30.935  58.172  1.00  0.00     0.017 A 
HETATM    3  C   UNL     1       9.242  32.044  58.878  1.00  0.00     0.002 A 
HETATM    4  C   UNL     1       8.672  32.378  60.105  1.00  0.00     0.009 A 
HETATM    5  C   UNL     1       7.630  31.606  60.644  1.00  0.00    -0.034 A 
HETATM    6  C   UNL     1       7.184  30.477  59.932  1.00  0.00     0.026 A 
ENDROOT
BRANCH   5   7
HETATM    7  C   UNL     1       6.975  31.973  61.960  1.00  0.00     0.120 C 
HETATM    8  C   UNL     1       7.999  32.027  63.106  1.00  0.00     0.032 C 
HETATM    9  C   UNL     1       7.379  33.020  64.080  1.00  0.00     0.022 C 
HETATM   10  C   UNL     1       6.755  34.053  63.155  1.00  0.00     0.127 C 
HETATM   11  N   UNL     1       6.333  33.292  61.990  1.00  0.00    -0.339 N 
HETATM   12  C   UNL     1       5.330  33.787  61.175  1.00  0.00     0.254 C 
HETATM   13  O   UNL     1       4.820  34.894  61.314  1.00  0.00    -0.267 OA
BRANCH  12  14
HETATM   14  C   UNL     1       4.868  32.952  60.052  1.00  0.00     0.033 A 
HETATM   15  C   UNL     1       3.940  31.943  60.310  1.00  0.00     0.018 A 
HETATM   16  C   UNL     1       3.424  31.199  59.251  1.00  0.00     0.013 A 
HETATM   17  C   UNL     1       3.849  31.439  57.935  1.00  0.00    -0.023 A 
HETATM   18  C   UNL     1       3.317  30.709  56.860  1.00  0.00     0.048 A 
HETATM   19  C   UNL     1       4.834  32.428  57.687  1.00  0.00    -0.025 A 
HETATM   20  C   UNL     1       3.767  30.949  55.565  1.00  0.00     0.066 A 
HETATM   21  C   UNL     1       4.748  31.899  55.316  1.00  0.00     0.037 A 
HETATM   22  C   UNL     1       5.279  32.640  56.372  1.00  0.00     0.015 A 
HETATM   23  C   UNL     1       5.342  33.179  58.757  1.00  0.00     0.029 A 
BRANCH  20  24
HETATM   24  O   UNL     1       3.263  30.262  54.499  1.00  0.00    -0.361 OA
HETATM   25  H   UNL     1       3.885  30.351  53.757  1.00  0.00     0.217 HD
ENDBRANCH  20  24
ENDBRANCH  12  14
ENDBRANCH   5   7
BRANCH   1  26
HETATM   26  C   UNL     1       7.303  28.955  57.901  1.00  0.00     0.257 C 
HETATM   27  N   UNL     1       8.269  27.996  57.682  1.00  0.00    -0.301 N 
HETATM   28  H   UNL     1       9.166  28.033  58.142  1.00  0.00     0.171 HD
HETATM   29  O   UNL     1       6.137  28.913  57.522  1.00  0.00    -0.267 OA
BRANCH  27  30
HETATM   30  C   UNL     1       8.041  26.926  56.860  1.00  0.00     0.174 A 
HETATM   31  N   UNL     1       7.717  26.906  55.590  1.00  0.00    -0.228 NA
HETATM   32  C   UNL     1       7.620  25.611  55.158  1.00  0.00     0.050 A 
HETATM   33  C   UNL     1       7.256  25.301  53.747  1.00  0.00     0.062 C 
HETATM   34  C   UNL     1       7.918  24.652  56.103  1.00  0.00     0.013 A 
HETATM   35  C   UNL     1       6.860  23.820  53.596  1.00  0.00     0.039 C 
HETATM   36  C   UNL     1       7.857  22.903  54.338  1.00  0.00     0.192 C 
HETATM   37  C   UNL     1       7.895  23.181  55.870  1.00  0.00     0.081 C 
HETATM   38  S   UNL     1       8.272  25.395  57.596  1.00  0.00    -0.055 SA
BRANCH  36  39
HETATM   39  N   UNL     1       7.587  21.419  54.060  1.00  0.00    -0.074 N 
HETATM   40  C   UNL     1       8.320  20.823  52.884  1.00  0.00     0.269 C 
HETATM   41  H   UNL     1       6.585  21.352  53.830  1.00  0.00     0.279 HD
HETATM   42  C   UNL     1       7.759  20.556  55.289  1.00  0.00     0.269 C 
ENDBRANCH  36  39
ENDBRANCH  27  30
ENDBRANCH   1  26
TORSDOF 6
ENDMDL
MODEL 4
REMARK VINA RESULT:      -9.3      2.167      2.797
REMARK  6 active torsions:
REMARK  status: ('A' for Active; 'I' for Inactive)
REMARK    1  A    between atoms: N_2  and  C_5 
REMARK    2  A    between atoms: C_10  and  N_11 
REMARK       I    between atoms: N_11  and  C_12 
REMARK    3  A    between atoms: C_12  and  C_14 
REMARK    4  A    between atoms: C_18  and  C_20 
REMARK       I    between atoms: N_24  and  C_25 
REMARK    5  A    between atoms: C_25  and  C_27 
REMARK    6  A    between atoms: C_32  and  O_33 
ROOT
HETATM    1  C   UNL     1       6.192  25.550  52.764  1.00  0.00     0.033 A 
HETATM    2  C   UNL     1       7.348  25.699  51.988  1.00  0.00     0.017 A 
HETATM    3  C   UNL     1       8.423  24.826  52.147  1.00  0.00     0.002 A 
HETATM    4  C   UNL     1       8.352  23.796  53.084  1.00  0.00     0.009 A 
HETATM    5  C   UNL     1       7.204  23.623  53.873  1.00  0.00    -0.034 A 
HETATM    6  C   UNL     1       6.117  24.497  53.688  1.00  0.00     0.026 A 
ENDROOT
BRANCH   5   7
HETATM    7  C   UNL     1       7.121  22.530  54.918  1.00  0.00     0.120 C 
HETATM    8  C   UNL     1       7.523  21.162  54.340  1.00  0.00     0.032 C 
HETATM    9  C   UNL     1       8.044  20.410  55.557  1.00  0.00     0.022 C 
HETATM   10  C   UNL     1       8.771  21.495  56.337  1.00  0.00     0.127 C 
HETATM   11  N   UNL     1       8.009  22.705  56.074  1.00  0.00    -0.339 N 
HETATM   12  C   UNL     1       8.077  23.764  56.962  1.00  0.00     0.254 C 
HETATM   13  O   UNL     1       8.825  23.794  57.934  1.00  0.00    -0.267 OA
BRANCH  12  14
HETATM   14  C   UNL     1       7.228  24.942  56.710  1.00  0.00     0.033 A 
HETATM   15  C   UNL     1       5.871  24.863  57.017  1.00  0.00     0.018 A 
HETATM   16  C   UNL     1       5.066  25.991  56.868  1.00  0.00     0.013 A 
HETATM   17  C   UNL     1       5.606  27.196  56.389  1.00  0.00    -0.023 A 
HETATM   18  C   UNL     1       4.809  28.343  56.259  1.00  0.00     0.048 A 
HETATM   19  C   UNL     1       6.976  27.253  56.027  1.00  0.00    -0.025 A 
HETATM   20  C   UNL     1       5.359  29.521  55.763  1.00  0.00     0.066 A 
HETATM   21  C   UNL     1       6.693  29.580  55.384  1.00  0.00     0.037 A 
HETATM   22  C   UNL     1       7.501  28.451  55.517  1.00  0.00     0.015 A 
HETATM   23  C   UNL     1       7.780  26.115  56.188  1.00  0.00     0.029 A 
BRANCH  20  24
HETATM   24  O   UNL     1       4.610  30.654  55.633  1.00  0.00    -0.361 OA
HETATM   25  H   UNL     1       3.840  30.449  55.075  1.00  0.00     0.217 HD
ENDBRANCH  20  24
ENDBRANCH  12  14
ENDBRANCH   5   7
BRANCH   1  26
HETATM   26  C   UNL     1       5.058  26.495  52.528  1.00  0.00     0.257 C 
HETATM   27  N   UNL     1       5.173  27.305  51.419  1.00  0.00    -0.301 N 
HETATM   28  H   UNL     1       5.903  27.168  50.737  1.00  0.00     0.171 HD
HETATM   29  O   UNL     1       4.122  26.476  53.321  1.00  0.00    -0.267 OA
BRANCH  27  30
HETATM   30  C   UNL     1       4.278  28.309  51.171  1.00  0.00     0.174 A 
HETATM   31  N   UNL     1       3.190  28.294  50.440  1.00  0.00    -0.228 NA
HETATM   32  C   UNL     1       2.576  29.516  50.498  1.00  0.00     0.050 A 
HETATM   33  C   UNL     1       1.316  29.774  49.748  1.00  0.00     0.062 C 
HETATM   34  C   UNL     1       3.186  30.442  51.317  1.00  0.00     0.013 A 
HETATM   35  C   UNL     1       1.021  31.285  49.674  1.00  0.00     0.039 C 
HETATM   36  C   UNL     1       1.233  31.956  51.049  1.00  0.00     0.192 C 
HETATM   37  C   UNL     1       2.702  31.831  51.552  1.00  0.00     0.081 C 
HETATM   38  S   UNL     1       4.607  29.780  51.988  1.00  0.00    -0.055 SA
BRANCH  36  39
HETATM   39  N   UNL     1       0.781  33.422  51.047  1.00  0.00    -0.074 N 
HETATM   40  C   UNL     1      -0.671  33.666  51.375  1.00  0.00     0.269 C 
HETATM   41  H   UNL     1       0.911  33.757  50.081  1.00  0.00     0.279 HD
HETATM   42  C   UNL     1       1.674  34.307  51.885  1.00  0.00     0.269 C 
ENDBRANCH  36  39
ENDBRANCH  27  30
ENDBRANCH   1  26
TORSDOF 6
ENDMDL
MODEL 5
REMARK VINA RESULT:      -9.1      3.368     10.741
REMARK  6 active torsions:
REMARK  status: ('A' for Active; 'I' for Inactive)
REMARK    1  A    between atoms: N_2  and  C_5 
REMARK    2  A    between atoms: C_10  and  N_11 
REMARK       I    between atoms: N_11  and  C_12 
REMARK    3  A    between atoms: C_12  and  C_14 
REMARK    4  A    between atoms: C_18  and  C_20 
REMARK       I    between atoms: N_24  and  C_25 
REMARK    5  A    between atoms: C_25  and  C_27 
REMARK    6  A    between atoms: C_32  and  O_33 
ROOT
HETATM    1  C   UNL     1       4.074  29.523  51.165  1.00  0.00     0.033 A 
HETATM    2  C   UNL     1       2.704  29.234  51.188  1.00  0.00     0.017 A 
HETATM    3  C   UNL     1       1.784  30.124  50.634  1.00  0.00     0.002 A 
HETATM    4  C   UNL     1       2.227  31.311  50.053  1.00  0.00     0.009 A 
HETATM    5  C   UNL     1       3.595  31.625  50.015  1.00  0.00    -0.034 A 
HETATM    6  C   UNL     1       4.515  30.708  50.558  1.00  0.00     0.026 A 
ENDROOT
BRANCH   5   7
HETATM    7  C   UNL     1       4.091  32.925  49.417  1.00  0.00     0.120 C 
HETATM    8  C   UNL     1       4.926  33.731  50.427  1.00  0.00     0.032 C 
HETATM    9  C   UNL     1       5.856  34.544  49.538  1.00  0.00     0.022 C 
HETATM   10  C   UNL     1       6.185  33.571  48.416  1.00  0.00     0.127 C 
HETATM   11  N   UNL     1       4.977  32.778  48.256  1.00  0.00    -0.339 N 
HETATM   12  C   UNL     1       4.731  32.138  47.054  1.00  0.00     0.254 C 
HETATM   13  O   UNL     1       5.524  32.114  46.118  1.00  0.00    -0.267 OA
BRANCH  12  14
HETATM   14  C   UNL     1       3.458  31.412  46.897  1.00  0.00     0.033 A 
HETATM   15  C   UNL     1       2.323  32.131  46.523  1.00  0.00     0.018 A 
HETATM   16  C   UNL     1       1.129  31.453  46.284  1.00  0.00     0.013 A 
HETATM   17  C   UNL     1       1.054  30.061  46.442  1.00  0.00    -0.023 A 
HETATM   18  C   UNL     1      -0.138  29.367  46.181  1.00  0.00     0.048 A 
HETATM   19  C   UNL     1       2.198  29.343  46.875  1.00  0.00    -0.025 A 
HETATM   20  C   UNL     1      -0.196  27.989  46.362  1.00  0.00     0.066 A 
HETATM   21  C   UNL     1       0.912  27.282  46.809  1.00  0.00     0.037 A 
HETATM   22  C   UNL     1       2.107  27.954  47.062  1.00  0.00     0.015 A 
HETATM   23  C   UNL     1       3.398  30.032  47.105  1.00  0.00     0.029 A 
BRANCH  20  24
HETATM   24  O   UNL     1      -1.338  27.287  46.109  1.00  0.00    -0.361 OA
HETATM   25  H   UNL     1      -1.093  26.452  45.672  1.00  0.00     0.217 HD
ENDBRANCH  20  24
ENDBRANCH  12  14
ENDBRANCH   5   7
BRANCH   1  26
HETATM   26  C   UNL     1       5.016  28.518  51.745  1.00  0.00     0.257 C 
HETATM   27  N   UNL     1       4.466  27.296  52.068  1.00  0.00    -0.301 N 
HETATM   28  H   UNL     1       3.525  27.051  51.798  1.00  0.00     0.171 HD
HETATM   29  O   UNL     1       6.190  28.846  51.883  1.00  0.00    -0.267 OA
BRANCH  27  30
HETATM   30  C   UNL     1       5.184  26.342  52.735  1.00  0.00     0.174 A 
HETATM   31  N   UNL     1       5.267  26.112  54.022  1.00  0.00    -0.228 NA
HETATM   32  C   UNL     1       6.079  25.033  54.248  1.00  0.00     0.050 A 
HETATM   33  C   UNL     1       6.352  24.557  55.633  1.00  0.00     0.062 C 
HETATM   34  C   UNL     1       6.572  24.422  53.115  1.00  0.00     0.013 A 
HETATM   35  C   UNL     1       7.549  23.588  55.655  1.00  0.00     0.039 C 
HETATM   36  C   UNL     1       7.445  22.558  54.508  1.00  0.00     0.192 C 
HETATM   37  C   UNL     1       7.462  23.227  53.102  1.00  0.00     0.081 C 
HETATM   38  S   UNL     1       6.052  25.262  51.726  1.00  0.00    -0.055 SA
BRANCH  36  39
HETATM   39  N   UNL     1       8.529  21.477  54.610  1.00  0.00    -0.074 N 
HETATM   40  C   UNL     1       8.590  20.724  55.916  1.00  0.00     0.269 C 
HETATM   41  H   UNL     1       9.430  21.971  54.528  1.00  0.00     0.279 HD
HETATM   42  C   UNL     1       8.507  20.519  53.441  1.00  0.00     0.269 C 
ENDBRANCH  36  39
ENDBRANCH  27  30
ENDBRANCH   1  26
TORSDOF 6
ENDMDL
MODEL 6
REMARK VINA RESULT:      -8.8      6.788     10.949
REMARK  6 active torsions:
REMARK  status: ('A' for Active; 'I' for Inactive)
REMARK    1  A    between atoms: N_2  and  C_5 
REMARK    2  A    between atoms: C_10  and  N_11 
REMARK       I    between atoms: N_11  and  C_12 
REMARK    3  A    between atoms: C_12  and  C_14 
REMARK    4  A    between atoms: C_18  and  C_20 
REMARK       I    between atoms: N_24  and  C_25 
REMARK    5  A    between atoms: C_25  and  C_27 
REMARK    6  A    between atoms: C_32  and  O_33 
ROOT
HETATM    1  C   UNL     1       4.450  31.663  58.774  1.00  0.00     0.033 A 
HETATM    2  C   UNL     1       3.415  31.165  59.575  1.00  0.00     0.017 A 
HETATM    3  C   UNL     1       2.698  32.017  60.415  1.00  0.00     0.002 A 
HETATM    4  C   UNL     1       3.010  33.375  60.460  1.00  0.00     0.009 A 
HETATM    5  C   UNL     1       4.041  33.900  59.666  1.00  0.00    -0.034 A 
HETATM    6  C   UNL     1       4.743  33.034  58.807  1.00  0.00     0.026 A 
ENDROOT
BRANCH   5   7
HETATM    7  C   UNL     1       4.416  35.367  59.726  1.00  0.00     0.120 C 
HETATM    8  C   UNL     1       3.651  36.191  58.677  1.00  0.00     0.032 C 
HETATM    9  C   UNL     1       3.592  37.578  59.300  1.00  0.00     0.022 C 
HETATM   10  C   UNL     1       3.387  37.276  60.776  1.00  0.00     0.127 C 
HETATM   11  N   UNL     1       4.112  36.035  60.998  1.00  0.00    -0.339 N 
HETATM   12  C   UNL     1       4.544  35.711  62.272  1.00  0.00     0.254 C 
HETATM   13  O   UNL     1       4.274  36.368  63.272  1.00  0.00    -0.267 OA
BRANCH  12  14
HETATM   14  C   UNL     1       5.348  34.489  62.447  1.00  0.00     0.033 A 
HETATM   15  C   UNL     1       4.856  33.480  63.274  1.00  0.00     0.018 A 
HETATM   16  C   UNL     1       5.557  32.281  63.386  1.00  0.00     0.013 A 
HETATM   17  C   UNL     1       6.765  32.092  62.695  1.00  0.00    -0.023 A 
HETATM   18  C   UNL     1       7.466  30.880  62.784  1.00  0.00     0.048 A 
HETATM   19  C   UNL     1       7.288  33.144  61.901  1.00  0.00    -0.025 A 
HETATM   20  C   UNL     1       8.671  30.721  62.108  1.00  0.00     0.066 A 
HETATM   21  C   UNL     1       9.202  31.753  61.347  1.00  0.00     0.037 A 
HETATM   22  C   UNL     1       8.513  32.961  61.239  1.00  0.00     0.015 A 
HETATM   23  C   UNL     1       6.571  34.344  61.786  1.00  0.00     0.029 A 
BRANCH  20  24
HETATM   24  O   UNL     1       9.370  29.551  62.169  1.00  0.00    -0.361 OA
HETATM   25  H   UNL     1       9.043  28.963  61.466  1.00  0.00     0.217 HD
ENDBRANCH  20  24
ENDBRANCH  12  14
ENDBRANCH   5   7
BRANCH   1  26
HETATM   26  C   UNL     1       5.163  30.710  57.871  1.00  0.00     0.257 C 
HETATM   27  N   UNL     1       4.546  29.493  57.674  1.00  0.00    -0.301 N 
HETATM   28  H   UNL     1       3.609  29.316  58.003  1.00  0.00     0.171 HD
HETATM   29  O   UNL     1       6.224  31.075  57.374  1.00  0.00    -0.267 OA
BRANCH  27  30
HETATM   30  C   UNL     1       5.160  28.482  56.988  1.00  0.00     0.174 A 
HETATM   31  N   UNL     1       6.087  27.647  57.389  1.00  0.00    -0.228 NA
HETATM   32  C   UNL     1       6.390  26.773  56.381  1.00  0.00     0.050 A 
HETATM   33  C   UNL     1       7.424  25.717  56.569  1.00  0.00     0.062 C 
HETATM   34  C   UNL     1       5.650  26.926  55.228  1.00  0.00     0.013 A 
HETATM   35  C   UNL     1       7.840  25.109  55.216  1.00  0.00     0.039 C 
HETATM   36  C   UNL     1       6.602  24.807  54.342  1.00  0.00     0.192 C 
HETATM   37  C   UNL     1       5.787  26.090  54.002  1.00  0.00     0.081 C 
HETATM   38  S   UNL     1       4.583  28.246  55.391  1.00  0.00    -0.055 SA
BRANCH  36  39
HETATM   39  N   UNL     1       6.974  24.044  53.064  1.00  0.00    -0.074 N 
HETATM   40  C   UNL     1       7.797  24.807  52.056  1.00  0.00     0.269 C 
HETATM   41  H   UNL     1       6.083  23.828  52.594  1.00  0.00     0.279 HD
HETATM   42  C   UNL     1       7.595  22.697  53.351  1.00  0.00     0.269 C 
ENDBRANCH  36  39
ENDBRANCH  27  30
ENDBRANCH   1  26
TORSDOF 6
ENDMDL
MODEL 7
REMARK VINA RESULT:      -8.7      3.070     10.683
REMARK  6 active torsions:
REMARK  status: ('A' for Active; 'I' for Inactive)
REMARK    1  A    between atoms: N_2  and  C_5 
REMARK    2  A    between atoms: C_10  and  N_11 
REMARK       I    between atoms: N_11  and  C_12 
REMARK    3  A    between atoms: C_12  and  C_14 
REMARK    4  A    between atoms: C_18  and  C_20 
REMARK       I    between atoms: N_24  and  C_25 
REMARK    5  A    between atoms: C_25  and  C_27 
REMARK    6  A    between atoms: C_32  and  O_33 
ROOT
HETATM    1  C   UNL     1       3.754  30.803  50.729  1.00  0.00     0.033 A 
HETATM    2  C   UNL     1       4.230  32.116  50.626  1.00  0.00     0.017 A 
HETATM    3  C   UNL     1       3.357  33.163  50.335  1.00  0.00     0.002 A 
HETATM    4  C   UNL     1       1.999  32.907  50.146  1.00  0.00     0.009 A 
HETATM    5  C   UNL     1       1.496  31.600  50.246  1.00  0.00    -0.034 A 
HETATM    6  C   UNL     1       2.384  30.555  50.561  1.00  0.00     0.026 A 
ENDROOT
BRANCH   5   7
HETATM    7  C   UNL     1       0.031  31.298  50.012  1.00  0.00     0.120 C 
HETATM    8  C   UNL     1      -0.866  32.006  51.041  1.00  0.00     0.032 C 
HETATM    9  C   UNL     1      -2.181  32.179  50.294  1.00  0.00     0.022 C 
HETATM   10  C   UNL     1      -1.726  32.495  48.878  1.00  0.00     0.127 C 
HETATM   11  N   UNL     1      -0.496  31.738  48.714  1.00  0.00    -0.339 N 
HETATM   12  C   UNL     1      -0.062  31.402  47.444  1.00  0.00     0.254 C 
HETATM   13  O   UNL     1      -0.606  31.785  46.412  1.00  0.00    -0.267 OA
BRANCH  12  14
HETATM   14  C   UNL     1       1.142  30.562  47.316  1.00  0.00     0.033 A 
HETATM   15  C   UNL     1       2.339  31.167  46.935  1.00  0.00     0.018 A 
HETATM   16  C   UNL     1       3.508  30.409  46.892  1.00  0.00     0.013 A 
HETATM   17  C   UNL     1       3.484  29.040  47.203  1.00  0.00    -0.023 A 
HETATM   18  C   UNL     1       4.660  28.275  47.185  1.00  0.00     0.048 A 
HETATM   19  C   UNL     1       2.252  28.420  47.536  1.00  0.00    -0.025 A 
HETATM   20  C   UNL     1       4.611  26.915  47.477  1.00  0.00     0.066 A 
HETATM   21  C   UNL     1       3.406  26.295  47.781  1.00  0.00     0.037 A 
HETATM   22  C   UNL     1       2.230  27.044  47.814  1.00  0.00     0.015 A 
HETATM   23  C   UNL     1       1.082  29.192  47.585  1.00  0.00     0.029 A 
BRANCH  20  24
HETATM   24  O   UNL     1       5.739  26.147  47.475  1.00  0.00    -0.361 OA
HETATM   25  H   UNL     1       6.123  26.167  48.369  1.00  0.00     0.217 HD
ENDBRANCH  20  24
ENDBRANCH  12  14
ENDBRANCH   5   7
BRANCH   1  26
HETATM   26  C   UNL     1       4.731  29.725  51.074  1.00  0.00     0.257 C 
HETATM   27  N   UNL     1       4.184  28.539  51.517  1.00  0.00    -0.301 N 
HETATM   28  H   UNL     1       3.191  28.366  51.475  1.00  0.00     0.171 HD
HETATM   29  O   UNL     1       5.925  29.967  50.933  1.00  0.00    -0.267 OA
BRANCH  27  30
HETATM   30  C   UNL     1       4.967  27.527  51.999  1.00  0.00     0.174 A 
HETATM   31  N   UNL     1       5.827  26.766  51.367  1.00  0.00    -0.228 NA
HETATM   32  C   UNL     1       6.415  25.900  52.249  1.00  0.00     0.050 A 
HETATM   33  C   UNL     1       7.432  24.914  51.790  1.00  0.00     0.062 C 
HETATM   34  C   UNL     1       6.024  26.045  53.563  1.00  0.00     0.013 A 
HETATM   35  C   UNL     1       7.672  23.834  52.861  1.00  0.00     0.039 C 
HETATM   36  C   UNL     1       7.815  24.469  54.262  1.00  0.00     0.192 C 
HETATM   37  C   UNL     1       6.530  25.231  54.704  1.00  0.00     0.081 C 
HETATM   38  S   UNL     1       4.838  27.263  53.688  1.00  0.00    -0.055 SA
BRANCH  36  39
HETATM   39  N   UNL     1       8.226  23.437  55.320  1.00  0.00    -0.074 N 
HETATM   40  C   UNL     1       9.132  22.329  54.844  1.00  0.00     0.269 C 
HETATM   41  H   UNL     1       7.354  22.977  55.622  1.00  0.00     0.279 HD
HETATM   42  C   UNL     1       8.777  24.077  56.573  1.00  0.00     0.269 C 
ENDBRANCH  36  39
ENDBRANCH  27  30
ENDBRANCH   1  26
TORSDOF 6
ENDMDL
MODEL 8
REMARK VINA RESULT:      -8.5      3.730     10.186
REMARK  6 active torsions:
REMARK  status: ('A' for Active; 'I' for Inactive)
REMARK    1  A    between atoms: N_2  and  C_5 
REMARK    2  A    between atoms: C_10  and  N_11 
REMARK       I    between atoms: N_11  and  C_12 
REMARK    3  A    between atoms: C_12  and  C_14 
REMARK    4  A    between atoms: C_18  and  C_20 
REMARK       I    between atoms: N_24  and  C_25 
REMARK    5  A    between atoms: C_25  and  C_27 
REMARK    6  A    between atoms: C_32  and  O_33 
ROOT
HETATM    1  C   UNL     1       3.913  30.696  53.653  1.00  0.00     0.033 A 
HETATM    2  C   UNL     1       4.625  31.531  54.523  1.00  0.00     0.017 A 
HETATM    3  C   UNL     1       4.315  32.887  54.613  1.00  0.00     0.002 A 
HETATM    4  C   UNL     1       3.290  33.421  53.833  1.00  0.00     0.009 A 
HETATM    5  C   UNL     1       2.560  32.606  52.954  1.00  0.00    -0.034 A 
HETATM    6  C   UNL     1       2.867  31.234  52.888  1.00  0.00     0.026 A 
ENDROOT
BRANCH   5   7
HETATM    7  C   UNL     1       1.465  33.174  52.075  1.00  0.00     0.120 C 
HETATM    8  C   UNL     1       0.429  33.959  52.896  1.00  0.00     0.032 C 
HETATM    9  C   UNL     1      -0.116  34.968  51.895  1.00  0.00     0.022 C 
HETATM   10  C   UNL     1       1.118  35.346  51.092  1.00  0.00     0.127 C 
HETATM   11  N   UNL     1       1.917  34.132  51.058  1.00  0.00    -0.339 N 
HETATM   12  C   UNL     1       2.848  33.952  50.051  1.00  0.00     0.254 C 
HETATM   13  O   UNL     1       3.121  34.805  49.212  1.00  0.00    -0.267 OA
BRANCH  12  14
HETATM   14  C   UNL     1       3.580  32.674  49.997  1.00  0.00     0.033 A 
HETATM   15  C   UNL     1       4.935  32.668  50.327  1.00  0.00     0.018 A 
HETATM   16  C   UNL     1       5.626  31.459  50.367  1.00  0.00     0.013 A 
HETATM   17  C   UNL     1       4.977  30.254  50.053  1.00  0.00    -0.023 A 
HETATM   18  C   UNL     1       5.660  29.029  50.113  1.00  0.00     0.048 A 
HETATM   19  C   UNL     1       3.614  30.275  49.664  1.00  0.00    -0.025 A 
HETATM   20  C   UNL     1       5.003  27.849  49.779  1.00  0.00     0.066 A 
HETATM   21  C   UNL     1       3.676  27.862  49.374  1.00  0.00     0.037 A 
HETATM   22  C   UNL     1       2.980  29.070  49.319  1.00  0.00     0.015 A 
HETATM   23  C   UNL     1       2.923  31.495  49.635  1.00  0.00     0.029 A 
BRANCH  20  24
HETATM   24  O   UNL     1       5.639  26.643  49.836  1.00  0.00    -0.361 OA
HETATM   25  H   UNL     1       6.597  26.799  49.768  1.00  0.00     0.217 HD
ENDBRANCH  20  24
ENDBRANCH  12  14
ENDBRANCH   5   7
BRANCH   1  26
HETATM   26  C   UNL     1       4.267  29.244  53.621  1.00  0.00     0.257 C 
HETATM   27  N   UNL     1       5.554  28.932  54.004  1.00  0.00    -0.301 N 
HETATM   28  H   UNL     1       6.167  29.622  54.413  1.00  0.00     0.171 HD
HETATM   29  O   UNL     1       3.401  28.450  53.270  1.00  0.00    -0.267 OA
BRANCH  27  30
HETATM   30  C   UNL     1       6.049  27.663  53.884  1.00  0.00     0.174 A 
HETATM   31  N   UNL     1       6.749  27.131  52.913  1.00  0.00    -0.228 NA
HETATM   32  C   UNL     1       7.061  25.834  53.223  1.00  0.00     0.050 A 
HETATM   33  C   UNL     1       7.851  24.991  52.284  1.00  0.00     0.062 C 
HETATM   34  C   UNL     1       6.627  25.406  54.461  1.00  0.00     0.013 A 
HETATM   35  C   UNL     1       7.764  23.504  52.674  1.00  0.00     0.039 C 
HETATM   36  C   UNL     1       7.955  23.321  54.197  1.00  0.00     0.192 C 
HETATM   37  C   UNL     1       6.855  24.047  55.026  1.00  0.00     0.081 C 
HETATM   38  S   UNL     1       5.749  26.647  55.233  1.00  0.00    -0.055 SA
BRANCH  36  39
HETATM   39  N   UNL     1       8.045  21.841  54.589  1.00  0.00    -0.074 N 
HETATM   40  C   UNL     1       8.606  20.913  53.540  1.00  0.00     0.269 C 
HETATM   41  H   UNL     1       7.076  21.531  54.750  1.00  0.00     0.279 HD
HETATM   42  C   UNL     1       8.741  21.632  55.914  1.00  0.00     0.269 C 
ENDBRANCH  36  39
ENDBRANCH  27  30
ENDBRANCH   1  26
TORSDOF 6
ENDMDL
MODEL 9
REMARK VINA RESULT:      -8.4      7.432     10.931
REMARK  6 active torsions:
REMARK  status: ('A' for Active; 'I' for Inactive)
REMARK    1  A    between atoms: N_2  and  C_5 
REMARK    2  A    between atoms: C_10  and  N_11 
REMARK       I    between atoms: N_11  and  C_12 
REMARK    3  A    between atoms: C_12  and  C_14 
REMARK    4  A    between atoms: C_18  and  C_20 
REMARK       I    between atoms: N_24  and  C_25 
REMARK    5  A    between atoms: C_25  and  C_27 
REMARK    6  A    between atoms: C_32  and  O_33 
ROOT
HETATM    1  C   UNL     1       5.059  32.401  60.147  1.00  0.00     0.033 A 
HETATM    2  C   UNL     1       6.436  32.642  60.223  1.00  0.00     0.017 A 
HETATM    3  C   UNL     1       6.972  33.343  61.303  1.00  0.00     0.002 A 
HETATM    4  C   UNL     1       6.136  33.810  62.316  1.00  0.00     0.009 A 
HETATM    5  C   UNL     1       4.752  33.580  62.264  1.00  0.00    -0.034 A 
HETATM    6  C   UNL     1       4.225  32.852  61.181  1.00  0.00     0.026 A 
ENDROOT
BRANCH   5   7
HETATM    7  C   UNL     1       3.823  34.106  63.339  1.00  0.00     0.120 C 
HETATM    8  C   UNL     1       4.263  33.651  64.741  1.00  0.00     0.032 C 
HETATM    9  C   UNL     1       3.727  34.751  65.647  1.00  0.00     0.022 C 
HETATM   10  C   UNL     1       3.942  36.006  64.816  1.00  0.00     0.127 C 
HETATM   11  N   UNL     1       3.756  35.569  63.442  1.00  0.00    -0.339 N 
HETATM   12  C   UNL     1       3.409  36.491  62.470  1.00  0.00     0.254 C 
HETATM   13  O   UNL     1       3.333  37.700  62.670  1.00  0.00    -0.267 OA
BRANCH  12  14
HETATM   14  C   UNL     1       3.147  36.002  61.105  1.00  0.00     0.033 A 
HETATM   15  C   UNL     1       1.905  35.430  60.829  1.00  0.00     0.018 A 
HETATM   16  C   UNL     1       1.603  35.040  59.526  1.00  0.00     0.013 A 
HETATM   17  C   UNL     1       2.546  35.194  58.497  1.00  0.00    -0.023 A 
HETATM   18  C   UNL     1       2.243  34.825  57.178  1.00  0.00     0.048 A 
HETATM   19  C   UNL     1       3.827  35.725  58.796  1.00  0.00    -0.025 A 
HETATM   20  C   UNL     1       3.199  34.968  56.177  1.00  0.00     0.066 A 
HETATM   21  C   UNL     1       4.463  35.465  56.465  1.00  0.00     0.037 A 
HETATM   22  C   UNL     1       4.777  35.846  57.769  1.00  0.00     0.015 A 
HETATM   23  C   UNL     1       4.119  36.124  60.109  1.00  0.00     0.029 A 
BRANCH  20  24
HETATM   24  O   UNL     1       2.929  34.626  54.884  1.00  0.00    -0.361 OA
HETATM   25  H   UNL     1       2.540  35.398  54.438  1.00  0.00     0.217 HD
ENDBRANCH  20  24
ENDBRANCH  12  14
ENDBRANCH   5   7
BRANCH   1  26
HETATM   26  C   UNL     1       4.544  31.617  58.983  1.00  0.00     0.257 C 
HETATM   27  N   UNL     1       5.469  30.822  58.339  1.00  0.00    -0.301 N 
HETATM   28  H   UNL     1       6.392  30.672  58.717  1.00  0.00     0.171 HD
HETATM   29  O   UNL     1       3.358  31.731  58.695  1.00  0.00    -0.267 OA
BRANCH  27  30
HETATM   30  C   UNL     1       5.163  30.167  57.178  1.00  0.00     0.174 A 
HETATM   31  N   UNL     1       4.659  30.639  56.064  1.00  0.00    -0.228 NA
HETATM   32  C   UNL     1       4.547  29.632  55.143  1.00  0.00     0.050 A 
HETATM   33  C   UNL     1       3.994  29.895  53.786  1.00  0.00     0.062 C 
HETATM   34  C   UNL     1       5.014  28.403  55.558  1.00  0.00     0.013 A 
HETATM   35  C   UNL     1       3.634  28.576  53.075  1.00  0.00     0.039 C 
HETATM   36  C   UNL     1       4.761  27.533  53.243  1.00  0.00     0.192 C 
HETATM   37  C   UNL     1       5.011  27.161  54.735  1.00  0.00     0.081 C 
HETATM   38  S   UNL     1       5.554  28.498  57.172  1.00  0.00    -0.055 SA
BRANCH  36  39
HETATM   39  N   UNL     1       4.507  26.275  52.403  1.00  0.00    -0.074 N 
HETATM   40  C   UNL     1       5.171  26.241  51.049  1.00  0.00     0.269 C 
HETATM   41  H   UNL     1       3.493  26.257  52.220  1.00  0.00     0.279 HD
HETATM   42  C   UNL     1       4.784  25.001  53.166  1.00  0.00     0.269 C 
ENDBRANCH  36  39
ENDBRANCH  27  30
ENDBRANCH   1  26
TORSDOF 6
ENDMDL
MODEL 10
REMARK VINA RESULT:      -8.3      8.098     12.460
REMARK  6 active torsions:
REMARK  status: ('A' for Active; 'I' for Inactive)
REMARK    1  A    between atoms: N_2  and  C_5 
REMARK    2  A    between atoms: C_10  and  N_11 
REMARK       I    between atoms: N_11  and  C_12 
REMARK    3  A    between atoms: C_12  and  C_14 
REMARK    4  A    between atoms: C_18  and  C_20 
REMARK       I    between atoms: N_24  and  C_25 
REMARK    5  A    between atoms: C_25  and  C_27 
REMARK    6  A    between atoms: C_32  and  O_33 
ROOT
HETATM    1  C   UNL     1       3.379  34.587  58.394  1.00  0.00     0.033 A 
HETATM    2  C   UNL     1       2.046  34.972  58.206  1.00  0.00     0.017 A 
HETATM    3  C   UNL     1       1.686  36.318  58.249  1.00  0.00     0.002 A 
HETATM    4  C   UNL     1       2.657  37.292  58.481  1.00  0.00     0.009 A 
HETATM    5  C   UNL     1       4.001  36.933  58.671  1.00  0.00    -0.034 A 
HETATM    6  C   UNL     1       4.355  35.573  58.604  1.00  0.00     0.026 A 
ENDROOT
BRANCH   5   7
HETATM    7  C   UNL     1       5.063  37.974  58.957  1.00  0.00     0.120 C 
HETATM    8  C   UNL     1       5.316  38.876  57.737  1.00  0.00     0.032 C 
HETATM    9  C   UNL     1       5.805  40.175  58.361  1.00  0.00     0.022 C 
HETATM   10  C   UNL     1       4.951  40.289  59.615  1.00  0.00     0.127 C 
HETATM   11  N   UNL     1       4.740  38.914  60.037  1.00  0.00    -0.339 N 
HETATM   12  C   UNL     1       4.429  38.642  61.358  1.00  0.00     0.254 C 
HETATM   13  O   UNL     1       4.222  39.508  62.203  1.00  0.00    -0.267 OA
BRANCH  12  14
HETATM   14  C   UNL     1       4.305  37.233  61.771  1.00  0.00     0.033 A 
HETATM   15  C   UNL     1       3.029  36.704  61.960  1.00  0.00     0.018 A 
HETATM   16  C   UNL     1       2.884  35.352  62.266  1.00  0.00     0.013 A 
HETATM   17  C   UNL     1       4.011  34.528  62.410  1.00  0.00    -0.023 A 
HETATM   18  C   UNL     1       3.875  33.161  62.695  1.00  0.00     0.048 A 
HETATM   19  C   UNL     1       5.308  35.086  62.270  1.00  0.00    -0.025 A 
HETATM   20  C   UNL     1       5.005  32.366  62.852  1.00  0.00     0.066 A 
HETATM   21  C   UNL     1       6.279  32.907  62.741  1.00  0.00     0.037 A 
HETATM   22  C   UNL     1       6.432  34.262  62.448  1.00  0.00     0.015 A 
HETATM   23  C   UNL     1       5.444  36.445  61.953  1.00  0.00     0.029 A 
BRANCH  20  24
HETATM   24  O   UNL     1       4.903  31.032  63.122  1.00  0.00    -0.361 OA
HETATM   25  H   UNL     1       4.428  30.607  62.386  1.00  0.00     0.217 HD
ENDBRANCH  20  24
ENDBRANCH  12  14
ENDBRANCH   5   7
BRANCH   1  26
HETATM   26  C   UNL     1       3.712  33.133  58.306  1.00  0.00     0.257 C 
HETATM   27  N   UNL     1       4.726  32.801  57.433  1.00  0.00    -0.301 N 
HETATM   28  H   UNL     1       5.298  33.506  56.994  1.00  0.00     0.171 HD
HETATM   29  O   UNL     1       3.074  32.355  59.008  1.00  0.00    -0.267 OA
BRANCH  27  30
HETATM   30  C   UNL     1       5.031  31.497  57.153  1.00  0.00     0.174 A 
HETATM   31  N   UNL     1       5.918  30.711  57.711  1.00  0.00    -0.228 NA
HETATM   32  C   UNL     1       5.862  29.469  57.138  1.00  0.00     0.050 A 
HETATM   33  C   UNL     1       6.773  28.378  57.583  1.00  0.00     0.062 C 
HETATM   34  C   UNL     1       4.891  29.312  56.171  1.00  0.00     0.013 A 
HETATM   35  C   UNL     1       6.776  27.217  56.571  1.00  0.00     0.039 C 
HETATM   36  C   UNL     1       5.337  26.867  56.130  1.00  0.00     0.192 C 
HETATM   37  C   UNL     1       4.627  28.055  55.416  1.00  0.00     0.081 C 
HETATM   38  S   UNL     1       4.063  30.783  55.931  1.00  0.00    -0.055 SA
BRANCH  36  39
HETATM   39  N   UNL     1       5.297  25.605  55.258  1.00  0.00    -0.074 N 
HETATM   40  C   UNL     1       5.217  25.834  53.769  1.00  0.00     0.269 C 
HETATM   41  H   UNL     1       4.429  25.112  55.513  1.00  0.00     0.279 HD
HETATM   42  C   UNL     1       6.405  24.633  55.590  1.00  0.00     0.269 C 
ENDBRANCH  36  39
ENDBRANCH  27  30
ENDBRANCH   1  26
TORSDOF 6
ENDMDL
