MODEL 1
REMARK VINA RESULT:      -9.5      0.000      0.000
REMARK  5 active torsions:
REMARK  status: ('A' for Active; 'I' for Inactive)
REMARK    1  A    between atoms: O_2  and  C_3 
REMARK    2  A    between atoms: C_5  and  C_6 
REMARK    3  A    between atoms: C_12  and  C_13 
REMARK    4  A    between atoms: C_15  and  O_16 
REMARK    5  A    between atoms: C_18  and  O_19 
ROOT
HETATM    1  C   UNL     1       6.056  25.347  53.840  1.00  0.00     0.098 A 
HETATM    2  N   UNL     1       4.856  24.842  53.455  1.00  0.00    -0.173 NA
HETATM    3  N   UNL     1       4.176  25.883  52.920  1.00  0.00    -0.272 N 
HETATM    4  H   UNL     1       3.245  25.727  52.543  1.00  0.00     0.189 HD
HETATM    5  C   UNL     1       4.893  27.013  52.972  1.00  0.00     0.128 A 
HETATM    6  C   UNL     1       6.085  26.729  53.575  1.00  0.00     0.034 A 
HETATM    7  C   UNL     1       6.908  27.958  53.645  1.00  0.00     0.156 A 
HETATM    8  N   UNL     1       5.996  28.913  52.989  1.00  0.00    -0.343 N 
HETATM    9  C   UNL     1       4.780  28.369  52.596  1.00  0.00     0.271 A 
HETATM   10  O   UNL     1       3.846  28.942  52.068  1.00  0.00    -0.266 OA
HETATM   11  H   UNL     1       6.190  29.898  52.879  1.00  0.00     0.163 HD
ENDROOT
BRANCH   7  12
HETATM   12  C   UNL     1       7.158  28.311  55.091  1.00  0.00    -0.028 A 
HETATM   13  C   UNL     1       8.429  28.710  55.566  1.00  0.00     0.049 A 
HETATM   14  C   UNL     1       8.636  28.991  56.917  1.00  0.00     0.101 A 
HETATM   15  C   UNL     1       7.560  28.871  57.802  1.00  0.00     0.099 A 
HETATM   16  C   UNL     1       6.302  28.482  57.366  1.00  0.00     0.040 A 
HETATM   17  C   UNL     1       6.103  28.200  56.015  1.00  0.00     0.012 A 
BRANCH  14  18
HETATM   18  O   UNL     1       9.819  29.375  57.494  1.00  0.00    -0.353 OA
HETATM   19  C   UNL     1      10.883  29.707  56.609  1.00  0.00     0.210 C 
ENDBRANCH  14  18
BRANCH  15  20
HETATM   20  O   UNL     1       7.731  29.131  59.135  1.00  0.00    -0.358 OA
HETATM   21  H   UNL     1       8.224  29.974  59.164  1.00  0.00     0.218 HD
ENDBRANCH  15  20
ENDBRANCH   7  12
BRANCH   1  22
HETATM   22  C   UNL     1       7.085  24.476  54.420  1.00  0.00    -0.002 A 
HETATM   23  C   UNL     1       7.554  23.364  53.694  1.00  0.00     0.050 A 
HETATM   24  C   UNL     1       8.547  22.531  54.216  1.00  0.00     0.069 A 
HETATM   25  C   UNL     1       9.069  22.800  55.481  1.00  0.00     0.037 A 
HETATM   26  C   UNL     1       8.623  23.900  56.210  1.00  0.00     0.004 A 
HETATM   27  C   UNL     1       7.643  24.739  55.678  1.00  0.00     0.014 A 
BRANCH  24  28
HETATM   28  O   UNL     1       9.084  21.436  53.597  1.00  0.00    -0.356 OA
HETATM   29  C   UNL     1       8.173  20.569  52.929  1.00  0.00     0.210 C 
ENDBRANCH  24  28
ENDBRANCH   1  22
TORSDOF 5
ENDMDL
MODEL 2
REMARK VINA RESULT:      -9.0      1.455      5.450
REMARK  5 active torsions:
REMARK  status: ('A' for Active; 'I' for Inactive)
REMARK    1  A    between atoms: O_2  and  C_3 
REMARK    2  A    between atoms: C_5  and  C_6 
REMARK    3  A    between atoms: C_12  and  C_13 
REMARK    4  A    between atoms: C_15  and  O_16 
REMARK    5  A    between atoms: C_18  and  O_19 
ROOT
HETATM    1  C   UNL     1       6.199  27.801  53.658  1.00  0.00     0.098 A 
HETATM    2  N   UNL     1       6.364  28.738  52.688  1.00  0.00    -0.173 NA
HETATM    3  N   UNL     1       5.879  28.179  51.554  1.00  0.00    -0.272 N 
HETATM    4  H   UNL     1       5.884  28.719  50.694  1.00  0.00     0.189 HD
HETATM    5  C   UNL     1       5.440  26.933  51.773  1.00  0.00     0.128 A 
HETATM    6  C   UNL     1       5.648  26.637  53.090  1.00  0.00     0.034 A 
HETATM    7  C   UNL     1       5.167  25.265  53.370  1.00  0.00     0.156 A 
HETATM    8  N   UNL     1       4.669  24.891  52.033  1.00  0.00    -0.343 N 
HETATM    9  C   UNL     1       4.840  25.870  51.063  1.00  0.00     0.271 A 
HETATM   10  O   UNL     1       4.550  25.804  49.884  1.00  0.00    -0.266 OA
HETATM   11  H   UNL     1       4.290  23.984  51.803  1.00  0.00     0.163 HD
ENDROOT
BRANCH   7  12
HETATM   12  C   UNL     1       6.329  24.406  53.806  1.00  0.00    -0.028 A 
HETATM   13  C   UNL     1       6.764  24.343  55.149  1.00  0.00     0.049 A 
HETATM   14  C   UNL     1       7.868  23.569  55.512  1.00  0.00     0.101 A 
HETATM   15  C   UNL     1       8.543  22.852  54.520  1.00  0.00     0.099 A 
HETATM   16  C   UNL     1       8.139  22.893  53.193  1.00  0.00     0.040 A 
HETATM   17  C   UNL     1       7.037  23.671  52.837  1.00  0.00     0.012 A 
BRANCH  14  18
HETATM   18  O   UNL     1       8.388  23.438  56.775  1.00  0.00    -0.353 OA
HETATM   19  C   UNL     1       8.730  24.642  57.453  1.00  0.00     0.210 C 
ENDBRANCH  14  18
BRANCH  15  20
HETATM   20  O   UNL     1       9.633  22.090  54.840  1.00  0.00    -0.358 OA
HETATM   21  H   UNL     1       9.320  21.487  55.541  1.00  0.00     0.218 HD
ENDBRANCH  15  20
ENDBRANCH   7  12
BRANCH   1  22
HETATM   22  C   UNL     1       6.569  28.088  55.049  1.00  0.00    -0.002 A 
HETATM   23  C   UNL     1       7.919  28.300  55.387  1.00  0.00     0.050 A 
HETATM   24  C   UNL     1       8.294  28.596  56.700  1.00  0.00     0.069 A 
HETATM   25  C   UNL     1       7.315  28.665  57.691  1.00  0.00     0.037 A 
HETATM   26  C   UNL     1       5.973  28.466  57.374  1.00  0.00     0.004 A 
HETATM   27  C   UNL     1       5.601  28.188  56.057  1.00  0.00     0.014 A 
BRANCH  24  28
HETATM   28  O   UNL     1       9.568  28.831  57.138  1.00  0.00    -0.356 OA
HETATM   29  C   UNL     1      10.359  29.719  56.355  1.00  0.00     0.210 C 
ENDBRANCH  24  28
ENDBRANCH   1  22
TORSDOF 5
ENDMDL
MODEL 3
REMARK VINA RESULT:      -8.8      2.395      4.791
REMARK  5 active torsions:
REMARK  status: ('A' for Active; 'I' for Inactive)
REMARK    1  A    between atoms: O_2  and  C_3 
REMARK    2  A    between atoms: C_5  and  C_6 
REMARK    3  A    between atoms: C_12  and  C_13 
REMARK    4  A    between atoms: C_15  and  O_16 
REMARK    5  A    between atoms: C_18  and  O_19 
ROOT
HETATM    1  C   UNL     1       7.279  25.372  55.701  1.00  0.00     0.098 A 
HETATM    2  N   UNL     1       8.152  25.802  56.649  1.00  0.00    -0.173 NA
HETATM    3  N   UNL     1       7.585  26.905  57.194  1.00  0.00    -0.272 N 
HETATM    4  H   UNL     1       8.064  27.386  57.950  1.00  0.00     0.189 HD
HETATM    5  C   UNL     1       6.411  27.188  56.615  1.00  0.00     0.128 A 
HETATM    6  C   UNL     1       6.187  26.258  55.639  1.00  0.00     0.034 A 
HETATM    7  C   UNL     1       4.891  26.538  54.980  1.00  0.00     0.156 A 
HETATM    8  N   UNL     1       4.465  27.724  55.746  1.00  0.00    -0.343 N 
HETATM    9  C   UNL     1       5.370  28.136  56.716  1.00  0.00     0.271 A 
HETATM   10  O   UNL     1       5.278  29.096  57.457  1.00  0.00    -0.266 OA
HETATM   11  H   UNL     1       3.621  28.246  55.559  1.00  0.00     0.163 HD
ENDROOT
BRANCH   7  12
HETATM   12  C   UNL     1       5.129  26.857  53.523  1.00  0.00    -0.028 A 
HETATM   13  C   UNL     1       5.415  28.165  53.070  1.00  0.00     0.049 A 
HETATM   14  C   UNL     1       5.591  28.433  51.712  1.00  0.00     0.101 A 
HETATM   15  C   UNL     1       5.478  27.380  50.798  1.00  0.00     0.099 A 
HETATM   16  C   UNL     1       5.198  26.087  51.212  1.00  0.00     0.040 A 
HETATM   17  C   UNL     1       5.021  25.827  52.571  1.00  0.00     0.012 A 
BRANCH  14  18
HETATM   18  O   UNL     1       5.861  29.656  51.154  1.00  0.00    -0.353 OA
HETATM   19  C   UNL     1       4.798  30.603  51.145  1.00  0.00     0.210 C 
ENDBRANCH  14  18
BRANCH  15  20
HETATM   20  O   UNL     1       5.636  27.610  49.458  1.00  0.00    -0.358 OA
HETATM   21  H   UNL     1       6.135  28.448  49.405  1.00  0.00     0.218 HD
ENDBRANCH  15  20
ENDBRANCH   7  12
BRANCH   1  22
HETATM   22  C   UNL     1       7.546  24.149  54.936  1.00  0.00    -0.002 A 
HETATM   23  C   UNL     1       7.536  22.900  55.584  1.00  0.00     0.050 A 
HETATM   24  C   UNL     1       7.767  21.719  54.874  1.00  0.00     0.069 A 
HETATM   25  C   UNL     1       8.027  21.785  53.505  1.00  0.00     0.037 A 
HETATM   26  C   UNL     1       8.034  23.012  52.845  1.00  0.00     0.004 A 
HETATM   27  C   UNL     1       7.785  24.187  53.556  1.00  0.00     0.014 A 
BRANCH  24  28
HETATM   28  O   UNL     1       7.768  20.454  55.395  1.00  0.00    -0.356 OA
HETATM   29  C   UNL     1       8.858  20.116  56.246  1.00  0.00     0.210 C 
ENDBRANCH  24  28
ENDBRANCH   1  22
TORSDOF 5
ENDMDL
MODEL 4
REMARK VINA RESULT:      -8.7      2.360      4.741
REMARK  5 active torsions:
REMARK  status: ('A' for Active; 'I' for Inactive)
REMARK    1  A    between atoms: O_2  and  C_3 
REMARK    2  A    between atoms: C_5  and  C_6 
REMARK    3  A    between atoms: C_12  and  C_13 
REMARK    4  A    between atoms: C_15  and  O_16 
REMARK    5  A    between atoms: C_18  and  O_19 
ROOT
HETATM    1  C   UNL     1       7.533  25.377  56.668  1.00  0.00     0.098 A 
HETATM    2  N   UNL     1       8.414  26.056  57.448  1.00  0.00    -0.173 NA
HETATM    3  N   UNL     1       7.802  27.223  57.760  1.00  0.00    -0.272 N 
HETATM    4  H   UNL     1       8.279  27.888  58.361  1.00  0.00     0.189 HD
HETATM    5  C   UNL     1       6.591  27.306  57.193  1.00  0.00     0.128 A 
HETATM    6  C   UNL     1       6.386  26.168  56.466  1.00  0.00     0.034 A 
HETATM    7  C   UNL     1       5.051  26.223  55.828  1.00  0.00     0.156 A 
HETATM    8  N   UNL     1       4.583  27.529  56.329  1.00  0.00    -0.343 N 
HETATM    9  C   UNL     1       5.498  28.197  57.132  1.00  0.00     0.271 A 
HETATM   10  O   UNL     1       5.376  29.295  57.641  1.00  0.00    -0.266 OA
HETATM   11  H   UNL     1       3.702  27.951  56.073  1.00  0.00     0.163 HD
ENDROOT
BRANCH   7  12
HETATM   12  C   UNL     1       5.212  26.213  54.328  1.00  0.00    -0.028 A 
HETATM   13  C   UNL     1       5.538  27.375  53.592  1.00  0.00     0.049 A 
HETATM   14  C   UNL     1       5.640  27.340  52.200  1.00  0.00     0.101 A 
HETATM   15  C   UNL     1       5.412  26.129  51.539  1.00  0.00     0.099 A 
HETATM   16  C   UNL     1       5.090  24.972  52.234  1.00  0.00     0.040 A 
HETATM   17  C   UNL     1       4.987  25.015  53.624  1.00  0.00     0.012 A 
BRANCH  14  18
HETATM   18  O   UNL     1       5.939  28.398  51.381  1.00  0.00    -0.353 OA
HETATM   19  C   UNL     1       5.011  29.477  51.368  1.00  0.00     0.210 C 
ENDBRANCH  14  18
BRANCH  15  20
HETATM   20  O   UNL     1       5.496  26.061  50.175  1.00  0.00    -0.358 OA
HETATM   21  H   UNL     1       5.943  25.212  49.993  1.00  0.00     0.218 HD
ENDBRANCH  15  20
ENDBRANCH   7  12
BRANCH   1  22
HETATM   22  C   UNL     1       7.845  24.027  56.186  1.00  0.00    -0.002 A 
HETATM   23  C   UNL     1       7.782  23.741  54.809  1.00  0.00     0.050 A 
HETATM   24  C   UNL     1       8.093  22.469  54.322  1.00  0.00     0.069 A 
HETATM   25  C   UNL     1       8.457  21.465  55.220  1.00  0.00     0.037 A 
HETATM   26  C   UNL     1       8.533  21.731  56.585  1.00  0.00     0.004 A 
HETATM   27  C   UNL     1       8.237  23.008  57.065  1.00  0.00     0.014 A 
BRANCH  24  28
HETATM   28  O   UNL     1       8.078  22.084  53.009  1.00  0.00    -0.356 OA
HETATM   29  C   UNL     1       8.150  20.686  52.754  1.00  0.00     0.210 C 
ENDBRANCH  24  28
ENDBRANCH   1  22
TORSDOF 5
ENDMDL
MODEL 5
REMARK VINA RESULT:      -8.5      1.971      2.677
REMARK  5 active torsions:
REMARK  status: ('A' for Active; 'I' for Inactive)
REMARK    1  A    between atoms: O_2  and  C_3 
REMARK    2  A    between atoms: C_5  and  C_6 
REMARK    3  A    between atoms: C_12  and  C_13 
REMARK    4  A    between atoms: C_15  and  O_16 
REMARK    5  A    between atoms: C_18  and  O_19 
ROOT
HETATM    1  C   UNL     1       6.065  26.151  56.202  1.00  0.00     0.098 A 
HETATM    2  N   UNL     1       4.970  25.844  56.944  1.00  0.00    -0.173 NA
HETATM    3  N   UNL     1       4.195  26.955  56.930  1.00  0.00    -0.272 N 
HETATM    4  H   UNL     1       3.303  26.943  57.414  1.00  0.00     0.189 HD
HETATM    5  C   UNL     1       4.770  27.941  56.229  1.00  0.00     0.128 A 
HETATM    6  C   UNL     1       5.974  27.488  55.770  1.00  0.00     0.034 A 
HETATM    7  C   UNL     1       6.636  28.553  54.984  1.00  0.00     0.156 A 
HETATM    8  N   UNL     1       5.616  29.614  55.082  1.00  0.00    -0.343 N 
HETATM    9  C   UNL     1       4.501  29.270  55.837  1.00  0.00     0.271 A 
HETATM   10  O   UNL     1       3.540  29.967  56.100  1.00  0.00    -0.266 OA
HETATM   11  H   UNL     1       5.722  30.540  54.694  1.00  0.00     0.163 HD
ENDROOT
BRANCH   7  12
HETATM   12  C   UNL     1       7.929  28.943  55.658  1.00  0.00    -0.028 A 
HETATM   13  C   UNL     1       8.007  29.232  57.040  1.00  0.00     0.049 A 
HETATM   14  C   UNL     1       9.211  29.628  57.625  1.00  0.00     0.101 A 
HETATM   15  C   UNL     1      10.347  29.738  56.818  1.00  0.00     0.099 A 
HETATM   16  C   UNL     1      10.302  29.462  55.459  1.00  0.00     0.040 A 
HETATM   17  C   UNL     1       9.095  29.069  54.881  1.00  0.00     0.012 A 
BRANCH  14  18
HETATM   18  O   UNL     1       9.407  29.942  58.945  1.00  0.00    -0.353 OA
HETATM   19  C   UNL     1       8.274  30.416  59.664  1.00  0.00     0.210 C 
ENDBRANCH  14  18
BRANCH  15  20
HETATM   20  O   UNL     1      11.541  30.132  57.357  1.00  0.00    -0.358 OA
HETATM   21  H   UNL     1      11.705  29.504  58.088  1.00  0.00     0.218 HD
ENDBRANCH  15  20
ENDBRANCH   7  12
BRANCH   1  22
HETATM   22  C   UNL     1       7.107  25.148  55.953  1.00  0.00    -0.002 A 
HETATM   23  C   UNL     1       7.179  24.507  54.701  1.00  0.00     0.050 A 
HETATM   24  C   UNL     1       8.174  23.563  54.432  1.00  0.00     0.069 A 
HETATM   25  C   UNL     1       9.098  23.243  55.427  1.00  0.00     0.037 A 
HETATM   26  C   UNL     1       9.047  23.873  56.668  1.00  0.00     0.004 A 
HETATM   27  C   UNL     1       8.062  24.828  56.926  1.00  0.00     0.014 A 
BRANCH  24  28
HETATM   28  O   UNL     1       8.346  22.890  53.254  1.00  0.00    -0.356 OA
HETATM   29  C   UNL     1       8.372  21.469  53.329  1.00  0.00     0.210 C 
ENDBRANCH  24  28
ENDBRANCH   1  22
TORSDOF 5
ENDMDL
MODEL 6
REMARK VINA RESULT:      -8.2      8.050     10.766
REMARK  5 active torsions:
REMARK  status: ('A' for Active; 'I' for Inactive)
REMARK    1  A    between atoms: O_2  and  C_3 
REMARK    2  A    between atoms: C_5  and  C_6 
REMARK    3  A    between atoms: C_12  and  C_13 
REMARK    4  A    between atoms: C_15  and  O_16 
REMARK    5  A    between atoms: C_18  and  O_19 
ROOT
HETATM    1  C   UNL     1       7.060  33.016  63.490  1.00  0.00     0.098 A 
HETATM    2  N   UNL     1       7.639  33.686  64.520  1.00  0.00    -0.173 NA
HETATM    3  N   UNL     1       6.618  34.248  65.210  1.00  0.00    -0.272 N 
HETATM    4  H   UNL     1       6.822  34.788  66.046  1.00  0.00     0.189 HD
HETATM    5  C   UNL     1       5.436  33.972  64.644  1.00  0.00     0.128 A 
HETATM    6  C   UNL     1       5.667  33.215  63.531  1.00  0.00     0.034 A 
HETATM    7  C   UNL     1       4.378  32.885  62.881  1.00  0.00     0.156 A 
HETATM    8  N   UNL     1       3.447  33.556  63.808  1.00  0.00    -0.343 N 
HETATM    9  C   UNL     1       4.064  34.224  64.858  1.00  0.00     0.271 A 
HETATM   10  O   UNL     1       3.533  34.879  65.734  1.00  0.00    -0.266 OA
HETATM   11  H   UNL     1       2.446  33.593  63.677  1.00  0.00     0.163 HD
ENDROOT
BRANCH   7  12
HETATM   12  C   UNL     1       4.344  33.493  61.500  1.00  0.00    -0.028 A 
HETATM   13  C   UNL     1       4.985  32.895  60.392  1.00  0.00     0.049 A 
HETATM   14  C   UNL     1       4.967  33.503  59.135  1.00  0.00     0.101 A 
HETATM   15  C   UNL     1       4.302  34.724  58.989  1.00  0.00     0.099 A 
HETATM   16  C   UNL     1       3.664  35.336  60.058  1.00  0.00     0.040 A 
HETATM   17  C   UNL     1       3.688  34.724  61.310  1.00  0.00     0.012 A 
BRANCH  14  18
HETATM   18  O   UNL     1       5.558  33.026  57.994  1.00  0.00    -0.353 OA
HETATM   19  C   UNL     1       6.056  31.693  58.042  1.00  0.00     0.210 C 
ENDBRANCH  14  18
BRANCH  15  20
HETATM   20  O   UNL     1       4.273  35.352  57.773  1.00  0.00    -0.358 OA
HETATM   21  H   UNL     1       4.891  36.103  57.864  1.00  0.00     0.218 HD
ENDBRANCH  15  20
ENDBRANCH   7  12
BRANCH   1  22
HETATM   22  C   UNL     1       7.874  32.233  62.554  1.00  0.00    -0.002 A 
HETATM   23  C   UNL     1       8.205  32.766  61.294  1.00  0.00     0.050 A 
HETATM   24  C   UNL     1       8.996  32.048  60.393  1.00  0.00     0.069 A 
HETATM   25  C   UNL     1       9.448  30.776  60.745  1.00  0.00     0.037 A 
HETATM   26  C   UNL     1       9.137  30.235  61.990  1.00  0.00     0.004 A 
HETATM   27  C   UNL     1       8.362  30.964  62.894  1.00  0.00     0.014 A 
BRANCH  24  28
HETATM   28  O   UNL     1       9.388  32.471  59.152  1.00  0.00    -0.356 OA
HETATM   29  C   UNL     1      10.135  31.547  58.369  1.00  0.00     0.210 C 
ENDBRANCH  24  28
ENDBRANCH   1  22
TORSDOF 5
ENDMDL
MODEL 7
REMARK VINA RESULT:      -7.9      2.102      5.051
REMARK  5 active torsions:
REMARK  status: ('A' for Active; 'I' for Inactive)
REMARK    1  A    between atoms: O_2  and  C_3 
REMARK    2  A    between atoms: C_5  and  C_6 
REMARK    3  A    between atoms: C_12  and  C_13 
REMARK    4  A    between atoms: C_15  and  O_16 
REMARK    5  A    between atoms: C_18  and  O_19 
ROOT
HETATM    1  C   UNL     1       6.924  25.623  52.811  1.00  0.00     0.098 A 
HETATM    2  N   UNL     1       7.962  25.060  52.140  1.00  0.00    -0.173 NA
HETATM    3  N   UNL     1       8.450  24.100  52.962  1.00  0.00    -0.272 N 
HETATM    4  H   UNL     1       9.230  23.529  52.650  1.00  0.00     0.189 HD
HETATM    5  C   UNL     1       7.773  24.056  54.117  1.00  0.00     0.128 A 
HETATM    6  C   UNL     1       6.811  25.025  54.080  1.00  0.00     0.034 A 
HETATM    7  C   UNL     1       6.038  25.002  55.343  1.00  0.00     0.156 A 
HETATM    8  N   UNL     1       6.713  23.888  56.034  1.00  0.00    -0.343 N 
HETATM    9  C   UNL     1       7.763  23.322  55.323  1.00  0.00     0.271 A 
HETATM   10  O   UNL     1       8.498  22.420  55.677  1.00  0.00    -0.266 OA
HETATM   11  H   UNL     1       6.489  23.584  56.971  1.00  0.00     0.163 HD
ENDROOT
BRANCH   7  12
HETATM   12  C   UNL     1       6.220  26.315  56.066  1.00  0.00    -0.028 A 
HETATM   13  C   UNL     1       7.465  26.721  56.598  1.00  0.00     0.049 A 
HETATM   14  C   UNL     1       7.590  27.923  57.296  1.00  0.00     0.101 A 
HETATM   15  C   UNL     1       6.457  28.725  57.463  1.00  0.00     0.099 A 
HETATM   16  C   UNL     1       5.223  28.354  56.952  1.00  0.00     0.040 A 
HETATM   17  C   UNL     1       5.104  27.149  56.259  1.00  0.00     0.012 A 
BRANCH  14  18
HETATM   18  O   UNL     1       8.737  28.417  57.864  1.00  0.00    -0.353 OA
HETATM   19  C   UNL     1       9.668  29.038  56.984  1.00  0.00     0.210 C 
ENDBRANCH  14  18
BRANCH  15  20
HETATM   20  O   UNL     1       6.543  29.906  58.149  1.00  0.00    -0.358 OA
HETATM   21  H   UNL     1       7.500  30.049  58.283  1.00  0.00     0.218 HD
ENDBRANCH  15  20
ENDBRANCH   7  12
BRANCH   1  22
HETATM   22  C   UNL     1       6.115  26.678  52.190  1.00  0.00    -0.002 A 
HETATM   23  C   UNL     1       5.386  26.404  51.017  1.00  0.00     0.050 A 
HETATM   24  C   UNL     1       4.592  27.385  50.417  1.00  0.00     0.069 A 
HETATM   25  C   UNL     1       4.536  28.659  50.984  1.00  0.00     0.037 A 
HETATM   26  C   UNL     1       5.245  28.946  52.149  1.00  0.00     0.004 A 
HETATM   27  C   UNL     1       6.023  27.957  52.754  1.00  0.00     0.014 A 
BRANCH  24  28
HETATM   28  O   UNL     1       3.835  27.229  49.289  1.00  0.00    -0.356 OA
HETATM   29  C   UNL     1       3.927  28.259  48.311  1.00  0.00     0.210 C 
ENDBRANCH  24  28
ENDBRANCH   1  22
TORSDOF 5
ENDMDL
MODEL 8
REMARK VINA RESULT:      -7.9      2.926      5.326
REMARK  5 active torsions:
REMARK  status: ('A' for Active; 'I' for Inactive)
REMARK    1  A    between atoms: O_2  and  C_3 
REMARK    2  A    between atoms: C_5  and  C_6 
REMARK    3  A    between atoms: C_12  and  C_13 
REMARK    4  A    between atoms: C_15  and  O_16 
REMARK    5  A    between atoms: C_18  and  O_19 
ROOT
HETATM    1  C   UNL     1       6.729  27.167  54.384  1.00  0.00     0.098 A 
HETATM    2  N   UNL     1       7.481  27.885  55.258  1.00  0.00    -0.173 NA
HETATM    3  N   UNL     1       6.792  29.029  55.480  1.00  0.00    -0.272 N 
HETATM    4  H   UNL     1       7.166  29.716  56.128  1.00  0.00     0.189 HD
HETATM    5  C   UNL     1       5.658  29.062  54.769  1.00  0.00     0.128 A 
HETATM    6  C   UNL     1       5.587  27.912  54.034  1.00  0.00     0.034 A 
HETATM    7  C   UNL     1       4.339  27.911  53.237  1.00  0.00     0.156 A 
HETATM    8  N   UNL     1       3.764  29.201  53.663  1.00  0.00    -0.343 N 
HETATM    9  C   UNL     1       4.547  29.909  54.565  1.00  0.00     0.271 A 
HETATM   10  O   UNL     1       4.322  31.005  55.043  1.00  0.00    -0.266 OA
HETATM   11  H   UNL     1       2.905  29.587  53.297  1.00  0.00     0.163 HD
ENDROOT
BRANCH   7  12
HETATM   12  C   UNL     1       4.683  27.899  51.768  1.00  0.00    -0.028 A 
HETATM   13  C   UNL     1       4.963  29.080  51.044  1.00  0.00     0.049 A 
HETATM   14  C   UNL     1       5.239  29.037  49.676  1.00  0.00     0.101 A 
HETATM   15  C   UNL     1       5.232  27.799  49.027  1.00  0.00     0.099 A 
HETATM   16  C   UNL     1       4.961  26.623  49.710  1.00  0.00     0.040 A 
HETATM   17  C   UNL     1       4.683  26.673  51.076  1.00  0.00     0.012 A 
BRANCH  14  18
HETATM   18  O   UNL     1       5.515  30.111  48.869  1.00  0.00    -0.353 OA
HETATM   19  C   UNL     1       5.974  31.294  49.516  1.00  0.00     0.210 C 
ENDBRANCH  14  18
BRANCH  15  20
HETATM   20  O   UNL     1       5.490  27.722  47.685  1.00  0.00    -0.358 OA
HETATM   21  H   UNL     1       4.986  26.944  47.377  1.00  0.00     0.218 HD
ENDBRANCH  15  20
ENDBRANCH   7  12
BRANCH   1  22
HETATM   22  C   UNL     1       7.149  25.828  53.958  1.00  0.00    -0.002 A 
HETATM   23  C   UNL     1       7.061  24.746  54.855  1.00  0.00     0.050 A 
HETATM   24  C   UNL     1       7.435  23.457  54.466  1.00  0.00     0.069 A 
HETATM   25  C   UNL     1       7.918  23.246  53.175  1.00  0.00     0.037 A 
HETATM   26  C   UNL     1       8.004  24.302  52.271  1.00  0.00     0.004 A 
HETATM   27  C   UNL     1       7.612  25.585  52.658  1.00  0.00     0.014 A 
BRANCH  24  28
HETATM   28  O   UNL     1       7.381  22.334  55.247  1.00  0.00    -0.356 OA
HETATM   29  C   UNL     1       7.939  21.146  54.695  1.00  0.00     0.210 C 
ENDBRANCH  24  28
ENDBRANCH   1  22
TORSDOF 5
ENDMDL
MODEL 9
REMARK VINA RESULT:      -7.8      8.464     11.643
REMARK  5 active torsions:
REMARK  status: ('A' for Active; 'I' for Inactive)
REMARK    1  A    between atoms: O_2  and  C_3 
REMARK    2  A    between atoms: C_5  and  C_6 
REMARK    3  A    between atoms: C_12  and  C_13 
REMARK    4  A    between atoms: C_15  and  O_16 
REMARK    5  A    between atoms: C_18  and  O_19 
ROOT
HETATM    1  C   UNL     1       6.857  33.079  63.675  1.00  0.00     0.098 A 
HETATM    2  N   UNL     1       7.573  33.217  64.821  1.00  0.00    -0.173 NA
HETATM    3  N   UNL     1       6.684  33.614  65.762  1.00  0.00    -0.272 N 
HETATM    4  H   UNL     1       7.002  33.761  66.715  1.00  0.00     0.189 HD
HETATM    5  C   UNL     1       5.454  33.747  65.247  1.00  0.00     0.128 A 
HETATM    6  C   UNL     1       5.519  33.445  63.916  1.00  0.00     0.034 A 
HETATM    7  C   UNL     1       4.173  33.576  63.314  1.00  0.00     0.156 A 
HETATM    8  N   UNL     1       3.398  33.971  64.505  1.00  0.00    -0.343 N 
HETATM    9  C   UNL     1       4.152  34.094  65.665  1.00  0.00     0.271 A 
HETATM   10  O   UNL     1       3.767  34.436  66.767  1.00  0.00    -0.266 OA
HETATM   11  H   UNL     1       2.414  34.198  64.491  1.00  0.00     0.163 HD
ENDROOT
BRANCH   7  12
HETATM   12  C   UNL     1       4.197  34.661  62.265  1.00  0.00    -0.028 A 
HETATM   13  C   UNL     1       4.720  35.949  62.518  1.00  0.00     0.049 A 
HETATM   14  C   UNL     1       4.691  36.943  61.538  1.00  0.00     0.101 A 
HETATM   15  C   UNL     1       4.131  36.643  60.293  1.00  0.00     0.099 A 
HETATM   16  C   UNL     1       3.610  35.389  60.014  1.00  0.00     0.040 A 
HETATM   17  C   UNL     1       3.640  34.402  60.999  1.00  0.00     0.012 A 
BRANCH  14  18
HETATM   18  O   UNL     1       5.158  38.226  61.668  1.00  0.00    -0.353 OA
HETATM   19  C   UNL     1       6.517  38.374  62.066  1.00  0.00     0.210 C 
ENDBRANCH  14  18
BRANCH  15  20
HETATM   20  O   UNL     1       4.079  37.597  59.312  1.00  0.00    -0.358 OA
HETATM   21  H   UNL     1       4.736  37.310  58.649  1.00  0.00     0.218 HD
ENDBRANCH  15  20
ENDBRANCH   7  12
BRANCH   1  22
HETATM   22  C   UNL     1       7.497  32.601  62.444  1.00  0.00    -0.002 A 
HETATM   23  C   UNL     1       6.815  32.695  61.216  1.00  0.00     0.050 A 
HETATM   24  C   UNL     1       7.410  32.266  60.027  1.00  0.00     0.069 A 
HETATM   25  C   UNL     1       8.695  31.722  60.064  1.00  0.00     0.037 A 
HETATM   26  C   UNL     1       9.388  31.628  61.269  1.00  0.00     0.004 A 
HETATM   27  C   UNL     1       8.795  32.075  62.451  1.00  0.00     0.014 A 
BRANCH  24  28
HETATM   28  O   UNL     1       6.849  32.320  58.781  1.00  0.00    -0.356 OA
HETATM   29  C   UNL     1       6.666  31.079  58.109  1.00  0.00     0.210 C 
ENDBRANCH  24  28
ENDBRANCH   1  22
TORSDOF 5
ENDMDL
MODEL 10
REMARK VINA RESULT:      -7.7      2.954      5.319
REMARK  5 active torsions:
REMARK  status: ('A' for Active; 'I' for Inactive)
REMARK    1  A    between atoms: O_2  and  C_3 
REMARK    2  A    between atoms: C_5  and  C_6 
REMARK    3  A    between atoms: C_12  and  C_13 
REMARK    4  A    between atoms: C_15  and  O_16 
REMARK    5  A    between atoms: C_18  and  O_19 
ROOT
HETATM    1  C   UNL     1       7.736  28.147  56.987  1.00  0.00     0.098 A 
HETATM    2  N   UNL     1       9.010  28.580  57.171  1.00  0.00    -0.173 NA
HETATM    3  N   UNL     1       8.903  29.786  57.777  1.00  0.00    -0.272 N 
HETATM    4  H   UNL     1       9.747  30.291  58.030  1.00  0.00     0.189 HD
HETATM    5  C   UNL     1       7.621  30.128  57.960  1.00  0.00     0.128 A 
HETATM    6  C   UNL     1       6.840  29.131  57.448  1.00  0.00     0.034 A 
HETATM    7  C   UNL     1       5.412  29.474  57.639  1.00  0.00     0.156 A 
HETATM    8  N   UNL     1       5.551  30.770  58.328  1.00  0.00    -0.343 N 
HETATM    9  C   UNL     1       6.864  31.185  58.512  1.00  0.00     0.271 A 
HETATM   10  O   UNL     1       7.251  32.221  59.017  1.00  0.00    -0.266 OA
HETATM   11  H   UNL     1       4.773  31.355  58.596  1.00  0.00     0.163 HD
ENDROOT
BRANCH   7  12
HETATM   12  C   UNL     1       4.747  29.613  56.291  1.00  0.00    -0.028 A 
HETATM   13  C   UNL     1       4.492  28.504  55.453  1.00  0.00     0.049 A 
HETATM   14  C   UNL     1       3.910  28.671  54.195  1.00  0.00     0.101 A 
HETATM   15  C   UNL     1       3.582  29.963  53.773  1.00  0.00     0.099 A 
HETATM   16  C   UNL     1       3.820  31.071  54.572  1.00  0.00     0.040 A 
HETATM   17  C   UNL     1       4.404  30.896  55.827  1.00  0.00     0.012 A 
BRANCH  14  18
HETATM   18  O   UNL     1       3.625  27.678  53.294  1.00  0.00    -0.353 OA
HETATM   19  C   UNL     1       4.736  27.035  52.679  1.00  0.00     0.210 C 
ENDBRANCH  14  18
BRANCH  15  20
HETATM   20  O   UNL     1       3.019  30.164  52.542  1.00  0.00    -0.358 OA
HETATM   21  H   UNL     1       3.538  29.603  51.934  1.00  0.00     0.218 HD
ENDBRANCH  15  20
ENDBRANCH   7  12
BRANCH   1  22
HETATM   22  C   UNL     1       7.469  26.830  56.398  1.00  0.00    -0.002 A 
HETATM   23  C   UNL     1       7.695  26.616  55.025  1.00  0.00     0.050 A 
HETATM   24  C   UNL     1       7.468  25.366  54.444  1.00  0.00     0.069 A 
HETATM   25  C   UNL     1       6.995  24.320  55.238  1.00  0.00     0.037 A 
HETATM   26  C   UNL     1       6.773  24.511  56.600  1.00  0.00     0.004 A 
HETATM   27  C   UNL     1       7.018  25.757  57.179  1.00  0.00     0.014 A 
BRANCH  24  28
HETATM   28  O   UNL     1       7.664  25.042  53.130  1.00  0.00    -0.356 OA
HETATM   29  C   UNL     1       7.789  23.657  52.825  1.00  0.00     0.210 C 
ENDBRANCH  24  28
ENDBRANCH   1  22
TORSDOF 5
ENDMDL
