MODEL 1
REMARK VINA RESULT:      -9.7      0.000      0.000
REMARK  6 active torsions:
REMARK  status: ('A' for Active; 'I' for Inactive)
REMARK    1  A    between atoms: C_2  and  O_3 
REMARK    2  A    between atoms: O_3  and  C_4 
REMARK    3  A    between atoms: C_5  and  N_6 
REMARK    4  A    between atoms: N_6  and  C_7 
REMARK    5  A    between atoms: C_8  and  C_9 
REMARK    6  A    between atoms: C_12  and  C_13 
ROOT
HETATM    1  C   UNL     1       6.383  24.626  52.602  1.00  0.00     0.087 C 
HETATM    2  C   UNL     1       5.812  25.803  52.292  1.00  0.00     0.077 C 
HETATM    3  C   UNL     1       5.198  26.031  50.921  1.00  0.00     0.023 C 
HETATM    4  N   UNL     1       4.689  26.221  49.783  1.00  0.00    -0.096 N 
ENDROOT
BRANCH   2   5
HETATM    5  C   UNL     1       5.787  26.887  53.237  1.00  0.00     0.118 A 
HETATM    6  S   UNL     1       4.292  27.727  53.546  1.00  0.00    -0.078 SA
HETATM    7  C   UNL     1       5.064  28.710  54.704  1.00  0.00     0.084 A 
HETATM    8  C   UNL     1       6.398  28.380  54.797  1.00  0.00     0.081 A 
HETATM    9  N   UNL     1       6.793  27.323  53.981  1.00  0.00    -0.239 NA
BRANCH   8  10
HETATM   10  C   UNL     1       7.367  28.982  55.676  1.00  0.00     0.070 A 
HETATM   11  C   UNL     1       8.785  29.154  55.213  1.00  0.00     0.301 A 
HETATM   12  O   UNL     1       9.185  28.757  54.121  1.00  0.00    -0.259 OA
HETATM   13  O   UNL     1       9.668  29.800  56.074  1.00  0.00    -0.274 OA
HETATM   14  C   UNL     1       9.286  30.221  57.355  1.00  0.00     0.089 A 
HETATM   15  C   UNL     1       7.988  30.021  57.804  1.00  0.00     0.000 A 
HETATM   16  C   UNL     1      10.254  30.835  58.147  1.00  0.00     0.039 A 
HETATM   17  C   UNL     1       7.644  30.445  59.089  1.00  0.00     0.033 A 
HETATM   18  C   UNL     1       7.030  29.389  56.915  1.00  0.00     0.034 A 
HETATM   19  C   UNL     1       8.607  31.061  59.893  1.00  0.00     0.012 A 
HETATM   20  C   UNL     1       9.909  31.260  59.428  1.00  0.00     0.022 A 
HETATM   21 BR   UNL     1       8.141  31.635  61.633  1.00  0.00    -0.051 Br
ENDBRANCH   8  10
ENDBRANCH   2   5
BRANCH   1  22
HETATM   22  N   UNL     1       7.130  24.288  53.717  1.00  0.00    -0.266 NA
HETATM   23  H   UNL     1       6.753  24.705  54.579  1.00  0.00     0.133 HD
BRANCH  22  24
HETATM   24  C   UNL     1       7.527  22.964  54.055  1.00  0.00     0.045 A 
HETATM   25  C   UNL     1       7.615  22.604  55.419  1.00  0.00     0.090 A 
HETATM   26  C   UNL     1       7.926  21.289  55.783  1.00  0.00     0.038 A 
HETATM   27  C   UNL     1       8.182  20.333  54.800  1.00  0.00     0.003 A 
HETATM   28  C   UNL     1       8.131  20.686  53.454  1.00  0.00     0.002 A 
HETATM   29  C   UNL     1       7.814  21.995  53.083  1.00  0.00     0.026 A 
BRANCH  25  30
HETATM   30  O   UNL     1       7.334  23.587  56.340  1.00  0.00    -0.350 OA
BRANCH  30  31
HETATM   31  C   UNL     1       8.478  24.123  57.012  1.00  0.00     0.171 C 
HETATM   32  C   UNL     1       8.291  25.623  57.158  1.00  0.00     0.034 C 
ENDBRANCH  30  31
ENDBRANCH  25  30
ENDBRANCH  22  24
ENDBRANCH   1  22
TORSDOF 6
ENDMDL
MODEL 2
REMARK VINA RESULT:      -9.6      1.909      2.209
REMARK  6 active torsions:
REMARK  status: ('A' for Active; 'I' for Inactive)
REMARK    1  A    between atoms: C_2  and  O_3 
REMARK    2  A    between atoms: O_3  and  C_4 
REMARK    3  A    between atoms: C_5  and  N_6 
REMARK    4  A    between atoms: N_6  and  C_7 
REMARK    5  A    between atoms: C_8  and  C_9 
REMARK    6  A    between atoms: C_12  and  C_13 
ROOT
HETATM    1  C   UNL     1       7.493  24.822  52.330  1.00  0.00     0.087 C 
HETATM    2  C   UNL     1       6.511  25.713  52.545  1.00  0.00     0.077 C 
HETATM    3  C   UNL     1       5.774  26.352  51.380  1.00  0.00     0.023 C 
HETATM    4  N   UNL     1       5.162  26.882  50.413  1.00  0.00    -0.096 N 
ENDROOT
BRANCH   2   5
HETATM    5  C   UNL     1       6.144  26.108  53.878  1.00  0.00     0.118 A 
HETATM    6  S   UNL     1       5.456  24.934  54.967  1.00  0.00    -0.078 SA
HETATM    7  C   UNL     1       5.383  26.102  56.207  1.00  0.00     0.084 A 
HETATM    8  C   UNL     1       5.859  27.311  55.751  1.00  0.00     0.081 A 
HETATM    9  N   UNL     1       6.316  27.297  54.436  1.00  0.00    -0.239 NA
BRANCH   8  10
HETATM   10  C   UNL     1       5.965  28.529  56.514  1.00  0.00     0.070 A 
HETATM   11  C   UNL     1       4.958  29.623  56.311  1.00  0.00     0.301 A 
HETATM   12  O   UNL     1       4.057  29.558  55.479  1.00  0.00    -0.259 OA
HETATM   13  O   UNL     1       5.066  30.753  57.118  1.00  0.00    -0.274 OA
HETATM   14  C   UNL     1       6.107  30.910  58.044  1.00  0.00     0.089 A 
HETATM   15  C   UNL     1       7.067  29.921  58.200  1.00  0.00     0.000 A 
HETATM   16  C   UNL     1       6.138  32.090  58.784  1.00  0.00     0.039 A 
HETATM   17  C   UNL     1       8.095  30.115  59.124  1.00  0.00     0.033 A 
HETATM   18  C   UNL     1       6.959  28.711  57.404  1.00  0.00     0.034 A 
HETATM   19  C   UNL     1       8.137  31.295  59.872  1.00  0.00     0.012 A 
HETATM   20  C   UNL     1       7.162  32.283  59.708  1.00  0.00     0.022 A 
HETATM   21 BR   UNL     1       9.529  31.558  61.124  1.00  0.00    -0.051 Br
ENDBRANCH   8  10
ENDBRANCH   2   5
BRANCH   1  22
HETATM   22  N   UNL     1       8.378  24.268  53.239  1.00  0.00    -0.266 NA
HETATM   23  H   UNL     1       8.465  24.834  54.093  1.00  0.00     0.133 HD
BRANCH  22  24
HETATM   24  C   UNL     1       8.359  22.908  53.662  1.00  0.00     0.045 A 
HETATM   25  C   UNL     1       8.761  22.597  54.982  1.00  0.00     0.090 A 
HETATM   26  C   UNL     1       8.679  21.282  55.452  1.00  0.00     0.038 A 
HETATM   27  C   UNL     1       8.229  20.265  54.610  1.00  0.00     0.003 A 
HETATM   28  C   UNL     1       7.864  20.556  53.299  1.00  0.00     0.002 A 
HETATM   29  C   UNL     1       7.936  21.867  52.824  1.00  0.00     0.026 A 
BRANCH  25  30
HETATM   30  O   UNL     1       9.177  23.648  55.767  1.00  0.00    -0.350 OA
BRANCH  30  31
HETATM   31  C   UNL     1       8.497  23.764  57.021  1.00  0.00     0.171 C 
HETATM   32  C   UNL     1       8.610  25.201  57.498  1.00  0.00     0.034 C 
ENDBRANCH  30  31
ENDBRANCH  25  30
ENDBRANCH  22  24
ENDBRANCH   1  22
TORSDOF 6
ENDMDL
MODEL 3
REMARK VINA RESULT:      -9.5      3.590      8.179
REMARK  6 active torsions:
REMARK  status: ('A' for Active; 'I' for Inactive)
REMARK    1  A    between atoms: C_2  and  O_3 
REMARK    2  A    between atoms: O_3  and  C_4 
REMARK    3  A    between atoms: C_5  and  N_6 
REMARK    4  A    between atoms: N_6  and  C_7 
REMARK    5  A    between atoms: C_8  and  C_9 
REMARK    6  A    between atoms: C_12  and  C_13 
ROOT
HETATM    1  C   UNL     1       6.093  31.730  57.833  1.00  0.00     0.087 C 
HETATM    2  C   UNL     1       5.491  31.430  56.670  1.00  0.00     0.077 C 
HETATM    3  C   UNL     1       4.909  32.526  55.792  1.00  0.00     0.023 C 
HETATM    4  N   UNL     1       4.427  33.435  55.063  1.00  0.00    -0.096 N 
ENDROOT
BRANCH   2   5
HETATM    5  C   UNL     1       5.356  30.067  56.233  1.00  0.00     0.118 A 
HETATM    6  S   UNL     1       3.995  29.608  55.246  1.00  0.00    -0.078 SA
HETATM    7  C   UNL     1       4.585  28.011  55.146  1.00  0.00     0.084 A 
HETATM    8  C   UNL     1       5.755  27.890  55.861  1.00  0.00     0.081 A 
HETATM    9  N   UNL     1       6.201  29.070  56.451  1.00  0.00    -0.239 NA
BRANCH   8  10
HETATM   10  C   UNL     1       6.551  26.697  55.999  1.00  0.00     0.070 A 
HETATM   11  C   UNL     1       7.434  26.528  57.201  1.00  0.00     0.301 A 
HETATM   12  O   UNL     1       7.557  27.389  58.068  1.00  0.00    -0.259 OA
HETATM   13  O   UNL     1       8.134  25.330  57.320  1.00  0.00    -0.274 OA
HETATM   14  C   UNL     1       8.082  24.335  56.333  1.00  0.00     0.089 A 
HETATM   15  C   UNL     1       7.304  24.510  55.198  1.00  0.00     0.000 A 
HETATM   16  C   UNL     1       8.841  23.185  56.538  1.00  0.00     0.039 A 
HETATM   17  C   UNL     1       7.282  23.502  54.231  1.00  0.00     0.033 A 
HETATM   18  C   UNL     1       6.527  25.729  55.063  1.00  0.00     0.034 A 
HETATM   19  C   UNL     1       8.039  22.344  54.425  1.00  0.00     0.012 A 
HETATM   20  C   UNL     1       8.817  22.179  55.574  1.00  0.00     0.022 A 
HETATM   21 BR   UNL     1       8.010  20.980  53.115  1.00  0.00    -0.051 Br
ENDBRANCH   8  10
ENDBRANCH   2   5
BRANCH   1  22
HETATM   22  N   UNL     1       6.526  30.876  58.833  1.00  0.00    -0.266 NA
HETATM   23  H   UNL     1       6.906  29.997  58.457  1.00  0.00     0.133 HD
BRANCH  22  24
HETATM   24  C   UNL     1       7.384  31.254  59.905  1.00  0.00     0.045 A 
HETATM   25  C   UNL     1       8.754  30.914  59.837  1.00  0.00     0.090 A 
HETATM   26  C   UNL     1       9.636  31.339  60.837  1.00  0.00     0.038 A 
HETATM   27  C   UNL     1       9.162  32.075  61.922  1.00  0.00     0.003 A 
HETATM   28  C   UNL     1       7.807  32.385  62.015  1.00  0.00     0.002 A 
HETATM   29  C   UNL     1       6.921  31.971  61.018  1.00  0.00     0.026 A 
BRANCH  25  30
HETATM   30  O   UNL     1       9.163  30.203  58.732  1.00  0.00    -0.350 OA
BRANCH  30  31
HETATM   31  C   UNL     1      10.212  30.818  57.979  1.00  0.00     0.171 C 
HETATM   32  C   UNL     1      10.545  29.924  56.798  1.00  0.00     0.034 C 
ENDBRANCH  30  31
ENDBRANCH  25  30
ENDBRANCH  22  24
ENDBRANCH   1  22
TORSDOF 6
ENDMDL
MODEL 4
REMARK VINA RESULT:      -9.5      3.119      7.375
REMARK  6 active torsions:
REMARK  status: ('A' for Active; 'I' for Inactive)
REMARK    1  A    between atoms: C_2  and  O_3 
REMARK    2  A    between atoms: O_3  and  C_4 
REMARK    3  A    between atoms: C_5  and  N_6 
REMARK    4  A    between atoms: N_6  and  C_7 
REMARK    5  A    between atoms: C_8  and  C_9 
REMARK    6  A    between atoms: C_12  and  C_13 
ROOT
HETATM    1  C   UNL     1       5.537  29.992  56.923  1.00  0.00     0.087 C 
HETATM    2  C   UNL     1       4.594  29.939  55.967  1.00  0.00     0.077 C 
HETATM    3  C   UNL     1       3.421  30.904  55.978  1.00  0.00     0.023 C 
HETATM    4  N   UNL     1       2.447  31.705  55.988  1.00  0.00    -0.096 N 
ENDROOT
BRANCH   2   5
HETATM    5  C   UNL     1       4.653  28.953  54.921  1.00  0.00     0.118 A 
HETATM    6  S   UNL     1       3.738  29.193  53.457  1.00  0.00    -0.078 SA
HETATM    7  C   UNL     1       4.361  27.744  52.811  1.00  0.00     0.084 A 
HETATM    8  C   UNL     1       5.206  27.142  53.716  1.00  0.00     0.081 A 
HETATM    9  N   UNL     1       5.389  27.851  54.900  1.00  0.00    -0.239 NA
BRANCH   8  10
HETATM   10  C   UNL     1       5.930  25.912  53.521  1.00  0.00     0.070 A 
HETATM   11  C   UNL     1       6.360  25.514  52.139  1.00  0.00     0.301 A 
HETATM   12  O   UNL     1       6.082  26.168  51.137  1.00  0.00    -0.259 OA
HETATM   13  O   UNL     1       7.112  24.349  52.011  1.00  0.00    -0.274 OA
HETATM   14  C   UNL     1       7.409  23.530  53.109  1.00  0.00     0.089 A 
HETATM   15  C   UNL     1       6.972  23.871  54.381  1.00  0.00     0.000 A 
HETATM   16  C   UNL     1       8.147  22.373  52.868  1.00  0.00     0.039 A 
HETATM   17  C   UNL     1       7.278  23.027  55.450  1.00  0.00     0.033 A 
HETATM   18  C   UNL     1       6.222  25.102  54.556  1.00  0.00     0.034 A 
HETATM   19  C   UNL     1       8.017  21.863  55.221  1.00  0.00     0.012 A 
HETATM   20  C   UNL     1       8.454  21.533  53.936  1.00  0.00     0.022 A 
HETATM   21 BR   UNL     1       8.431  20.721  56.670  1.00  0.00    -0.051 Br
ENDBRANCH   8  10
ENDBRANCH   2   5
BRANCH   1  22
HETATM   22  N   UNL     1       6.572  29.108  57.175  1.00  0.00    -0.266 NA
HETATM   23  H   UNL     1       6.421  28.194  56.727  1.00  0.00     0.133 HD
BRANCH  22  24
HETATM   24  C   UNL     1       7.954  29.409  57.008  1.00  0.00     0.045 A 
HETATM   25  C   UNL     1       8.691  29.875  58.121  1.00  0.00     0.090 A 
HETATM   26  C   UNL     1      10.067  30.104  58.009  1.00  0.00     0.038 A 
HETATM   27  C   UNL     1      10.712  29.904  56.789  1.00  0.00     0.003 A 
HETATM   28  C   UNL     1       9.988  29.478  55.679  1.00  0.00     0.002 A 
HETATM   29  C   UNL     1       8.616  29.240  55.784  1.00  0.00     0.026 A 
BRANCH  25  30
HETATM   30  O   UNL     1       7.999  30.035  59.300  1.00  0.00    -0.350 OA
BRANCH  30  31
HETATM   31  C   UNL     1       8.101  31.339  59.881  1.00  0.00     0.171 C 
HETATM   32  C   UNL     1       8.085  31.194  61.392  1.00  0.00     0.034 C 
ENDBRANCH  30  31
ENDBRANCH  25  30
ENDBRANCH  22  24
ENDBRANCH   1  22
TORSDOF 6
ENDMDL
MODEL 5
REMARK VINA RESULT:      -9.4      4.030      9.271
REMARK  6 active torsions:
REMARK  status: ('A' for Active; 'I' for Inactive)
REMARK    1  A    between atoms: C_2  and  O_3 
REMARK    2  A    between atoms: O_3  and  C_4 
REMARK    3  A    between atoms: C_5  and  N_6 
REMARK    4  A    between atoms: N_6  and  C_7 
REMARK    5  A    between atoms: C_8  and  C_9 
REMARK    6  A    between atoms: C_12  and  C_13 
ROOT
HETATM    1  C   UNL     1       8.925  30.696  59.710  1.00  0.00     0.087 C 
HETATM    2  C   UNL     1       9.229  30.112  58.538  1.00  0.00     0.077 C 
HETATM    3  C   UNL     1      10.615  30.257  57.934  1.00  0.00     0.023 C 
HETATM    4  N   UNL     1      11.766  30.376  57.433  1.00  0.00    -0.096 N 
ENDROOT
BRANCH   2   5
HETATM    5  C   UNL     1       8.246  29.356  57.809  1.00  0.00     0.118 A 
HETATM    6  S   UNL     1       6.593  29.904  57.766  1.00  0.00    -0.078 SA
HETATM    7  C   UNL     1       6.169  28.601  56.752  1.00  0.00     0.084 A 
HETATM    8  C   UNL     1       7.270  27.812  56.504  1.00  0.00     0.081 A 
HETATM    9  N   UNL     1       8.452  28.265  57.085  1.00  0.00    -0.239 NA
BRANCH   8  10
HETATM   10  C   UNL     1       7.306  26.630  55.681  1.00  0.00     0.070 A 
HETATM   11  C   UNL     1       7.099  26.751  54.199  1.00  0.00     0.301 A 
HETATM   12  O   UNL     1       6.846  27.817  53.643  1.00  0.00    -0.259 OA
HETATM   13  O   UNL     1       7.206  25.590  53.439  1.00  0.00    -0.274 OA
HETATM   14  C   UNL     1       7.433  24.336  54.023  1.00  0.00     0.089 A 
HETATM   15  C   UNL     1       7.577  24.214  55.398  1.00  0.00     0.000 A 
HETATM   16  C   UNL     1       7.499  23.232  53.174  1.00  0.00     0.039 A 
HETATM   17  C   UNL     1       7.792  22.948  55.946  1.00  0.00     0.033 A 
HETATM   18  C   UNL     1       7.513  25.412  56.215  1.00  0.00     0.034 A 
HETATM   19  C   UNL     1       7.860  21.835  55.105  1.00  0.00     0.012 A 
HETATM   20  C   UNL     1       7.716  21.970  53.722  1.00  0.00     0.022 A 
HETATM   21 BR   UNL     1       8.151  20.120  55.849  1.00  0.00    -0.051 Br
ENDBRANCH   8  10
ENDBRANCH   2   5
BRANCH   1  22
HETATM   22  N   UNL     1       7.693  30.818  60.327  1.00  0.00    -0.266 NA
HETATM   23  H   UNL     1       7.305  29.907  60.606  1.00  0.00     0.133 HD
BRANCH  22  24
HETATM   24  C   UNL     1       7.407  31.717  61.394  1.00  0.00     0.045 A 
HETATM   25  C   UNL     1       6.260  32.540  61.306  1.00  0.00     0.090 A 
HETATM   26  C   UNL     1       5.909  33.375  62.372  1.00  0.00     0.038 A 
HETATM   27  C   UNL     1       6.706  33.423  63.515  1.00  0.00     0.003 A 
HETATM   28  C   UNL     1       7.856  32.642  63.597  1.00  0.00     0.002 A 
HETATM   29  C   UNL     1       8.209  31.799  62.541  1.00  0.00     0.026 A 
BRANCH  25  30
HETATM   30  O   UNL     1       5.506  32.432  60.160  1.00  0.00    -0.350 OA
BRANCH  30  31
HETATM   31  C   UNL     1       4.097  32.313  60.380  1.00  0.00     0.171 C 
HETATM   32  C   UNL     1       3.490  31.561  59.209  1.00  0.00     0.034 C 
ENDBRANCH  30  31
ENDBRANCH  25  30
ENDBRANCH  22  24
ENDBRANCH   1  22
TORSDOF 6
ENDMDL
MODEL 6
REMARK VINA RESULT:      -9.2      3.661      7.405
REMARK  6 active torsions:
REMARK  status: ('A' for Active; 'I' for Inactive)
REMARK    1  A    between atoms: C_2  and  O_3 
REMARK    2  A    between atoms: O_3  and  C_4 
REMARK    3  A    between atoms: C_5  and  N_6 
REMARK    4  A    between atoms: N_6  and  C_7 
REMARK    5  A    between atoms: C_8  and  C_9 
REMARK    6  A    between atoms: C_12  and  C_13 
ROOT
HETATM    1  C   UNL     1       3.708  29.106  54.368  1.00  0.00     0.087 C 
HETATM    2  C   UNL     1       4.502  29.526  55.367  1.00  0.00     0.077 C 
HETATM    3  C   UNL     1       4.165  30.783  56.151  1.00  0.00     0.023 C 
HETATM    4  N   UNL     1       3.885  31.826  56.802  1.00  0.00    -0.096 N 
ENDROOT
BRANCH   2   5
HETATM    5  C   UNL     1       5.705  28.815  55.708  1.00  0.00     0.118 A 
HETATM    6  S   UNL     1       7.112  29.701  56.229  1.00  0.00    -0.078 SA
HETATM    7  C   UNL     1       7.965  28.244  56.460  1.00  0.00     0.084 A 
HETATM    8  C   UNL     1       7.172  27.169  56.126  1.00  0.00     0.081 A 
HETATM    9  N   UNL     1       5.880  27.502  55.728  1.00  0.00    -0.239 NA
BRANCH   8  10
HETATM   10  C   UNL     1       7.541  25.778  56.203  1.00  0.00     0.070 A 
HETATM   11  C   UNL     1       7.909  25.180  57.530  1.00  0.00     0.301 A 
HETATM   12  O   UNL     1       7.961  25.835  58.568  1.00  0.00    -0.259 OA
HETATM   13  O   UNL     1       8.196  23.818  57.563  1.00  0.00    -0.274 OA
HETATM   14  C   UNL     1       8.211  23.032  56.402  1.00  0.00     0.089 A 
HETATM   15  C   UNL     1       7.918  23.593  55.167  1.00  0.00     0.000 A 
HETATM   16  C   UNL     1       8.536  21.684  56.541  1.00  0.00     0.039 A 
HETATM   17  C   UNL     1       7.952  22.782  54.031  1.00  0.00     0.033 A 
HETATM   18  C   UNL     1       7.573  25.002  55.104  1.00  0.00     0.034 A 
HETATM   19  C   UNL     1       8.276  21.429  54.158  1.00  0.00     0.012 A 
HETATM   20  C   UNL     1       8.567  20.875  55.408  1.00  0.00     0.022 A 
HETATM   21 BR   UNL     1       8.322  20.332  52.618  1.00  0.00    -0.051 Br
ENDBRANCH   8  10
ENDBRANCH   2   5
BRANCH   1  22
HETATM   22  N   UNL     1       3.930  28.099  53.445  1.00  0.00    -0.266 NA
HETATM   23  H   UNL     1       3.298  27.299  53.581  1.00  0.00     0.133 HD
BRANCH  22  24
HETATM   24  C   UNL     1       4.026  28.296  52.038  1.00  0.00     0.045 A 
HETATM   25  C   UNL     1       5.108  27.714  51.338  1.00  0.00     0.090 A 
HETATM   26  C   UNL     1       5.187  27.824  49.945  1.00  0.00     0.038 A 
HETATM   27  C   UNL     1       4.215  28.535  49.243  1.00  0.00     0.003 A 
HETATM   28  C   UNL     1       3.164  29.141  49.927  1.00  0.00     0.002 A 
HETATM   29  C   UNL     1       3.074  29.030  51.317  1.00  0.00     0.026 A 
BRANCH  25  30
HETATM   30  O   UNL     1       6.024  27.010  52.087  1.00  0.00    -0.350 OA
BRANCH  30  31
HETATM   31  C   UNL     1       6.184  25.641  51.702  1.00  0.00     0.171 C 
HETATM   32  C   UNL     1       5.060  24.832  52.325  1.00  0.00     0.034 C 
ENDBRANCH  30  31
ENDBRANCH  25  30
ENDBRANCH  22  24
ENDBRANCH   1  22
TORSDOF 6
ENDMDL
MODEL 7
REMARK VINA RESULT:      -9.2      4.133      8.574
REMARK  6 active torsions:
REMARK  status: ('A' for Active; 'I' for Inactive)
REMARK    1  A    between atoms: C_2  and  O_3 
REMARK    2  A    between atoms: O_3  and  C_4 
REMARK    3  A    between atoms: C_5  and  N_6 
REMARK    4  A    between atoms: N_6  and  C_7 
REMARK    5  A    between atoms: C_8  and  C_9 
REMARK    6  A    between atoms: C_12  and  C_13 
ROOT
HETATM    1  C   UNL     1       5.665  32.622  58.364  1.00  0.00     0.087 C 
HETATM    2  C   UNL     1       5.193  32.205  57.177  1.00  0.00     0.077 C 
HETATM    3  C   UNL     1       4.757  33.205  56.119  1.00  0.00     0.023 C 
HETATM    4  N   UNL     1       4.395  34.035  55.242  1.00  0.00    -0.096 N 
ENDROOT
BRANCH   2   5
HETATM    5  C   UNL     1       5.063  30.804  56.881  1.00  0.00     0.118 A 
HETATM    6  S   UNL     1       3.534  30.176  56.330  1.00  0.00    -0.078 SA
HETATM    7  C   UNL     1       4.209  28.619  56.177  1.00  0.00     0.084 A 
HETATM    8  C   UNL     1       5.533  28.633  56.554  1.00  0.00     0.081 A 
HETATM    9  N   UNL     1       6.017  29.885  56.925  1.00  0.00    -0.239 NA
BRANCH   8  10
HETATM   10  C   UNL     1       6.435  27.510  56.546  1.00  0.00     0.070 A 
HETATM   11  C   UNL     1       7.491  27.398  57.608  1.00  0.00     0.301 A 
HETATM   12  O   UNL     1       7.664  28.253  58.473  1.00  0.00    -0.259 OA
HETATM   13  O   UNL     1       8.296  26.262  57.595  1.00  0.00    -0.274 OA
HETATM   14  C   UNL     1       8.185  25.282  56.599  1.00  0.00     0.089 A 
HETATM   15  C   UNL     1       7.242  25.407  55.589  1.00  0.00     0.000 A 
HETATM   16  C   UNL     1       9.056  24.196  56.664  1.00  0.00     0.039 A 
HETATM   17  C   UNL     1       7.166  24.416  54.608  1.00  0.00     0.033 A 
HETATM   18  C   UNL     1       6.357  26.558  55.597  1.00  0.00     0.034 A 
HETATM   19  C   UNL     1       8.034  23.323  54.662  1.00  0.00     0.012 A 
HETATM   20  C   UNL     1       8.979  23.207  55.686  1.00  0.00     0.022 A 
HETATM   21 BR   UNL     1       7.931  21.982  53.333  1.00  0.00    -0.051 Br
ENDBRANCH   8  10
ENDBRANCH   2   5
BRANCH   1  22
HETATM   22  N   UNL     1       5.949  31.879  59.496  1.00  0.00    -0.266 NA
HETATM   23  H   UNL     1       5.702  30.888  59.384  1.00  0.00     0.133 HD
BRANCH  22  24
HETATM   24  C   UNL     1       7.193  31.904  60.190  1.00  0.00     0.045 A 
HETATM   25  C   UNL     1       7.187  32.008  61.600  1.00  0.00     0.090 A 
HETATM   26  C   UNL     1       8.388  31.954  62.316  1.00  0.00     0.038 A 
HETATM   27  C   UNL     1       9.601  31.830  61.639  1.00  0.00     0.003 A 
HETATM   28  C   UNL     1       9.619  31.761  60.248  1.00  0.00     0.002 A 
HETATM   29  C   UNL     1       8.424  31.806  59.527  1.00  0.00     0.026 A 
BRANCH  25  30
HETATM   30  O   UNL     1       5.957  32.110  62.209  1.00  0.00    -0.350 OA
BRANCH  30  31
HETATM   31  C   UNL     1       5.996  32.573  63.563  1.00  0.00     0.171 C 
HETATM   32  C   UNL     1       4.795  33.471  63.799  1.00  0.00     0.034 C 
ENDBRANCH  30  31
ENDBRANCH  25  30
ENDBRANCH  22  24
ENDBRANCH   1  22
TORSDOF 6
ENDMDL
MODEL 8
REMARK VINA RESULT:      -9.0      4.258      9.366
REMARK  6 active torsions:
REMARK  status: ('A' for Active; 'I' for Inactive)
REMARK    1  A    between atoms: C_2  and  O_3 
REMARK    2  A    between atoms: O_3  and  C_4 
REMARK    3  A    between atoms: C_5  and  N_6 
REMARK    4  A    between atoms: N_6  and  C_7 
REMARK    5  A    between atoms: C_8  and  C_9 
REMARK    6  A    between atoms: C_12  and  C_13 
ROOT
HETATM    1  C   UNL     1       7.576  31.281  59.420  1.00  0.00     0.087 C 
HETATM    2  C   UNL     1       8.128  30.628  58.383  1.00  0.00     0.077 C 
HETATM    3  C   UNL     1       9.590  30.834  58.025  1.00  0.00     0.023 C 
HETATM    4  N   UNL     1      10.804  31.005  57.728  1.00  0.00    -0.096 N 
ENDROOT
BRANCH   2   5
HETATM    5  C   UNL     1       7.348  29.737  57.567  1.00  0.00     0.118 A 
HETATM    6  S   UNL     1       5.649  30.044  57.335  1.00  0.00    -0.078 SA
HETATM    7  C   UNL     1       5.527  28.691  56.306  1.00  0.00     0.084 A 
HETATM    8  C   UNL     1       6.749  28.066  56.194  1.00  0.00     0.081 A 
HETATM    9  N   UNL     1       7.784  28.684  56.891  1.00  0.00    -0.239 NA
BRANCH   8  10
HETATM   10  C   UNL     1       7.041  26.898  55.402  1.00  0.00     0.070 A 
HETATM   11  C   UNL     1       7.263  27.040  53.924  1.00  0.00     0.301 A 
HETATM   12  O   UNL     1       7.159  28.111  53.331  1.00  0.00    -0.259 OA
HETATM   13  O   UNL     1       7.606  25.893  53.213  1.00  0.00    -0.274 OA
HETATM   14  C   UNL     1       7.681  24.633  53.823  1.00  0.00     0.089 A 
HETATM   15  C   UNL     1       7.430  24.492  55.181  1.00  0.00     0.000 A 
HETATM   16  C   UNL     1       8.008  23.545  53.017  1.00  0.00     0.039 A 
HETATM   17  C   UNL     1       7.505  23.221  55.754  1.00  0.00     0.033 A 
HETATM   18  C   UNL     1       7.111  25.675  55.960  1.00  0.00     0.034 A 
HETATM   19  C   UNL     1       7.831  22.122  54.955  1.00  0.00     0.012 A 
HETATM   20  C   UNL     1       8.085  22.278  53.589  1.00  0.00     0.022 A 
HETATM   21 BR   UNL     1       7.932  20.401  55.731  1.00  0.00    -0.051 Br
ENDBRANCH   8  10
ENDBRANCH   2   5
BRANCH   1  22
HETATM   22  N   UNL     1       6.245  31.354  59.793  1.00  0.00    -0.266 NA
HETATM   23  H   UNL     1       6.013  30.686  60.541  1.00  0.00     0.133 HD
BRANCH  22  24
HETATM   24  C   UNL     1       5.557  32.560  60.108  1.00  0.00     0.045 A 
HETATM   25  C   UNL     1       5.541  33.008  61.449  1.00  0.00     0.090 A 
HETATM   26  C   UNL     1       4.940  34.229  61.776  1.00  0.00     0.038 A 
HETATM   27  C   UNL     1       4.327  34.995  60.786  1.00  0.00     0.003 A 
HETATM   28  C   UNL     1       4.308  34.546  59.468  1.00  0.00     0.002 A 
HETATM   29  C   UNL     1       4.911  33.332  59.131  1.00  0.00     0.026 A 
BRANCH  25  30
HETATM   30  O   UNL     1       6.179  32.215  62.375  1.00  0.00    -0.350 OA
BRANCH  30  31
HETATM   31  C   UNL     1       6.289  32.791  63.680  1.00  0.00     0.171 C 
HETATM   32  C   UNL     1       7.761  32.987  63.997  1.00  0.00     0.034 C 
ENDBRANCH  30  31
ENDBRANCH  25  30
ENDBRANCH  22  24
ENDBRANCH   1  22
TORSDOF 6
ENDMDL
MODEL 9
REMARK VINA RESULT:      -8.8      4.463      9.427
REMARK  6 active torsions:
REMARK  status: ('A' for Active; 'I' for Inactive)
REMARK    1  A    between atoms: C_2  and  O_3 
REMARK    2  A    between atoms: O_3  and  C_4 
REMARK    3  A    between atoms: C_5  and  N_6 
REMARK    4  A    between atoms: N_6  and  C_7 
REMARK    5  A    between atoms: C_8  and  C_9 
REMARK    6  A    between atoms: C_12  and  C_13 
ROOT
HETATM    1  C   UNL     1       7.203  31.798  60.062  1.00  0.00     0.087 C 
HETATM    2  C   UNL     1       8.146  30.841  60.112  1.00  0.00     0.077 C 
HETATM    3  C   UNL     1       8.831  30.495  61.423  1.00  0.00     0.023 C 
HETATM    4  N   UNL     1       9.400  30.207  62.511  1.00  0.00    -0.096 N 
ENDROOT
BRANCH   2   5
HETATM    5  C   UNL     1       8.551  30.136  58.927  1.00  0.00     0.118 A 
HETATM    6  S   UNL     1       9.942  30.683  58.030  1.00  0.00    -0.078 SA
HETATM    7  C   UNL     1       9.765  29.390  56.934  1.00  0.00     0.084 A 
HETATM    8  C   UNL     1       8.675  28.621  57.275  1.00  0.00     0.081 A 
HETATM    9  N   UNL     1       8.009  29.036  58.426  1.00  0.00    -0.239 NA
BRANCH   8  10
HETATM   10  C   UNL     1       8.219  27.437  56.593  1.00  0.00     0.070 A 
HETATM   11  C   UNL     1       7.350  27.569  55.376  1.00  0.00     0.301 A 
HETATM   12  O   UNL     1       6.957  28.652  54.948  1.00  0.00    -0.259 OA
HETATM   13  O   UNL     1       6.988  26.399  54.715  1.00  0.00    -0.274 OA
HETATM   14  C   UNL     1       7.355  25.131  55.189  1.00  0.00     0.089 A 
HETATM   15  C   UNL     1       8.119  25.004  56.341  1.00  0.00     0.000 A 
HETATM   16  C   UNL     1       6.920  24.022  54.467  1.00  0.00     0.039 A 
HETATM   17  C   UNL     1       8.458  23.726  56.790  1.00  0.00     0.033 A 
HETATM   18  C   UNL     1       8.549  26.207  57.031  1.00  0.00     0.034 A 
HETATM   19  C   UNL     1       8.027  22.607  56.074  1.00  0.00     0.012 A 
HETATM   20  C   UNL     1       7.261  22.748  54.914  1.00  0.00     0.022 A 
HETATM   21 BR   UNL     1       8.487  20.876  56.682  1.00  0.00    -0.051 Br
ENDBRANCH   8  10
ENDBRANCH   2   5
BRANCH   1  22
HETATM   22  N   UNL     1       6.595  32.363  58.954  1.00  0.00    -0.266 NA
HETATM   23  H   UNL     1       6.493  31.692  58.182  1.00  0.00     0.133 HD
BRANCH  22  24
HETATM   24  C   UNL     1       5.388  33.117  58.989  1.00  0.00     0.045 A 
HETATM   25  C   UNL     1       4.776  33.484  57.768  1.00  0.00     0.090 A 
HETATM   26  C   UNL     1       3.549  34.157  57.770  1.00  0.00     0.038 A 
HETATM   27  C   UNL     1       2.939  34.497  58.976  1.00  0.00     0.003 A 
HETATM   28  C   UNL     1       3.551  34.170  60.184  1.00  0.00     0.002 A 
HETATM   29  C   UNL     1       4.772  33.492  60.191  1.00  0.00     0.026 A 
BRANCH  25  30
HETATM   30  O   UNL     1       5.420  33.104  56.613  1.00  0.00    -0.350 OA
BRANCH  30  31
HETATM   31  C   UNL     1       4.695  32.174  55.803  1.00  0.00     0.171 C 
HETATM   32  C   UNL     1       4.481  32.793  54.433  1.00  0.00     0.034 C 
ENDBRANCH  30  31
ENDBRANCH  25  30
ENDBRANCH  22  24
ENDBRANCH   1  22
TORSDOF 6
ENDMDL
MODEL 10
REMARK VINA RESULT:      -8.8      3.511      5.332
REMARK  6 active torsions:
REMARK  status: ('A' for Active; 'I' for Inactive)
REMARK    1  A    between atoms: C_2  and  O_3 
REMARK    2  A    between atoms: O_3  and  C_4 
REMARK    3  A    between atoms: C_5  and  N_6 
REMARK    4  A    between atoms: N_6  and  C_7 
REMARK    5  A    between atoms: C_8  and  C_9 
REMARK    6  A    between atoms: C_12  and  C_13 
ROOT
HETATM    1  C   UNL     1       6.201  28.411  55.593  1.00  0.00     0.087 C 
HETATM    2  C   UNL     1       6.204  29.626  56.166  1.00  0.00     0.077 C 
HETATM    3  C   UNL     1       5.244  30.708  55.700  1.00  0.00     0.023 C 
HETATM    4  N   UNL     1       4.448  31.605  55.313  1.00  0.00    -0.096 N 
ENDROOT
BRANCH   2   5
HETATM    5  C   UNL     1       7.130  29.948  57.218  1.00  0.00     0.118 A 
HETATM    6  S   UNL     1       8.831  29.644  56.994  1.00  0.00    -0.078 SA
HETATM    7  C   UNL     1       9.169  30.299  58.530  1.00  0.00     0.084 A 
HETATM    8  C   UNL     1       8.004  30.700  59.145  1.00  0.00     0.081 A 
HETATM    9  N   UNL     1       6.854  30.523  58.380  1.00  0.00    -0.239 NA
BRANCH   8  10
HETATM   10  C   UNL     1       7.890  31.311  60.444  1.00  0.00     0.070 A 
HETATM   11  C   UNL     1       8.707  30.783  61.588  1.00  0.00     0.301 A 
HETATM   12  O   UNL     1       9.445  29.807  61.488  1.00  0.00    -0.259 OA
HETATM   13  O   UNL     1       8.610  31.449  62.807  1.00  0.00    -0.274 OA
HETATM   14  C   UNL     1       7.740  32.531  62.998  1.00  0.00     0.089 A 
HETATM   15  C   UNL     1       6.949  32.991  61.955  1.00  0.00     0.000 A 
HETATM   16  C   UNL     1       7.701  33.110  64.264  1.00  0.00     0.039 A 
HETATM   17  C   UNL     1       6.086  34.066  62.183  1.00  0.00     0.033 A 
HETATM   18  C   UNL     1       7.057  32.347  60.658  1.00  0.00     0.034 A 
HETATM   19  C   UNL     1       6.038  34.654  63.449  1.00  0.00     0.012 A 
HETATM   20  C   UNL     1       6.842  34.184  64.491  1.00  0.00     0.022 A 
HETATM   21 BR   UNL     1       4.870  36.109  63.758  1.00  0.00    -0.051 Br
ENDBRANCH   8  10
ENDBRANCH   2   5
BRANCH   1  22
HETATM   22  N   UNL     1       7.095  27.368  55.760  1.00  0.00    -0.266 NA
HETATM   23  H   UNL     1       6.951  26.871  56.649  1.00  0.00     0.133 HD
BRANCH  22  24
HETATM   24  C   UNL     1       7.365  26.367  54.784  1.00  0.00     0.045 A 
HETATM   25  C   UNL     1       7.562  25.033  55.208  1.00  0.00     0.090 A 
HETATM   26  C   UNL     1       7.751  24.015  54.267  1.00  0.00     0.038 A 
HETATM   27  C   UNL     1       7.778  24.316  52.906  1.00  0.00     0.003 A 
HETATM   28  C   UNL     1       7.619  25.633  52.480  1.00  0.00     0.002 A 
HETATM   29  C   UNL     1       7.422  26.654  53.413  1.00  0.00     0.026 A 
BRANCH  25  30
HETATM   30  O   UNL     1       7.506  24.799  56.563  1.00  0.00    -0.350 OA
BRANCH  30  31
HETATM   31  C   UNL     1       8.647  24.122  57.100  1.00  0.00     0.171 C 
HETATM   32  C   UNL     1       8.352  22.632  57.131  1.00  0.00     0.034 C 
ENDBRANCH  30  31
ENDBRANCH  25  30
ENDBRANCH  22  24
ENDBRANCH   1  22
TORSDOF 6
ENDMDL
