MODEL 1
REMARK VINA RESULT:      -9.0      0.000      0.000
REMARK  5 active torsions:
REMARK  status: ('A' for Active; 'I' for Inactive)
REMARK    1  A    between atoms: O_2  and  C_3 
REMARK    2  A    between atoms: C_4  and  C_5 
REMARK    3  A    between atoms: C_6  and  C_7 
REMARK    4  A    between atoms: C_6  and  C_16 
REMARK       I    between atoms: C_7  and  N_8 
REMARK    5  A    between atoms: N_8  and  C_9 
ROOT
HETATM    1  C   UNL     1       7.655  24.933  55.947  1.00  0.00     0.032 C 
HETATM    2  C   UNL     1       7.566  24.526  54.663  1.00  0.00     0.043 C 
ENDROOT
BRANCH   2   3
HETATM    3  C   UNL     1       7.231  25.361  53.449  1.00  0.00     0.257 C 
HETATM    4  N   UNL     1       5.888  25.587  53.237  1.00  0.00    -0.323 N 
HETATM    5  H   UNL     1       5.240  25.157  53.880  1.00  0.00     0.169 HD
HETATM    6  O   UNL     1       8.143  25.796  52.751  1.00  0.00    -0.267 OA
BRANCH   4   7
HETATM    7  C   UNL     1       5.300  26.323  52.186  1.00  0.00     0.037 A 
HETATM    8  C   UNL     1       5.259  25.895  50.864  1.00  0.00     0.049 A 
HETATM    9  C   UNL     1       4.659  26.717  49.922  1.00  0.00     0.118 A 
HETATM   10  N   UNL     1       4.096  27.910  50.210  1.00  0.00    -0.273 NA
HETATM   11  C   UNL     1       4.145  28.301  51.499  1.00  0.00     0.118 A 
HETATM   12  C   UNL     1       4.737  27.559  52.509  1.00  0.00     0.049 A 
ENDBRANCH   4   7
ENDBRANCH   2   3
BRANCH   2  13
HETATM   13  C   UNL     1       7.737  23.069  54.465  1.00  0.00    -0.021 A 
HETATM   14  C   UNL     1       7.736  22.198  55.562  1.00  0.00     0.012 A 
HETATM   15  C   UNL     1       7.943  20.830  55.377  1.00  0.00     0.001 A 
HETATM   16  C   UNL     1       8.154  20.325  54.094  1.00  0.00     0.000 A 
HETATM   17  C   UNL     1       8.153  21.186  52.996  1.00  0.00     0.001 A 
HETATM   18  C   UNL     1       7.947  22.554  53.179  1.00  0.00     0.012 A 
ENDBRANCH   2  13
BRANCH   1  19
HETATM   19  C   UNL     1       7.486  26.280  56.500  1.00  0.00    -0.002 A 
HETATM   20  C   UNL     1       6.220  26.876  56.618  1.00  0.00     0.078 A 
HETATM   21  C   UNL     1       6.078  28.137  57.200  1.00  0.00     0.037 A 
HETATM   22  C   UNL     1       7.205  28.832  57.633  1.00  0.00     0.003 A 
HETATM   23  C   UNL     1       8.470  28.259  57.504  1.00  0.00     0.001 A 
HETATM   24  C   UNL     1       8.609  26.986  56.945  1.00  0.00     0.014 A 
BRANCH  20  25
HETATM   25  O   UNL     1       5.066  26.208  56.300  1.00  0.00    -0.355 OA
HETATM   26  C   UNL     1       4.657  25.338  57.356  1.00  0.00     0.210 C 
ENDBRANCH  20  25
ENDBRANCH   1  19
TORSDOF 5
ENDMDL
MODEL 2
REMARK VINA RESULT:      -8.6      1.114      2.128
REMARK  5 active torsions:
REMARK  status: ('A' for Active; 'I' for Inactive)
REMARK    1  A    between atoms: O_2  and  C_3 
REMARK    2  A    between atoms: C_4  and  C_5 
REMARK    3  A    between atoms: C_6  and  C_7 
REMARK    4  A    between atoms: C_6  and  C_16 
REMARK       I    between atoms: C_7  and  N_8 
REMARK    5  A    between atoms: N_8  and  C_9 
ROOT
HETATM    1  C   UNL     1       6.820  25.389  56.025  1.00  0.00     0.032 C 
HETATM    2  C   UNL     1       7.022  24.992  54.751  1.00  0.00     0.043 C 
ENDROOT
BRANCH   2   3
HETATM    3  C   UNL     1       6.823  25.797  53.488  1.00  0.00     0.257 C 
HETATM    4  N   UNL     1       5.527  25.864  53.026  1.00  0.00    -0.323 N 
HETATM    5  H   UNL     1       4.826  25.350  53.539  1.00  0.00     0.169 HD
HETATM    6  O   UNL     1       7.791  26.349  52.971  1.00  0.00    -0.267 OA
BRANCH   4   7
HETATM    7  C   UNL     1       5.062  26.539  51.876  1.00  0.00     0.037 A 
HETATM    8  C   UNL     1       5.120  26.015  50.590  1.00  0.00     0.049 A 
HETATM    9  C   UNL     1       4.639  26.785  49.542  1.00  0.00     0.118 A 
HETATM   10  N   UNL     1       4.099  28.013  49.692  1.00  0.00    -0.273 NA
HETATM   11  C   UNL     1       4.050  28.497  50.949  1.00  0.00     0.118 A 
HETATM   12  C   UNL     1       4.522  27.812  52.059  1.00  0.00     0.049 A 
ENDBRANCH   4   7
ENDBRANCH   2   3
BRANCH   2  13
HETATM   13  C   UNL     1       7.401  23.569  54.602  1.00  0.00    -0.021 A 
HETATM   14  C   UNL     1       7.599  23.016  53.330  1.00  0.00     0.012 A 
HETATM   15  C   UNL     1       7.913  21.663  53.190  1.00  0.00     0.001 A 
HETATM   16  C   UNL     1       8.030  20.855  54.321  1.00  0.00     0.000 A 
HETATM   17  C   UNL     1       7.838  21.399  55.591  1.00  0.00     0.001 A 
HETATM   18  C   UNL     1       7.523  22.751  55.733  1.00  0.00     0.012 A 
ENDBRANCH   2  13
BRANCH   1  19
HETATM   19  C   UNL     1       6.390  26.698  56.525  1.00  0.00    -0.002 A 
HETATM   20  C   UNL     1       7.302  27.615  57.073  1.00  0.00     0.078 A 
HETATM   21  C   UNL     1       6.879  28.877  57.491  1.00  0.00     0.037 A 
HETATM   22  C   UNL     1       5.532  29.222  57.404  1.00  0.00     0.003 A 
HETATM   23  C   UNL     1       4.614  28.313  56.879  1.00  0.00     0.001 A 
HETATM   24  C   UNL     1       5.042  27.059  56.437  1.00  0.00     0.014 A 
BRANCH  20  25
HETATM   25  O   UNL     1       8.652  27.374  57.099  1.00  0.00    -0.355 OA
HETATM   26  C   UNL     1       9.400  28.590  57.079  1.00  0.00     0.210 C 
ENDBRANCH  20  25
ENDBRANCH   1  19
TORSDOF 5
ENDMDL
MODEL 3
REMARK VINA RESULT:      -8.4      1.625      5.286
REMARK  5 active torsions:
REMARK  status: ('A' for Active; 'I' for Inactive)
REMARK    1  A    between atoms: O_2  and  C_3 
REMARK    2  A    between atoms: C_4  and  C_5 
REMARK    3  A    between atoms: C_6  and  C_7 
REMARK    4  A    between atoms: C_6  and  C_16 
REMARK       I    between atoms: C_7  and  N_8 
REMARK    5  A    between atoms: N_8  and  C_9 
ROOT
HETATM    1  C   UNL     1       6.303  27.694  53.612  1.00  0.00     0.032 C 
HETATM    2  C   UNL     1       6.429  26.707  52.699  1.00  0.00     0.043 C 
ENDROOT
BRANCH   2   3
HETATM    3  C   UNL     1       7.277  25.460  52.795  1.00  0.00     0.257 C 
HETATM    4  N   UNL     1       6.784  24.470  53.616  1.00  0.00    -0.323 N 
HETATM    5  H   UNL     1       5.924  24.664  54.108  1.00  0.00     0.169 HD
HETATM    6  O   UNL     1       8.315  25.389  52.142  1.00  0.00    -0.267 OA
BRANCH   4   7
HETATM    7  C   UNL     1       7.368  23.215  53.890  1.00  0.00     0.037 A 
HETATM    8  C   UNL     1       7.684  22.275  52.916  1.00  0.00     0.049 A 
HETATM    9  C   UNL     1       8.246  21.073  53.316  1.00  0.00     0.118 A 
HETATM   10  N   UNL     1       8.523  20.758  54.600  1.00  0.00    -0.273 NA
HETATM   11  C   UNL     1       8.211  21.687  55.525  1.00  0.00     0.118 A 
HETATM   12  C   UNL     1       7.631  22.910  55.226  1.00  0.00     0.049 A 
ENDBRANCH   4   7
ENDBRANCH   2   3
BRANCH   2  13
HETATM   13  C   UNL     1       5.706  26.946  51.430  1.00  0.00    -0.021 A 
HETATM   14  C   UNL     1       5.090  25.886  50.753  1.00  0.00     0.012 A 
HETATM   15  C   UNL     1       4.447  26.106  49.534  1.00  0.00     0.001 A 
HETATM   16  C   UNL     1       4.418  27.387  48.983  1.00  0.00     0.000 A 
HETATM   17  C   UNL     1       5.026  28.449  49.653  1.00  0.00     0.001 A 
HETATM   18  C   UNL     1       5.670  28.231  50.871  1.00  0.00     0.012 A 
ENDBRANCH   2  13
BRANCH   1  19
HETATM   19  C   UNL     1       6.919  27.807  54.938  1.00  0.00    -0.002 A 
HETATM   20  C   UNL     1       6.429  27.090  56.042  1.00  0.00     0.078 A 
HETATM   21  C   UNL     1       7.066  27.170  57.281  1.00  0.00     0.037 A 
HETATM   22  C   UNL     1       8.174  27.999  57.440  1.00  0.00     0.003 A 
HETATM   23  C   UNL     1       8.657  28.730  56.356  1.00  0.00     0.001 A 
HETATM   24  C   UNL     1       8.035  28.630  55.109  1.00  0.00     0.014 A 
BRANCH  20  25
HETATM   25  O   UNL     1       5.405  26.186  55.929  1.00  0.00    -0.355 OA
HETATM   26  C   UNL     1       5.301  25.365  57.093  1.00  0.00     0.210 C 
ENDBRANCH  20  25
ENDBRANCH   1  19
TORSDOF 5
ENDMDL
MODEL 4
REMARK VINA RESULT:      -8.3      1.399      5.160
REMARK  5 active torsions:
REMARK  status: ('A' for Active; 'I' for Inactive)
REMARK    1  A    between atoms: O_2  and  C_3 
REMARK    2  A    between atoms: C_4  and  C_5 
REMARK    3  A    between atoms: C_6  and  C_7 
REMARK    4  A    between atoms: C_6  and  C_16 
REMARK       I    between atoms: C_7  and  N_8 
REMARK    5  A    between atoms: N_8  and  C_9 
ROOT
HETATM    1  C   UNL     1       7.651  24.552  55.406  1.00  0.00     0.032 C 
HETATM    2  C   UNL     1       6.780  25.552  55.153  1.00  0.00     0.043 C 
ENDROOT
BRANCH   2   3
HETATM    3  C   UNL     1       5.808  25.664  54.001  1.00  0.00     0.257 C 
HETATM    4  N   UNL     1       6.138  26.589  53.035  1.00  0.00    -0.323 N 
HETATM    5  H   UNL     1       6.974  27.135  53.184  1.00  0.00     0.169 HD
HETATM    6  O   UNL     1       4.820  24.934  53.978  1.00  0.00    -0.267 OA
BRANCH   4   7
HETATM    7  C   UNL     1       5.414  26.899  51.864  1.00  0.00     0.037 A 
HETATM    8  C   UNL     1       5.337  26.066  50.753  1.00  0.00     0.049 A 
HETATM    9  C   UNL     1       4.600  26.491  49.659  1.00  0.00     0.118 A 
HETATM   10  N   UNL     1       3.935  27.664  49.606  1.00  0.00    -0.273 NA
HETATM   11  C   UNL     1       4.021  28.453  50.696  1.00  0.00     0.118 A 
HETATM   12  C   UNL     1       4.747  28.124  51.831  1.00  0.00     0.049 A 
ENDBRANCH   4   7
ENDBRANCH   2   3
BRANCH   2  13
HETATM   13  C   UNL     1       6.871  26.699  56.085  1.00  0.00    -0.021 A 
HETATM   14  C   UNL     1       5.720  27.408  56.452  1.00  0.00     0.012 A 
HETATM   15  C   UNL     1       5.815  28.517  57.295  1.00  0.00     0.001 A 
HETATM   16  C   UNL     1       7.060  28.923  57.775  1.00  0.00     0.000 A 
HETATM   17  C   UNL     1       8.210  28.219  57.416  1.00  0.00     0.001 A 
HETATM   18  C   UNL     1       8.118  27.112  56.573  1.00  0.00     0.012 A 
ENDBRANCH   2  13
BRANCH   1  19
HETATM   19  C   UNL     1       7.866  23.307  54.662  1.00  0.00    -0.002 A 
HETATM   20  C   UNL     1       8.003  22.072  55.315  1.00  0.00     0.078 A 
HETATM   21  C   UNL     1       8.150  20.892  54.584  1.00  0.00     0.037 A 
HETATM   22  C   UNL     1       8.204  20.941  53.192  1.00  0.00     0.003 A 
HETATM   23  C   UNL     1       8.088  22.164  52.533  1.00  0.00     0.001 A 
HETATM   24  C   UNL     1       7.914  23.342  53.265  1.00  0.00     0.014 A 
BRANCH  20  25
HETATM   25  O   UNL     1       7.864  21.945  56.673  1.00  0.00    -0.355 OA
HETATM   26  C   UNL     1       8.526  20.777  57.160  1.00  0.00     0.210 C 
ENDBRANCH  20  25
ENDBRANCH   1  19
TORSDOF 5
ENDMDL
MODEL 5
REMARK VINA RESULT:      -8.1      2.127      5.528
REMARK  5 active torsions:
REMARK  status: ('A' for Active; 'I' for Inactive)
REMARK    1  A    between atoms: O_2  and  C_3 
REMARK    2  A    between atoms: C_4  and  C_5 
REMARK    3  A    between atoms: C_6  and  C_7 
REMARK    4  A    between atoms: C_6  and  C_16 
REMARK       I    between atoms: C_7  and  N_8 
REMARK    5  A    between atoms: N_8  and  C_9 
ROOT
HETATM    1  C   UNL     1       5.405  25.947  52.818  1.00  0.00     0.032 C 
HETATM    2  C   UNL     1       6.393  25.884  53.736  1.00  0.00     0.043 C 
ENDROOT
BRANCH   2   3
HETATM    3  C   UNL     1       7.020  27.027  54.500  1.00  0.00     0.257 C 
HETATM    4  N   UNL     1       6.430  27.327  55.708  1.00  0.00    -0.323 N 
HETATM    5  H   UNL     1       5.617  26.790  55.971  1.00  0.00     0.169 HD
HETATM    6  O   UNL     1       8.002  27.595  54.029  1.00  0.00    -0.267 OA
BRANCH   4   7
HETATM    7  C   UNL     1       6.806  28.340  56.616  1.00  0.00     0.037 A 
HETATM    8  C   UNL     1       7.826  28.207  57.551  1.00  0.00     0.049 A 
HETATM    9  C   UNL     1       8.091  29.274  58.395  1.00  0.00     0.118 A 
HETATM   10  N   UNL     1       7.428  30.449  58.358  1.00  0.00    -0.273 NA
HETATM   11  C   UNL     1       6.446  30.556  57.441  1.00  0.00     0.118 A 
HETATM   12  C   UNL     1       6.095  29.540  56.566  1.00  0.00     0.049 A 
ENDBRANCH   4   7
ENDBRANCH   2   3
BRANCH   2  13
HETATM   13  C   UNL     1       6.966  24.534  53.933  1.00  0.00    -0.021 A 
HETATM   14  C   UNL     1       7.444  23.799  52.840  1.00  0.00     0.012 A 
HETATM   15  C   UNL     1       7.943  22.508  53.023  1.00  0.00     0.001 A 
HETATM   16  C   UNL     1       7.967  21.944  54.299  1.00  0.00     0.000 A 
HETATM   17  C   UNL     1       7.496  22.672  55.392  1.00  0.00     0.001 A 
HETATM   18  C   UNL     1       6.995  23.961  55.212  1.00  0.00     0.012 A 
ENDBRANCH   2  13
BRANCH   1  19
HETATM   19  C   UNL     1       4.661  27.117  52.344  1.00  0.00    -0.002 A 
HETATM   20  C   UNL     1       4.643  27.480  50.987  1.00  0.00     0.078 A 
HETATM   21  C   UNL     1       3.882  28.565  50.550  1.00  0.00     0.037 A 
HETATM   22  C   UNL     1       3.163  29.325  51.471  1.00  0.00     0.003 A 
HETATM   23  C   UNL     1       3.188  28.985  52.823  1.00  0.00     0.001 A 
HETATM   24  C   UNL     1       3.930  27.883  53.257  1.00  0.00     0.014 A 
BRANCH  20  25
HETATM   25  O   UNL     1       5.250  26.721  50.021  1.00  0.00    -0.355 OA
HETATM   26  C   UNL     1       4.326  26.333  49.003  1.00  0.00     0.210 C 
ENDBRANCH  20  25
ENDBRANCH   1  19
TORSDOF 5
ENDMDL
MODEL 6
REMARK VINA RESULT:      -7.8      1.967      6.131
REMARK  5 active torsions:
REMARK  status: ('A' for Active; 'I' for Inactive)
REMARK    1  A    between atoms: O_2  and  C_3 
REMARK    2  A    between atoms: C_4  and  C_5 
REMARK    3  A    between atoms: C_6  and  C_7 
REMARK    4  A    between atoms: C_6  and  C_16 
REMARK       I    between atoms: C_7  and  N_8 
REMARK    5  A    between atoms: N_8  and  C_9 
ROOT
HETATM    1  C   UNL     1       6.090  25.298  52.727  1.00  0.00     0.032 C 
HETATM    2  C   UNL     1       6.051  26.643  52.842  1.00  0.00     0.043 C 
ENDROOT
BRANCH   2   3
HETATM    3  C   UNL     1       6.777  27.507  53.846  1.00  0.00     0.257 C 
HETATM    4  N   UNL     1       6.094  27.760  55.015  1.00  0.00    -0.323 N 
HETATM    5  H   UNL     1       5.162  27.382  55.096  1.00  0.00     0.169 HD
HETATM    6  O   UNL     1       7.909  27.908  53.584  1.00  0.00    -0.267 OA
BRANCH   4   7
HETATM    7  C   UNL     1       6.531  28.534  56.112  1.00  0.00     0.037 A 
HETATM    8  C   UNL     1       7.504  28.122  57.015  1.00  0.00     0.049 A 
HETATM    9  C   UNL     1       7.838  28.972  58.058  1.00  0.00     0.118 A 
HETATM   10  N   UNL     1       7.285  30.189  58.247  1.00  0.00    -0.273 NA
HETATM   11  C   UNL     1       6.347  30.567  57.357  1.00  0.00     0.118 A 
HETATM   12  C   UNL     1       5.933  29.782  56.292  1.00  0.00     0.049 A 
ENDBRANCH   4   7
ENDBRANCH   2   3
BRANCH   2  13
HETATM   13  C   UNL     1       5.111  27.313  51.915  1.00  0.00    -0.021 A 
HETATM   14  C   UNL     1       5.051  26.935  50.568  1.00  0.00     0.012 A 
HETATM   15  C   UNL     1       4.196  27.600  49.687  1.00  0.00     0.001 A 
HETATM   16  C   UNL     1       3.397  28.645  50.147  1.00  0.00     0.000 A 
HETATM   17  C   UNL     1       3.448  29.025  51.489  1.00  0.00     0.001 A 
HETATM   18  C   UNL     1       4.303  28.364  52.371  1.00  0.00     0.012 A 
ENDBRANCH   2  13
BRANCH   1  19
HETATM   19  C   UNL     1       6.860  24.329  53.511  1.00  0.00    -0.002 A 
HETATM   20  C   UNL     1       6.650  24.161  54.890  1.00  0.00     0.078 A 
HETATM   21  C   UNL     1       7.356  23.192  55.605  1.00  0.00     0.037 A 
HETATM   22  C   UNL     1       8.309  22.409  54.958  1.00  0.00     0.003 A 
HETATM   23  C   UNL     1       8.540  22.579  53.593  1.00  0.00     0.001 A 
HETATM   24  C   UNL     1       7.815  23.531  52.872  1.00  0.00     0.014 A 
BRANCH  20  25
HETATM   25  O   UNL     1       5.664  24.832  55.565  1.00  0.00    -0.355 OA
HETATM   26  C   UNL     1       5.929  24.882  56.967  1.00  0.00     0.210 C 
ENDBRANCH  20  25
ENDBRANCH   1  19
TORSDOF 5
ENDMDL
MODEL 7
REMARK VINA RESULT:      -7.8      2.041      6.069
REMARK  5 active torsions:
REMARK  status: ('A' for Active; 'I' for Inactive)
REMARK    1  A    between atoms: O_2  and  C_3 
REMARK    2  A    between atoms: C_4  and  C_5 
REMARK    3  A    between atoms: C_6  and  C_7 
REMARK    4  A    between atoms: C_6  and  C_16 
REMARK       I    between atoms: C_7  and  N_8 
REMARK    5  A    between atoms: N_8  and  C_9 
ROOT
HETATM    1  C   UNL     1       6.852  24.687  53.517  1.00  0.00     0.032 C 
HETATM    2  C   UNL     1       6.335  25.927  53.649  1.00  0.00     0.043 C 
ENDROOT
BRANCH   2   3
HETATM    3  C   UNL     1       6.162  26.727  54.919  1.00  0.00     0.257 C 
HETATM    4  N   UNL     1       7.152  27.650  55.178  1.00  0.00    -0.323 N 
HETATM    5  H   UNL     1       7.921  27.698  54.526  1.00  0.00     0.169 HD
HETATM    6  O   UNL     1       5.172  26.533  55.619  1.00  0.00    -0.267 OA
BRANCH   4   7
HETATM    7  C   UNL     1       7.242  28.520  56.285  1.00  0.00     0.037 A 
HETATM    8  C   UNL     1       8.063  28.297  57.385  1.00  0.00     0.049 A 
HETATM    9  C   UNL     1       8.053  29.225  58.415  1.00  0.00     0.118 A 
HETATM   10  N   UNL     1       7.304  30.347  58.413  1.00  0.00    -0.273 NA
HETATM   11  C   UNL     1       6.519  30.544  57.335  1.00  0.00     0.118 A 
HETATM   12  C   UNL     1       6.446  29.666  56.264  1.00  0.00     0.049 A 
ENDBRANCH   4   7
ENDBRANCH   2   3
BRANCH   2  13
HETATM   13  C   UNL     1       5.806  26.511  52.396  1.00  0.00    -0.021 A 
HETATM   14  C   UNL     1       5.355  25.682  51.361  1.00  0.00     0.012 A 
HETATM   15  C   UNL     1       4.899  26.235  50.163  1.00  0.00     0.001 A 
HETATM   16  C   UNL     1       4.892  27.619  49.993  1.00  0.00     0.000 A 
HETATM   17  C   UNL     1       5.336  28.451  51.020  1.00  0.00     0.001 A 
HETATM   18  C   UNL     1       5.794  27.902  52.218  1.00  0.00     0.012 A 
ENDBRANCH   2  13
BRANCH   1  19
HETATM   19  C   UNL     1       7.407  23.806  54.548  1.00  0.00    -0.002 A 
HETATM   20  C   UNL     1       7.692  22.455  54.289  1.00  0.00     0.078 A 
HETATM   21  C   UNL     1       8.273  21.649  55.269  1.00  0.00     0.037 A 
HETATM   22  C   UNL     1       8.537  22.174  56.532  1.00  0.00     0.003 A 
HETATM   23  C   UNL     1       8.241  23.508  56.807  1.00  0.00     0.001 A 
HETATM   24  C   UNL     1       7.683  24.322  55.817  1.00  0.00     0.014 A 
BRANCH  20  25
HETATM   25  O   UNL     1       7.545  21.904  53.042  1.00  0.00    -0.355 OA
HETATM   26  C   UNL     1       8.028  20.561  53.003  1.00  0.00     0.210 C 
ENDBRANCH  20  25
ENDBRANCH   1  19
TORSDOF 5
ENDMDL
MODEL 8
REMARK VINA RESULT:      -7.8      2.003      6.661
REMARK  5 active torsions:
REMARK  status: ('A' for Active; 'I' for Inactive)
REMARK    1  A    between atoms: O_2  and  C_3 
REMARK    2  A    between atoms: C_4  and  C_5 
REMARK    3  A    between atoms: C_6  and  C_7 
REMARK    4  A    between atoms: C_6  and  C_16 
REMARK       I    between atoms: C_7  and  N_8 
REMARK    5  A    between atoms: N_8  and  C_9 
ROOT
HETATM    1  C   UNL     1       6.455  27.781  53.202  1.00  0.00     0.032 C 
HETATM    2  C   UNL     1       6.808  26.987  54.235  1.00  0.00     0.043 C 
ENDROOT
BRANCH   2   3
HETATM    3  C   UNL     1       6.575  25.502  54.383  1.00  0.00     0.257 C 
HETATM    4  N   UNL     1       7.679  24.705  54.172  1.00  0.00    -0.323 N 
HETATM    5  H   UNL     1       8.537  25.165  53.907  1.00  0.00     0.169 HD
HETATM    6  O   UNL     1       5.457  25.098  54.693  1.00  0.00    -0.267 OA
BRANCH   4   7
HETATM    7  C   UNL     1       7.743  23.296  54.240  1.00  0.00     0.037 A 
HETATM    8  C   UNL     1       7.719  22.573  55.427  1.00  0.00     0.049 A 
HETATM    9  C   UNL     1       7.800  21.191  55.360  1.00  0.00     0.118 A 
HETATM   10  N   UNL     1       7.886  20.494  54.207  1.00  0.00    -0.273 NA
HETATM   11  C   UNL     1       7.904  21.217  53.069  1.00  0.00     0.118 A 
HETATM   12  C   UNL     1       7.846  22.602  53.034  1.00  0.00     0.049 A 
ENDBRANCH   4   7
ENDBRANCH   2   3
BRANCH   2  13
HETATM   13  C   UNL     1       7.418  27.701  55.380  1.00  0.00    -0.021 A 
HETATM   14  C   UNL     1       8.345  28.729  55.164  1.00  0.00     0.012 A 
HETATM   15  C   UNL     1       8.952  29.369  56.245  1.00  0.00     0.001 A 
HETATM   16  C   UNL     1       8.637  28.985  57.548  1.00  0.00     0.000 A 
HETATM   17  C   UNL     1       7.713  27.965  57.772  1.00  0.00     0.001 A 
HETATM   18  C   UNL     1       7.105  27.322  56.693  1.00  0.00     0.012 A 
ENDBRANCH   2  13
BRANCH   1  19
HETATM   19  C   UNL     1       5.788  27.418  51.948  1.00  0.00    -0.002 A 
HETATM   20  C   UNL     1       5.513  28.373  50.956  1.00  0.00     0.078 A 
HETATM   21  C   UNL     1       4.928  27.995  49.746  1.00  0.00     0.037 A 
HETATM   22  C   UNL     1       4.575  26.665  49.532  1.00  0.00     0.003 A 
HETATM   23  C   UNL     1       4.825  25.711  50.517  1.00  0.00     0.001 A 
HETATM   24  C   UNL     1       5.434  26.085  51.718  1.00  0.00     0.014 A 
BRANCH  20  25
HETATM   25  O   UNL     1       5.921  29.678  51.065  1.00  0.00    -0.355 OA
HETATM   26  C   UNL     1       5.392  30.482  50.010  1.00  0.00     0.210 C 
ENDBRANCH  20  25
ENDBRANCH   1  19
TORSDOF 5
ENDMDL
MODEL 9
REMARK VINA RESULT:      -7.7     10.359     13.622
REMARK  5 active torsions:
REMARK  status: ('A' for Active; 'I' for Inactive)
REMARK    1  A    between atoms: O_2  and  C_3 
REMARK    2  A    between atoms: C_4  and  C_5 
REMARK    3  A    between atoms: C_6  and  C_7 
REMARK    4  A    between atoms: C_6  and  C_16 
REMARK       I    between atoms: C_7  and  N_8 
REMARK    5  A    between atoms: N_8  and  C_9 
ROOT
HETATM    1  C   UNL     1       6.211  34.524  61.744  1.00  0.00     0.032 C 
HETATM    2  C   UNL     1       6.448  33.486  62.574  1.00  0.00     0.043 C 
ENDROOT
BRANCH   2   3
HETATM    3  C   UNL     1       5.862  33.246  63.946  1.00  0.00     0.257 C 
HETATM    4  N   UNL     1       6.283  34.115  64.930  1.00  0.00    -0.323 N 
HETATM    5  H   UNL     1       6.964  34.813  64.670  1.00  0.00     0.169 HD
HETATM    6  O   UNL     1       5.054  32.335  64.102  1.00  0.00    -0.267 OA
BRANCH   4   7
HETATM    7  C   UNL     1       5.902  34.117  66.289  1.00  0.00     0.037 A 
HETATM    8  C   UNL     1       4.588  34.002  66.729  1.00  0.00     0.049 A 
HETATM    9  C   UNL     1       4.345  34.029  68.093  1.00  0.00     0.118 A 
HETATM   10  N   UNL     1       5.309  34.146  69.031  1.00  0.00    -0.273 NA
HETATM   11  C   UNL     1       6.575  34.252  68.580  1.00  0.00     0.118 A 
HETATM   12  C   UNL     1       6.917  34.253  67.237  1.00  0.00     0.049 A 
ENDBRANCH   4   7
ENDBRANCH   2   3
BRANCH   2  13
HETATM   13  C   UNL     1       7.470  32.531  62.090  1.00  0.00    -0.021 A 
HETATM   14  C   UNL     1       7.886  31.466  62.899  1.00  0.00     0.012 A 
HETATM   15  C   UNL     1       8.883  30.594  62.459  1.00  0.00     0.001 A 
HETATM   16  C   UNL     1       9.469  30.781  61.207  1.00  0.00     0.000 A 
HETATM   17  C   UNL     1       9.057  31.837  60.394  1.00  0.00     0.001 A 
HETATM   18  C   UNL     1       8.062  32.712  60.833  1.00  0.00     0.012 A 
ENDBRANCH   2  13
BRANCH   1  19
HETATM   19  C   UNL     1       5.311  35.667  61.931  1.00  0.00    -0.002 A 
HETATM   20  C   UNL     1       3.922  35.547  61.762  1.00  0.00     0.078 A 
HETATM   21  C   UNL     1       3.080  36.635  62.000  1.00  0.00     0.037 A 
HETATM   22  C   UNL     1       3.622  37.864  62.369  1.00  0.00     0.003 A 
HETATM   23  C   UNL     1       5.001  38.000  62.521  1.00  0.00     0.001 A 
HETATM   24  C   UNL     1       5.842  36.904  62.308  1.00  0.00     0.014 A 
BRANCH  20  25
HETATM   25  O   UNL     1       3.320  34.345  61.494  1.00  0.00    -0.355 OA
HETATM   26  C   UNL     1       2.430  33.960  62.543  1.00  0.00     0.210 C 
ENDBRANCH  20  25
ENDBRANCH   1  19
TORSDOF 5
ENDMDL
MODEL 10
REMARK VINA RESULT:      -7.7      2.700      5.926
REMARK  5 active torsions:
REMARK  status: ('A' for Active; 'I' for Inactive)
REMARK    1  A    between atoms: O_2  and  C_3 
REMARK    2  A    between atoms: C_4  and  C_5 
REMARK    3  A    between atoms: C_6  and  C_7 
REMARK    4  A    between atoms: C_6  and  C_16 
REMARK       I    between atoms: C_7  and  N_8 
REMARK    5  A    between atoms: N_8  and  C_9 
ROOT
HETATM    1  C   UNL     1       5.682  26.124  50.999  1.00  0.00     0.032 C 
HETATM    2  C   UNL     1       5.980  26.293  52.305  1.00  0.00     0.043 C 
ENDROOT
BRANCH   2   3
HETATM    3  C   UNL     1       5.804  27.539  53.141  1.00  0.00     0.257 C 
HETATM    4  N   UNL     1       4.522  27.778  53.586  1.00  0.00    -0.323 N 
HETATM    5  H   UNL     1       3.805  27.130  53.297  1.00  0.00     0.169 HD
HETATM    6  O   UNL     1       6.783  28.238  53.389  1.00  0.00    -0.267 OA
BRANCH   4   7
HETATM    7  C   UNL     1       4.078  28.861  54.374  1.00  0.00     0.037 A 
HETATM    8  C   UNL     1       4.084  28.865  55.765  1.00  0.00     0.049 A 
HETATM    9  C   UNL     1       3.610  29.990  56.423  1.00  0.00     0.118 A 
HETATM   10  N   UNL     1       3.153  31.095  55.798  1.00  0.00    -0.273 NA
HETATM   11  C   UNL     1       3.161  31.068  54.450  1.00  0.00     0.118 A 
HETATM   12  C   UNL     1       3.598  29.986  53.702  1.00  0.00     0.049 A 
ENDBRANCH   4   7
ENDBRANCH   2   3
BRANCH   2  13
HETATM   13  C   UNL     1       6.634  25.128  52.943  1.00  0.00    -0.021 A 
HETATM   14  C   UNL     1       7.554  24.351  52.228  1.00  0.00     0.012 A 
HETATM   15  C   UNL     1       8.135  23.227  52.817  1.00  0.00     0.001 A 
HETATM   16  C   UNL     1       7.800  22.873  54.124  1.00  0.00     0.000 A 
HETATM   17  C   UNL     1       6.888  23.645  54.844  1.00  0.00     0.001 A 
HETATM   18  C   UNL     1       6.304  24.768  54.257  1.00  0.00     0.012 A 
ENDBRANCH   2  13
BRANCH   1  19
HETATM   19  C   UNL     1       5.085  27.078  50.060  1.00  0.00    -0.002 A 
HETATM   20  C   UNL     1       4.148  26.676  49.095  1.00  0.00     0.078 A 
HETATM   21  C   UNL     1       3.551  27.611  48.248  1.00  0.00     0.037 A 
HETATM   22  C   UNL     1       3.915  28.953  48.330  1.00  0.00     0.003 A 
HETATM   23  C   UNL     1       4.859  29.362  49.271  1.00  0.00     0.001 A 
HETATM   24  C   UNL     1       5.437  28.429  50.136  1.00  0.00     0.014 A 
BRANCH  20  25
HETATM   25  O   UNL     1       3.677  25.390  49.027  1.00  0.00    -0.355 OA
HETATM   26  C   UNL     1       3.050  25.128  47.771  1.00  0.00     0.210 C 
ENDBRANCH  20  25
ENDBRANCH   1  19
TORSDOF 5
ENDMDL
