MODEL 1
REMARK VINA RESULT:      -8.3      0.000      0.000
REMARK  6 active torsions:
REMARK  status: ('A' for Active; 'I' for Inactive)
REMARK    1  A    between atoms: C_4  and  C_5 
REMARK    2  A    between atoms: C_5  and  N_6 
REMARK    3  A    between atoms: C_5  and  C_22 
REMARK    4  A    between atoms: N_6  and  C_9 
REMARK    5  A    between atoms: C_9  and  C_10 
REMARK    6  A    between atoms: C_13  and  C_14 
REMARK       I    between atoms: C_22  and  N_23 
ROOT
HETATM    1  N   UNL     1       6.026  28.676  53.592  1.00  0.00    -0.054 N 
HETATM    2  H   UNL     1       5.877  29.652  53.323  1.00  0.00     0.278 HD
HETATM    3  H   UNL     1       7.025  28.574  53.811  1.00  0.00     0.278 HD
ENDROOT
BRANCH   1   4
HETATM    4  C   UNL     1       5.274  28.361  54.867  1.00  0.00     0.310 C 
BRANCH   4   5
HETATM    5  C   UNL     1       6.055  27.460  55.799  1.00  0.00    -0.019 A 
HETATM    6  C   UNL     1       7.373  27.737  56.200  1.00  0.00     0.010 A 
HETATM    7  C   UNL     1       8.058  26.861  57.045  1.00  0.00     0.001 A 
HETATM    8  C   UNL     1       7.449  25.688  57.485  1.00  0.00     0.000 A 
HETATM    9  C   UNL     1       6.150  25.389  57.085  1.00  0.00     0.001 A 
HETATM   10  C   UNL     1       5.456  26.267  56.254  1.00  0.00     0.010 A 
ENDBRANCH   4   5
BRANCH   4  11
HETATM   11  C   UNL     1       4.703  29.661  55.483  1.00  0.00     0.251 C 
HETATM   12  N   UNL     1       5.303  30.841  55.159  1.00  0.00    -0.368 N 
HETATM   13  H   UNL     1       6.020  30.953  54.450  1.00  0.00     0.159 HD
HETATM   14  H   UNL     1       4.933  31.694  55.569  1.00  0.00     0.159 HD
HETATM   15  O   UNL     1       3.792  29.624  56.309  1.00  0.00    -0.271 OA
ENDBRANCH   4  11
ENDBRANCH   1   4
BRANCH   1  16
HETATM   16  C   UNL     1       5.773  27.809  52.405  1.00  0.00     0.272 C 
BRANCH  16  17
HETATM   17  C   UNL     1       6.273  26.419  52.701  1.00  0.00    -0.033 A 
HETATM   18  C   UNL     1       5.373  25.352  52.806  1.00  0.00     0.010 A 
HETATM   19  C   UNL     1       5.818  24.083  53.194  1.00  0.00     0.013 A 
HETATM   20  C   UNL     1       7.171  23.840  53.484  1.00  0.00    -0.025 A 
HETATM   21  C   UNL     1       8.065  24.915  53.354  1.00  0.00     0.013 A 
HETATM   22  C   UNL     1       7.627  26.189  52.976  1.00  0.00     0.010 A 
BRANCH  20  23
HETATM   23  C   UNL     1       7.634  22.508  53.915  1.00  0.00    -0.008 A 
HETATM   24  C   UNL     1       8.038  21.532  53.001  1.00  0.00     0.128 A 
HETATM   25  N   UNL     1       8.455  20.286  53.327  1.00  0.00    -0.272 NA
HETATM   26  C   UNL     1       8.484  19.980  54.640  1.00  0.00     0.116 A 
HETATM   27  C   UNL     1       8.112  20.864  55.637  1.00  0.00     0.020 A 
HETATM   28  C   UNL     1       7.682  22.139  55.265  1.00  0.00     0.015 A 
ENDBRANCH  20  23
ENDBRANCH  16  17
ENDBRANCH   1  16
TORSDOF 6
ENDMDL
MODEL 2
REMARK VINA RESULT:      -8.1      2.114      2.930
REMARK  6 active torsions:
REMARK  status: ('A' for Active; 'I' for Inactive)
REMARK    1  A    between atoms: C_4  and  C_5 
REMARK    2  A    between atoms: C_5  and  N_6 
REMARK    3  A    between atoms: C_5  and  C_22 
REMARK    4  A    between atoms: N_6  and  C_9 
REMARK    5  A    between atoms: C_9  and  C_10 
REMARK    6  A    between atoms: C_13  and  C_14 
REMARK       I    between atoms: C_22  and  N_23 
ROOT
HETATM    1  N   UNL     1       6.670  29.026  54.756  1.00  0.00    -0.054 N 
HETATM    2  H   UNL     1       6.455  29.962  54.401  1.00  0.00     0.278 HD
HETATM    3  H   UNL     1       7.599  28.775  54.395  1.00  0.00     0.278 HD
ENDROOT
BRANCH   1   4
HETATM    4  C   UNL     1       6.787  29.048  56.263  1.00  0.00     0.310 C 
BRANCH   4   5
HETATM    5  C   UNL     1       8.161  29.474  56.737  1.00  0.00    -0.019 A 
HETATM    6  C   UNL     1       8.384  30.065  57.992  1.00  0.00     0.010 A 
HETATM    7  C   UNL     1       9.668  30.461  58.372  1.00  0.00     0.001 A 
HETATM    8  C   UNL     1      10.742  30.295  57.501  1.00  0.00     0.000 A 
HETATM    9  C   UNL     1      10.538  29.726  56.249  1.00  0.00     0.001 A 
HETATM   10  C   UNL     1       9.260  29.315  55.869  1.00  0.00     0.010 A 
ENDBRANCH   4   5
BRANCH   4  11
HETATM   11  C   UNL     1       5.583  29.799  56.881  1.00  0.00     0.251 C 
HETATM   12  N   UNL     1       4.778  29.117  57.745  1.00  0.00    -0.368 N 
HETATM   13  H   UNL     1       4.972  28.192  58.112  1.00  0.00     0.159 HD
HETATM   14  H   UNL     1       3.983  29.606  58.145  1.00  0.00     0.159 HD
HETATM   15  O   UNL     1       5.307  30.947  56.537  1.00  0.00    -0.271 OA
ENDBRANCH   4  11
ENDBRANCH   1   4
BRANCH   1  16
HETATM   16  C   UNL     1       5.714  28.055  54.148  1.00  0.00     0.272 C 
BRANCH  16  17
HETATM   17  C   UNL     1       6.308  26.673  54.228  1.00  0.00    -0.033 A 
HETATM   18  C   UNL     1       7.157  26.210  53.216  1.00  0.00     0.010 A 
HETATM   19  C   UNL     1       7.618  24.889  53.226  1.00  0.00     0.013 A 
HETATM   20  C   UNL     1       7.252  23.994  54.245  1.00  0.00    -0.025 A 
HETATM   21  C   UNL     1       6.417  24.479  55.265  1.00  0.00     0.013 A 
HETATM   22  C   UNL     1       5.944  25.796  55.257  1.00  0.00     0.010 A 
BRANCH  20  23
HETATM   23  C   UNL     1       7.721  22.596  54.241  1.00  0.00    -0.008 A 
HETATM   24  C   UNL     1       7.865  21.859  55.419  1.00  0.00     0.128 A 
HETATM   25  N   UNL     1       8.308  20.581  55.487  1.00  0.00    -0.272 NA
HETATM   26  C   UNL     1       8.621  19.984  54.319  1.00  0.00     0.116 A 
HETATM   27  C   UNL     1       8.514  20.610  53.091  1.00  0.00     0.020 A 
HETATM   28  C   UNL     1       8.060  21.930  53.056  1.00  0.00     0.015 A 
ENDBRANCH  20  23
ENDBRANCH  16  17
ENDBRANCH   1  16
TORSDOF 6
ENDMDL
MODEL 3
REMARK VINA RESULT:      -8.1      4.125      5.059
REMARK  6 active torsions:
REMARK  status: ('A' for Active; 'I' for Inactive)
REMARK    1  A    between atoms: C_4  and  C_5 
REMARK    2  A    between atoms: C_5  and  N_6 
REMARK    3  A    between atoms: C_5  and  C_22 
REMARK    4  A    between atoms: N_6  and  C_9 
REMARK    5  A    between atoms: C_9  and  C_10 
REMARK    6  A    between atoms: C_13  and  C_14 
REMARK       I    between atoms: C_22  and  N_23 
ROOT
HETATM    1  N   UNL     1       8.189  29.223  58.176  1.00  0.00    -0.054 N 
HETATM    2  H   UNL     1       9.011  28.629  58.031  1.00  0.00     0.278 HD
HETATM    3  H   UNL     1       7.713  28.875  59.018  1.00  0.00     0.278 HD
ENDROOT
BRANCH   1   4
HETATM    4  C   UNL     1       8.613  30.643  58.480  1.00  0.00     0.310 C 
BRANCH   4   5
HETATM    5  C   UNL     1       8.306  31.053  59.904  1.00  0.00    -0.019 A 
HETATM    6  C   UNL     1       7.319  31.998  60.229  1.00  0.00     0.010 A 
HETATM    7  C   UNL     1       7.089  32.359  61.558  1.00  0.00     0.001 A 
HETATM    8  C   UNL     1       7.854  31.801  62.580  1.00  0.00     0.000 A 
HETATM    9  C   UNL     1       8.847  30.876  62.276  1.00  0.00     0.001 A 
HETATM   10  C   UNL     1       9.071  30.500  60.952  1.00  0.00     0.010 A 
ENDBRANCH   4   5
BRANCH   4  11
HETATM   11  C   UNL     1      10.063  30.882  57.992  1.00  0.00     0.251 C 
HETATM   12  N   UNL     1      10.735  29.831  57.442  1.00  0.00    -0.368 N 
HETATM   13  H   UNL     1      10.323  28.933  57.214  1.00  0.00     0.159 HD
HETATM   14  H   UNL     1      11.689  29.985  57.128  1.00  0.00     0.159 HD
HETATM   15  O   UNL     1      10.623  31.962  58.175  1.00  0.00    -0.271 OA
ENDBRANCH   4  11
ENDBRANCH   1   4
BRANCH   1  16
HETATM   16  C   UNL     1       7.240  29.009  57.046  1.00  0.00     0.272 C 
BRANCH  16  17
HETATM   17  C   UNL     1       7.463  27.633  56.476  1.00  0.00    -0.033 A 
HETATM   18  C   UNL     1       7.130  27.357  55.144  1.00  0.00     0.010 A 
HETATM   19  C   UNL     1       7.227  26.054  54.644  1.00  0.00     0.013 A 
HETATM   20  C   UNL     1       7.663  24.991  55.452  1.00  0.00    -0.025 A 
HETATM   21  C   UNL     1       8.014  25.286  56.779  1.00  0.00     0.013 A 
HETATM   22  C   UNL     1       7.911  26.585  57.290  1.00  0.00     0.010 A 
BRANCH  20  23
HETATM   23  C   UNL     1       7.742  23.614  54.928  1.00  0.00    -0.008 A 
HETATM   24  C   UNL     1       7.712  22.499  55.768  1.00  0.00     0.128 A 
HETATM   25  N   UNL     1       7.799  21.212  55.355  1.00  0.00    -0.272 NA
HETATM   26  C   UNL     1       7.916  21.007  54.028  1.00  0.00     0.116 A 
HETATM   27  C   UNL     1       7.952  22.031  53.099  1.00  0.00     0.020 A 
HETATM   28  C   UNL     1       7.866  23.346  53.559  1.00  0.00     0.015 A 
ENDBRANCH  20  23
ENDBRANCH  16  17
ENDBRANCH   1  16
TORSDOF 6
ENDMDL
MODEL 4
REMARK VINA RESULT:      -7.9      3.306      5.388
REMARK  6 active torsions:
REMARK  status: ('A' for Active; 'I' for Inactive)
REMARK    1  A    between atoms: C_4  and  C_5 
REMARK    2  A    between atoms: C_5  and  N_6 
REMARK    3  A    between atoms: C_5  and  C_22 
REMARK    4  A    between atoms: N_6  and  C_9 
REMARK    5  A    between atoms: C_9  and  C_10 
REMARK    6  A    between atoms: C_13  and  C_14 
REMARK       I    between atoms: C_22  and  N_23 
ROOT
HETATM    1  N   UNL     1       4.667  26.885  51.360  1.00  0.00    -0.054 N 
HETATM    2  H   UNL     1       3.885  26.575  51.943  1.00  0.00     0.278 HD
HETATM    3  H   UNL     1       4.981  26.068  50.821  1.00  0.00     0.278 HD
ENDROOT
BRANCH   1   4
HETATM    4  C   UNL     1       4.197  27.908  50.350  1.00  0.00     0.310 C 
BRANCH   4   5
HETATM    5  C   UNL     1       3.553  27.278  49.134  1.00  0.00    -0.019 A 
HETATM    6  C   UNL     1       3.852  25.975  48.702  1.00  0.00     0.010 A 
HETATM    7  C   UNL     1       3.246  25.448  47.560  1.00  0.00     0.001 A 
HETATM    8  C   UNL     1       2.352  26.218  46.819  1.00  0.00     0.000 A 
HETATM    9  C   UNL     1       2.056  27.516  47.222  1.00  0.00     0.001 A 
HETATM   10  C   UNL     1       2.646  28.042  48.371  1.00  0.00     0.010 A 
ENDBRANCH   4   5
BRANCH   4  11
HETATM   11  C   UNL     1       3.387  29.022  51.058  1.00  0.00     0.251 C 
HETATM   12  N   UNL     1       2.362  28.648  51.875  1.00  0.00    -0.368 N 
HETATM   13  H   UNL     1       2.161  27.695  52.155  1.00  0.00     0.159 HD
HETATM   14  H   UNL     1       1.826  29.379  52.335  1.00  0.00     0.159 HD
HETATM   15  O   UNL     1       3.604  30.210  50.822  1.00  0.00    -0.271 OA
ENDBRANCH   4  11
ENDBRANCH   1   4
BRANCH   1  16
HETATM   16  C   UNL     1       5.806  27.258  52.247  1.00  0.00     0.272 C 
BRANCH  16  17
HETATM   17  C   UNL     1       6.419  26.001  52.806  1.00  0.00    -0.033 A 
HETATM   18  C   UNL     1       7.268  25.217  52.015  1.00  0.00     0.010 A 
HETATM   19  C   UNL     1       7.747  23.990  52.488  1.00  0.00     0.013 A 
HETATM   20  C   UNL     1       7.402  23.513  53.763  1.00  0.00    -0.025 A 
HETATM   21  C   UNL     1       6.568  24.320  54.554  1.00  0.00     0.013 A 
HETATM   22  C   UNL     1       6.076  25.544  54.084  1.00  0.00     0.010 A 
BRANCH  20  23
HETATM   23  C   UNL     1       7.890  22.210  54.250  1.00  0.00    -0.008 A 
HETATM   24  C   UNL     1       8.308  21.202  53.379  1.00  0.00     0.128 A 
HETATM   25  N   UNL     1       8.749  19.978  53.758  1.00  0.00    -0.272 NA
HETATM   26  C   UNL     1       8.790  19.732  55.083  1.00  0.00     0.116 A 
HETATM   27  C   UNL     1       8.407  20.653  56.041  1.00  0.00     0.020 A 
HETATM   28  C   UNL     1       7.952  21.903  55.616  1.00  0.00     0.015 A 
ENDBRANCH  20  23
ENDBRANCH  16  17
ENDBRANCH   1  16
TORSDOF 6
ENDMDL
MODEL 5
REMARK VINA RESULT:      -7.6      3.137      6.645
REMARK  6 active torsions:
REMARK  status: ('A' for Active; 'I' for Inactive)
REMARK    1  A    between atoms: C_4  and  C_5 
REMARK    2  A    between atoms: C_5  and  N_6 
REMARK    3  A    between atoms: C_5  and  C_22 
REMARK    4  A    between atoms: N_6  and  C_9 
REMARK    5  A    between atoms: C_9  and  C_10 
REMARK    6  A    between atoms: C_13  and  C_14 
REMARK       I    between atoms: C_22  and  N_23 
ROOT
HETATM    1  N   UNL     1       7.127  24.927  55.580  1.00  0.00    -0.054 N 
HETATM    2  H   UNL     1       7.620  25.640  56.125  1.00  0.00     0.278 HD
HETATM    3  H   UNL     1       7.505  24.966  54.625  1.00  0.00     0.278 HD
ENDROOT
BRANCH   1   4
HETATM    4  C   UNL     1       7.444  23.546  56.110  1.00  0.00     0.310 C 
BRANCH   4   5
HETATM    5  C   UNL     1       7.705  22.542  55.008  1.00  0.00    -0.019 A 
HETATM    6  C   UNL     1       7.777  21.158  55.239  1.00  0.00     0.010 A 
HETATM    7  C   UNL     1       8.042  20.275  54.191  1.00  0.00     0.001 A 
HETATM    8  C   UNL     1       8.262  20.758  52.903  1.00  0.00     0.000 A 
HETATM    9  C   UNL     1       8.212  22.127  52.658  1.00  0.00     0.001 A 
HETATM   10  C   UNL     1       7.932  23.012  53.698  1.00  0.00     0.010 A 
ENDBRANCH   4   5
BRANCH   4  11
HETATM   11  C   UNL     1       8.513  23.636  57.227  1.00  0.00     0.251 C 
HETATM   12  N   UNL     1       8.553  22.640  58.156  1.00  0.00    -0.368 N 
HETATM   13  H   UNL     1       8.019  21.779  58.109  1.00  0.00     0.159 HD
HETATM   14  H   UNL     1       9.249  22.701  58.894  1.00  0.00     0.159 HD
HETATM   15  O   UNL     1       9.245  24.619  57.325  1.00  0.00    -0.271 OA
ENDBRANCH   4  11
ENDBRANCH   1   4
BRANCH   1  16
HETATM   16  C   UNL     1       5.691  25.316  55.473  1.00  0.00     0.272 C 
BRANCH  16  17
HETATM   17  C   UNL     1       5.424  25.808  54.075  1.00  0.00    -0.033 A 
HETATM   18  C   UNL     1       4.992  24.918  53.084  1.00  0.00     0.010 A 
HETATM   19  C   UNL     1       4.853  25.345  51.758  1.00  0.00     0.013 A 
HETATM   20  C   UNL     1       5.133  26.669  51.383  1.00  0.00    -0.025 A 
HETATM   21  C   UNL     1       5.545  27.555  52.392  1.00  0.00     0.013 A 
HETATM   22  C   UNL     1       5.696  27.135  53.718  1.00  0.00     0.010 A 
BRANCH  20  23
HETATM   23  C   UNL     1       5.008  27.110  49.981  1.00  0.00    -0.008 A 
HETATM   24  C   UNL     1       5.401  28.385  49.568  1.00  0.00     0.128 A 
HETATM   25  N   UNL     1       5.296  28.859  48.303  1.00  0.00    -0.272 NA
HETATM   26  C   UNL     1       4.778  28.022  47.382  1.00  0.00     0.116 A 
HETATM   27  C   UNL     1       4.358  26.736  47.672  1.00  0.00     0.020 A 
HETATM   28  C   UNL     1       4.475  26.281  48.986  1.00  0.00     0.015 A 
ENDBRANCH  20  23
ENDBRANCH  16  17
ENDBRANCH   1  16
TORSDOF 6
ENDMDL
MODEL 6
REMARK VINA RESULT:      -7.6      3.601      7.552
REMARK  6 active torsions:
REMARK  status: ('A' for Active; 'I' for Inactive)
REMARK    1  A    between atoms: C_4  and  C_5 
REMARK    2  A    between atoms: C_5  and  N_6 
REMARK    3  A    between atoms: C_5  and  C_22 
REMARK    4  A    between atoms: N_6  and  C_9 
REMARK    5  A    between atoms: C_9  and  C_10 
REMARK    6  A    between atoms: C_13  and  C_14 
REMARK       I    between atoms: C_22  and  N_23 
ROOT
HETATM    1  N   UNL     1       6.597  27.146  54.453  1.00  0.00    -0.054 N 
HETATM    2  H   UNL     1       5.757  27.731  54.465  1.00  0.00     0.278 HD
HETATM    3  H   UNL     1       6.602  26.611  55.331  1.00  0.00     0.278 HD
ENDROOT
BRANCH   1   4
HETATM    4  C   UNL     1       6.517  26.131  53.334  1.00  0.00     0.310 C 
BRANCH   4   5
HETATM    5  C   UNL     1       7.044  24.771  53.739  1.00  0.00    -0.019 A 
HETATM    6  C   UNL     1       7.131  24.355  55.077  1.00  0.00     0.010 A 
HETATM    7  C   UNL     1       7.646  23.097  55.399  1.00  0.00     0.001 A 
HETATM    8  C   UNL     1       8.102  22.247  54.395  1.00  0.00     0.000 A 
HETATM    9  C   UNL     1       8.039  22.648  53.064  1.00  0.00     0.001 A 
HETATM   10  C   UNL     1       7.511  23.897  52.736  1.00  0.00     0.010 A 
ENDBRANCH   4   5
BRANCH   4  11
HETATM   11  C   UNL     1       5.110  26.160  52.688  1.00  0.00     0.251 C 
HETATM   12  N   UNL     1       4.159  25.320  53.187  1.00  0.00    -0.368 N 
HETATM   13  H   UNL     1       4.261  24.761  54.027  1.00  0.00     0.159 HD
HETATM   14  H   UNL     1       3.238  25.333  52.759  1.00  0.00     0.159 HD
HETATM   15  O   UNL     1       4.881  26.854  51.699  1.00  0.00    -0.271 OA
ENDBRANCH   4  11
ENDBRANCH   1   4
BRANCH   1  16
HETATM   16  C   UNL     1       7.796  28.032  54.503  1.00  0.00     0.272 C 
BRANCH  16  17
HETATM   17  C   UNL     1       7.879  28.662  55.867  1.00  0.00    -0.033 A 
HETATM   18  C   UNL     1       6.712  29.010  56.558  1.00  0.00     0.010 A 
HETATM   19  C   UNL     1       6.785  29.701  57.773  1.00  0.00     0.013 A 
HETATM   20  C   UNL     1       8.020  30.059  58.338  1.00  0.00    -0.025 A 
HETATM   21  C   UNL     1       9.183  29.684  57.645  1.00  0.00     0.013 A 
HETATM   22  C   UNL     1       9.119  29.002  56.424  1.00  0.00     0.010 A 
BRANCH  20  23
HETATM   23  C   UNL     1       8.093  30.806  59.607  1.00  0.00    -0.008 A 
HETATM   24  C   UNL     1       7.130  31.752  59.967  1.00  0.00     0.128 A 
HETATM   25  N   UNL     1       7.147  32.485  61.106  1.00  0.00    -0.272 NA
HETATM   26  C   UNL     1       8.175  32.268  61.951  1.00  0.00     0.116 A 
HETATM   27  C   UNL     1       9.184  31.355  61.705  1.00  0.00     0.020 A 
HETATM   28  C   UNL     1       9.139  30.620  60.519  1.00  0.00     0.015 A 
ENDBRANCH  20  23
ENDBRANCH  16  17
ENDBRANCH   1  16
TORSDOF 6
ENDMDL
MODEL 7
REMARK VINA RESULT:      -7.3      3.760      5.918
REMARK  6 active torsions:
REMARK  status: ('A' for Active; 'I' for Inactive)
REMARK    1  A    between atoms: C_4  and  C_5 
REMARK    2  A    between atoms: C_5  and  N_6 
REMARK    3  A    between atoms: C_5  and  C_22 
REMARK    4  A    between atoms: N_6  and  C_9 
REMARK    5  A    between atoms: C_9  and  C_10 
REMARK    6  A    between atoms: C_13  and  C_14 
REMARK       I    between atoms: C_22  and  N_23 
ROOT
HETATM    1  N   UNL     1       5.537  27.134  50.241  1.00  0.00    -0.054 N 
HETATM    2  H   UNL     1       5.781  26.168  50.004  1.00  0.00     0.278 HD
HETATM    3  H   UNL     1       6.342  27.719  49.981  1.00  0.00     0.278 HD
ENDROOT
BRANCH   1   4
HETATM    4  C   UNL     1       4.374  27.605  49.396  1.00  0.00     0.310 C 
BRANCH   4   5
HETATM    5  C   UNL     1       4.561  29.015  48.879  1.00  0.00    -0.019 A 
HETATM    6  C   UNL     1       4.508  29.339  47.512  1.00  0.00     0.010 A 
HETATM    7  C   UNL     1       4.709  30.653  47.084  1.00  0.00     0.001 A 
HETATM    8  C   UNL     1       4.988  31.658  48.007  1.00  0.00     0.000 A 
HETATM    9  C   UNL     1       5.060  31.354  49.363  1.00  0.00     0.001 A 
HETATM   10  C   UNL     1       4.845  30.046  49.798  1.00  0.00     0.010 A 
ENDBRANCH   4   5
BRANCH   4  11
HETATM   11  C   UNL     1       4.008  26.529  48.346  1.00  0.00     0.251 C 
HETATM   12  N   UNL     1       2.789  25.925  48.446  1.00  0.00    -0.368 N 
HETATM   13  H   UNL     1       2.051  26.208  49.081  1.00  0.00     0.159 HD
HETATM   14  H   UNL     1       2.551  25.213  47.761  1.00  0.00     0.159 HD
HETATM   15  O   UNL     1       4.823  26.165  47.500  1.00  0.00    -0.271 OA
ENDBRANCH   4  11
ENDBRANCH   1   4
BRANCH   1  16
HETATM   16  C   UNL     1       5.408  27.244  51.723  1.00  0.00     0.272 C 
BRANCH  16  17
HETATM   17  C   UNL     1       6.053  26.040  52.359  1.00  0.00    -0.033 A 
HETATM   18  C   UNL     1       7.109  25.383  51.717  1.00  0.00     0.010 A 
HETATM   19  C   UNL     1       7.635  24.199  52.245  1.00  0.00     0.013 A 
HETATM   20  C   UNL     1       7.127  23.638  53.429  1.00  0.00    -0.025 A 
HETATM   21  C   UNL     1       6.082  24.320  54.073  1.00  0.00     0.013 A 
HETATM   22  C   UNL     1       5.545  25.500  53.547  1.00  0.00     0.010 A 
BRANCH  20  23
HETATM   23  C   UNL     1       7.668  22.378  53.972  1.00  0.00    -0.008 A 
HETATM   24  C   UNL     1       8.134  21.354  53.143  1.00  0.00     0.128 A 
HETATM   25  N   UNL     1       8.624  20.167  53.575  1.00  0.00    -0.272 NA
HETATM   26  C   UNL     1       8.666  19.976  54.909  1.00  0.00     0.116 A 
HETATM   27  C   UNL     1       8.237  20.918  55.827  1.00  0.00     0.020 A 
HETATM   28  C   UNL     1       7.732  22.129  55.348  1.00  0.00     0.015 A 
ENDBRANCH  20  23
ENDBRANCH  16  17
ENDBRANCH   1  16
TORSDOF 6
ENDMDL
MODEL 8
REMARK VINA RESULT:      -7.2      3.462      7.695
REMARK  6 active torsions:
REMARK  status: ('A' for Active; 'I' for Inactive)
REMARK    1  A    between atoms: C_4  and  C_5 
REMARK    2  A    between atoms: C_5  and  N_6 
REMARK    3  A    between atoms: C_5  and  C_22 
REMARK    4  A    between atoms: N_6  and  C_9 
REMARK    5  A    between atoms: C_9  and  C_10 
REMARK    6  A    between atoms: C_13  and  C_14 
REMARK       I    between atoms: C_22  and  N_23 
ROOT
HETATM    1  N   UNL     1       7.417  25.186  55.438  1.00  0.00    -0.054 N 
HETATM    2  H   UNL     1       7.329  24.440  56.134  1.00  0.00     0.278 HD
HETATM    3  H   UNL     1       8.264  25.718  55.676  1.00  0.00     0.278 HD
ENDROOT
BRANCH   1   4
HETATM    4  C   UNL     1       7.652  24.599  54.064  1.00  0.00     0.310 C 
BRANCH   4   5
HETATM    5  C   UNL     1       7.825  23.096  54.091  1.00  0.00    -0.019 A 
HETATM    6  C   UNL     1       8.063  22.335  52.935  1.00  0.00     0.010 A 
HETATM    7  C   UNL     1       8.193  20.946  53.011  1.00  0.00     0.001 A 
HETATM    8  C   UNL     1       8.067  20.295  54.236  1.00  0.00     0.000 A 
HETATM    9  C   UNL     1       7.815  21.030  55.390  1.00  0.00     0.001 A 
HETATM   10  C   UNL     1       7.699  22.418  55.322  1.00  0.00     0.010 A 
ENDBRANCH   4   5
BRANCH   4  11
HETATM   11  C   UNL     1       6.610  25.154  53.062  1.00  0.00     0.251 C 
HETATM   12  N   UNL     1       5.386  24.556  53.015  1.00  0.00    -0.368 N 
HETATM   13  H   UNL     1       5.057  23.853  53.668  1.00  0.00     0.159 HD
HETATM   14  H   UNL     1       4.703  24.915  52.353  1.00  0.00     0.159 HD
HETATM   15  O   UNL     1       6.905  26.048  52.271  1.00  0.00    -0.271 OA
ENDBRANCH   4  11
ENDBRANCH   1   4
BRANCH   1  16
HETATM   16  C   UNL     1       6.275  26.131  55.603  1.00  0.00     0.272 C 
BRANCH  16  17
HETATM   17  C   UNL     1       6.752  27.345  56.356  1.00  0.00    -0.033 A 
HETATM   18  C   UNL     1       8.097  27.462  56.728  1.00  0.00     0.010 A 
HETATM   19  C   UNL     1       8.522  28.530  57.526  1.00  0.00     0.013 A 
HETATM   20  C   UNL     1       7.623  29.513  57.971  1.00  0.00    -0.025 A 
HETATM   21  C   UNL     1       6.282  29.394  57.572  1.00  0.00     0.013 A 
HETATM   22  C   UNL     1       5.846  28.324  56.782  1.00  0.00     0.010 A 
BRANCH  20  23
HETATM   23  C   UNL     1       8.070  30.626  58.830  1.00  0.00    -0.008 A 
HETATM   24  C   UNL     1       9.391  31.077  58.831  1.00  0.00     0.128 A 
HETATM   25  N   UNL     1       9.871  32.078  59.608  1.00  0.00    -0.272 NA
HETATM   26  C   UNL     1       8.991  32.682  60.432  1.00  0.00     0.116 A 
HETATM   27  C   UNL     1       7.657  32.325  60.515  1.00  0.00     0.020 A 
HETATM   28  C   UNL     1       7.197  31.285  59.705  1.00  0.00     0.015 A 
ENDBRANCH  20  23
ENDBRANCH  16  17
ENDBRANCH   1  16
TORSDOF 6
ENDMDL
MODEL 9
REMARK VINA RESULT:      -7.2      6.018      7.546
REMARK  6 active torsions:
REMARK  status: ('A' for Active; 'I' for Inactive)
REMARK    1  A    between atoms: C_4  and  C_5 
REMARK    2  A    between atoms: C_5  and  N_6 
REMARK    3  A    between atoms: C_5  and  C_22 
REMARK    4  A    between atoms: N_6  and  C_9 
REMARK    5  A    between atoms: C_9  and  C_10 
REMARK    6  A    between atoms: C_13  and  C_14 
REMARK       I    between atoms: C_22  and  N_23 
ROOT
HETATM    1  N   UNL     1       6.869  31.527  60.523  1.00  0.00    -0.054 N 
HETATM    2  H   UNL     1       6.993  30.523  60.684  1.00  0.00     0.278 HD
HETATM    3  H   UNL     1       5.969  31.790  60.943  1.00  0.00     0.278 HD
ENDROOT
BRANCH   1   4
HETATM    4  C   UNL     1       7.932  32.313  61.258  1.00  0.00     0.310 C 
BRANCH   4   5
HETATM    5  C   UNL     1       7.384  33.057  62.458  1.00  0.00    -0.019 A 
HETATM    6  C   UNL     1       7.819  32.812  63.770  1.00  0.00     0.010 A 
HETATM    7  C   UNL     1       7.265  33.510  64.846  1.00  0.00     0.001 A 
HETATM    8  C   UNL     1       6.256  34.445  64.631  1.00  0.00     0.000 A 
HETATM    9  C   UNL     1       5.801  34.690  63.339  1.00  0.00     0.001 A 
HETATM   10  C   UNL     1       6.361  34.007  62.260  1.00  0.00     0.010 A 
ENDBRANCH   4   5
BRANCH   4  11
HETATM   11  C   UNL     1       9.175  31.425  61.508  1.00  0.00     0.251 C 
HETATM   12  N   UNL     1       8.972  30.133  61.894  1.00  0.00    -0.368 N 
HETATM   13  H   UNL     1       8.071  29.668  61.915  1.00  0.00     0.159 HD
HETATM   14  H   UNL     1       9.787  29.551  62.066  1.00  0.00     0.159 HD
HETATM   15  O   UNL     1      10.310  31.892  61.447  1.00  0.00    -0.271 OA
ENDBRANCH   4  11
ENDBRANCH   1   4
BRANCH   1  16
HETATM   16  C   UNL     1       6.724  31.761  59.056  1.00  0.00     0.272 C 
BRANCH  16  17
HETATM   17  C   UNL     1       6.996  30.470  58.329  1.00  0.00    -0.033 A 
HETATM   18  C   UNL     1       5.947  29.762  57.730  1.00  0.00     0.010 A 
HETATM   19  C   UNL     1       6.175  28.508  57.154  1.00  0.00     0.013 A 
HETATM   20  C   UNL     1       7.454  27.926  57.152  1.00  0.00    -0.025 A 
HETATM   21  C   UNL     1       8.500  28.657  57.737  1.00  0.00     0.013 A 
HETATM   22  C   UNL     1       8.279  29.908  58.323  1.00  0.00     0.010 A 
BRANCH  20  23
HETATM   23  C   UNL     1       7.687  26.593  56.564  1.00  0.00    -0.008 A 
HETATM   24  C   UNL     1       8.346  25.580  57.263  1.00  0.00     0.128 A 
HETATM   25  N   UNL     1       8.609  24.343  56.777  1.00  0.00    -0.272 NA
HETATM   26  C   UNL     1       8.189  24.083  55.522  1.00  0.00     0.116 A 
HETATM   27  C   UNL     1       7.523  25.005  54.735  1.00  0.00     0.020 A 
HETATM   28  C   UNL     1       7.273  26.272  55.265  1.00  0.00     0.015 A 
ENDBRANCH  20  23
ENDBRANCH  16  17
ENDBRANCH   1  16
TORSDOF 6
ENDMDL
MODEL 10
REMARK VINA RESULT:      -7.1      3.488      7.626
REMARK  6 active torsions:
REMARK  status: ('A' for Active; 'I' for Inactive)
REMARK    1  A    between atoms: C_4  and  C_5 
REMARK    2  A    between atoms: C_5  and  N_6 
REMARK    3  A    between atoms: C_5  and  C_22 
REMARK    4  A    between atoms: N_6  and  C_9 
REMARK    5  A    between atoms: C_9  and  C_10 
REMARK    6  A    between atoms: C_13  and  C_14 
REMARK       I    between atoms: C_22  and  N_23 
ROOT
HETATM    1  N   UNL     1       6.676  26.242  54.506  1.00  0.00    -0.054 N 
HETATM    2  H   UNL     1       5.772  26.718  54.573  1.00  0.00     0.278 HD
HETATM    3  H   UNL     1       6.793  25.700  55.372  1.00  0.00     0.278 HD
ENDROOT
BRANCH   1   4
HETATM    4  C   UNL     1       6.662  25.242  53.372  1.00  0.00     0.310 C 
BRANCH   4   5
HETATM    5  C   UNL     1       7.172  23.878  53.789  1.00  0.00    -0.019 A 
HETATM    6  C   UNL     1       7.580  22.902  52.864  1.00  0.00     0.010 A 
HETATM    7  C   UNL     1       8.022  21.651  53.300  1.00  0.00     0.001 A 
HETATM    8  C   UNL     1       8.042  21.347  54.658  1.00  0.00     0.000 A 
HETATM    9  C   UNL     1       7.627  22.295  55.588  1.00  0.00     0.001 A 
HETATM   10  C   UNL     1       7.199  23.552  55.160  1.00  0.00     0.010 A 
ENDBRANCH   4   5
BRANCH   4  11
HETATM   11  C   UNL     1       5.294  25.273  52.649  1.00  0.00     0.251 C 
HETATM   12  N   UNL     1       4.166  25.165  53.408  1.00  0.00    -0.368 N 
HETATM   13  H   UNL     1       4.144  25.186  54.422  1.00  0.00     0.159 HD
HETATM   14  H   UNL     1       3.268  25.178  52.934  1.00  0.00     0.159 HD
HETATM   15  O   UNL     1       5.226  25.306  51.422  1.00  0.00    -0.271 OA
ENDBRANCH   4  11
ENDBRANCH   1   4
BRANCH   1  16
HETATM   16  C   UNL     1       7.757  27.270  54.512  1.00  0.00     0.272 C 
BRANCH  16  17
HETATM   17  C   UNL     1       7.580  28.155  55.718  1.00  0.00    -0.033 A 
HETATM   18  C   UNL     1       6.675  29.223  55.683  1.00  0.00     0.010 A 
HETATM   19  C   UNL     1       6.590  30.117  56.756  1.00  0.00     0.013 A 
HETATM   20  C   UNL     1       7.400  29.971  57.895  1.00  0.00    -0.025 A 
HETATM   21  C   UNL     1       8.288  28.884  57.924  1.00  0.00     0.013 A 
HETATM   22  C   UNL     1       8.386  27.990  56.851  1.00  0.00     0.010 A 
BRANCH  20  23
HETATM   23  C   UNL     1       7.325  30.929  59.014  1.00  0.00    -0.008 A 
HETATM   24  C   UNL     1       8.347  31.045  59.959  1.00  0.00     0.128 A 
HETATM   25  N   UNL     1       8.333  31.888  61.019  1.00  0.00    -0.272 NA
HETATM   26  C   UNL     1       7.247  32.675  61.156  1.00  0.00     0.116 A 
HETATM   27  C   UNL     1       6.176  32.652  60.281  1.00  0.00     0.020 A 
HETATM   28  C   UNL     1       6.219  31.767  59.202  1.00  0.00     0.015 A 
ENDBRANCH  20  23
ENDBRANCH  16  17
ENDBRANCH   1  16
TORSDOF 6
ENDMDL
