MODEL 1
REMARK VINA RESULT:      -8.7      0.000      0.000
REMARK  7 active torsions:
REMARK  status: ('A' for Active; 'I' for Inactive)
REMARK    1  A    between atoms: N_3  and  C_4 
REMARK    2  A    between atoms: C_12  and  C_13 
REMARK       I    between atoms: C_13  and  N_14 
REMARK    3  A    between atoms: N_14  and  C_15 
REMARK    4  A    between atoms: C_15  and  C_16 
REMARK    5  A    between atoms: C_16  and  O_17 
REMARK    6  A    between atoms: C_16  and  C_18 
REMARK    7  A    between atoms: C_21  and  O_22 
ROOT
HETATM    1  C   UNL     1       5.366  27.864  55.476  1.00  0.00     0.255 C 
HETATM    2  N   UNL     1       5.937  27.273  54.377  1.00  0.00    -0.350 N 
HETATM    3  O   UNL     1       4.151  28.011  55.582  1.00  0.00    -0.268 OA
HETATM    4  H   UNL     1       6.908  26.997  54.418  1.00  0.00     0.163 HD
ENDROOT
BRANCH   2   5
HETATM    5  C   UNL     1       5.151  26.747  53.259  1.00  0.00     0.114 C 
HETATM    6  C   UNL     1       5.822  27.103  51.925  1.00  0.00     0.035 C 
BRANCH   5   7
HETATM    7  C   UNL     1       4.960  25.203  53.386  1.00  0.00     0.173 C 
BRANCH   7   8
HETATM    8  O   UNL     1       4.498  24.688  52.125  1.00  0.00    -0.389 OA
HETATM    9  H   UNL     1       3.967  25.385  51.705  1.00  0.00     0.210 HD
ENDBRANCH   7   8
BRANCH   7  10
HETATM   10  C   UNL     1       6.196  24.416  53.807  1.00  0.00    -0.028 A 
HETATM   11  C   UNL     1       6.536  24.231  55.155  1.00  0.00     0.012 A 
HETATM   12  C   UNL     1       7.657  23.474  55.516  1.00  0.00     0.037 A 
HETATM   13  C   UNL     1       8.458  22.870  54.547  1.00  0.00     0.068 A 
HETATM   14  C   UNL     1       8.123  23.027  53.205  1.00  0.00     0.037 A 
HETATM   15  C   UNL     1       7.002  23.785  52.844  1.00  0.00     0.012 A 
BRANCH  13  16
HETATM   16  O   UNL     1       9.517  22.159  55.036  1.00  0.00    -0.356 OA
HETATM   17  C   UNL     1       9.245  20.843  55.503  1.00  0.00     0.210 C 
ENDBRANCH  13  16
ENDBRANCH   7  10
ENDBRANCH   5   7
ENDBRANCH   2   5
BRANCH   1  18
HETATM   18  C   UNL     1       6.271  28.267  56.544  1.00  0.00     0.075 C 
HETATM   19  C   UNL     1       6.493  29.492  57.171  1.00  0.00     0.051 C 
HETATM   20  C   UNL     1       5.804  30.806  57.035  1.00  0.00     0.071 C 
HETATM   21  N   UNL     1       7.549  29.286  58.064  1.00  0.00    -0.220 N 
HETATM   22  N   UNL     1       7.866  27.964  58.158  1.00  0.00    -0.177 NA
HETATM   23  C   UNL     1       7.123  27.376  57.228  1.00  0.00     0.158 C 
BRANCH  21  24
HETATM   24  C   UNL     1       8.286  30.258  58.828  1.00  0.00     0.150 A 
HETATM   25  N   UNL     1       7.830  30.631  60.054  1.00  0.00    -0.241 NA
HETATM   26  C   UNL     1       8.538  31.566  60.726  1.00  0.00     0.119 A 
HETATM   27  C   UNL     1       9.693  32.155  60.243  1.00  0.00     0.019 A 
HETATM   28  C   UNL     1      10.152  31.767  58.992  1.00  0.00     0.005 A 
HETATM   29  C   UNL     1       9.441  30.812  58.269  1.00  0.00     0.052 A 
ENDBRANCH  21  24
ENDBRANCH   1  18
TORSDOF 7
ENDMDL
MODEL 2
REMARK VINA RESULT:      -8.6      2.777      7.694
REMARK  7 active torsions:
REMARK  status: ('A' for Active; 'I' for Inactive)
REMARK    1  A    between atoms: N_3  and  C_4 
REMARK    2  A    between atoms: C_12  and  C_13 
REMARK       I    between atoms: C_13  and  N_14 
REMARK    3  A    between atoms: N_14  and  C_15 
REMARK    4  A    between atoms: C_15  and  C_16 
REMARK    5  A    between atoms: C_16  and  O_17 
REMARK    6  A    between atoms: C_16  and  C_18 
REMARK    7  A    between atoms: C_21  and  O_22 
ROOT
HETATM    1  C   UNL     1       6.858  27.486  53.869  1.00  0.00     0.255 C 
HETATM    2  N   UNL     1       5.530  27.695  54.147  1.00  0.00    -0.350 N 
HETATM    3  O   UNL     1       7.685  28.392  53.918  1.00  0.00    -0.268 OA
HETATM    4  H   UNL     1       4.927  26.895  54.287  1.00  0.00     0.163 HD
ENDROOT
BRANCH   2   5
HETATM    5  C   UNL     1       4.998  28.997  54.552  1.00  0.00     0.114 C 
HETATM    6  C   UNL     1       3.769  29.354  53.704  1.00  0.00     0.035 C 
BRANCH   5   7
HETATM    7  C   UNL     1       4.642  29.011  56.071  1.00  0.00     0.173 C 
BRANCH   7   8
HETATM    8  O   UNL     1       4.057  27.746  56.423  1.00  0.00    -0.389 OA
HETATM    9  H   UNL     1       4.600  27.052  56.012  1.00  0.00     0.210 HD
ENDBRANCH   7   8
BRANCH   7  10
HETATM   10  C   UNL     1       5.804  29.287  57.020  1.00  0.00    -0.028 A 
HETATM   11  C   UNL     1       6.755  28.306  57.336  1.00  0.00     0.012 A 
HETATM   12  C   UNL     1       7.832  28.595  58.182  1.00  0.00     0.037 A 
HETATM   13  C   UNL     1       7.999  29.871  58.720  1.00  0.00     0.068 A 
HETATM   14  C   UNL     1       7.076  30.862  58.401  1.00  0.00     0.037 A 
HETATM   15  C   UNL     1       5.998  30.572  57.555  1.00  0.00     0.012 A 
BRANCH  13  16
HETATM   16  O   UNL     1       9.093  30.018  59.527  1.00  0.00    -0.356 OA
HETATM   17  C   UNL     1       8.859  30.511  60.841  1.00  0.00     0.210 C 
ENDBRANCH  13  16
ENDBRANCH   7  10
ENDBRANCH   5   7
ENDBRANCH   2   5
BRANCH   1  18
HETATM   18  C   UNL     1       7.253  26.119  53.558  1.00  0.00     0.075 C 
HETATM   19  C   UNL     1       7.219  24.941  54.303  1.00  0.00     0.051 C 
HETATM   20  C   UNL     1       6.669  24.649  55.657  1.00  0.00     0.071 C 
HETATM   21  N   UNL     1       7.813  23.958  53.505  1.00  0.00    -0.220 N 
HETATM   22  N   UNL     1       8.042  24.418  52.243  1.00  0.00    -0.177 NA
HETATM   23  C   UNL     1       7.735  25.709  52.297  1.00  0.00     0.158 C 
BRANCH  21  24
HETATM   24  C   UNL     1       8.189  22.616  53.860  1.00  0.00     0.150 A 
HETATM   25  N   UNL     1       8.909  22.401  54.994  1.00  0.00    -0.241 NA
HETATM   26  C   UNL     1       9.265  21.127  55.276  1.00  0.00     0.119 A 
HETATM   27  C   UNL     1       8.936  20.040  54.485  1.00  0.00     0.019 A 
HETATM   28  C   UNL     1       8.202  20.269  53.331  1.00  0.00     0.005 A 
HETATM   29  C   UNL     1       7.825  21.571  53.006  1.00  0.00     0.052 A 
ENDBRANCH  21  24
ENDBRANCH   1  18
TORSDOF 7
ENDMDL
MODEL 3
REMARK VINA RESULT:      -8.4      4.679     10.309
REMARK  7 active torsions:
REMARK  status: ('A' for Active; 'I' for Inactive)
REMARK    1  A    between atoms: N_3  and  C_4 
REMARK    2  A    between atoms: C_12  and  C_13 
REMARK       I    between atoms: C_13  and  N_14 
REMARK    3  A    between atoms: N_14  and  C_15 
REMARK    4  A    between atoms: C_15  and  C_16 
REMARK    5  A    between atoms: C_16  and  O_17 
REMARK    6  A    between atoms: C_16  and  C_18 
REMARK    7  A    between atoms: C_21  and  O_22 
ROOT
HETATM    1  C   UNL     1       8.201  31.486  59.049  1.00  0.00     0.255 C 
HETATM    2  N   UNL     1       7.099  31.382  59.860  1.00  0.00    -0.350 N 
HETATM    3  O   UNL     1       9.006  32.406  59.156  1.00  0.00    -0.268 OA
HETATM    4  H   UNL     1       6.578  30.515  59.869  1.00  0.00     0.163 HD
ENDROOT
BRANCH   2   5
HETATM    5  C   UNL     1       6.808  32.334  60.933  1.00  0.00     0.114 C 
HETATM    6  C   UNL     1       5.587  33.189  60.566  1.00  0.00     0.035 C 
BRANCH   5   7
HETATM    7  C   UNL     1       6.580  31.599  62.290  1.00  0.00     0.173 C 
BRANCH   7   8
HETATM    8  O   UNL     1       7.706  30.744  62.550  1.00  0.00    -0.389 OA
HETATM    9  H   UNL     1       7.706  30.051  61.870  1.00  0.00     0.210 HD
ENDBRANCH   7   8
BRANCH   7  10
HETATM   10  C   UNL     1       6.365  32.499  63.502  1.00  0.00    -0.028 A 
HETATM   11  C   UNL     1       5.084  32.785  63.998  1.00  0.00     0.012 A 
HETATM   12  C   UNL     1       4.916  33.587  65.133  1.00  0.00     0.037 A 
HETATM   13  C   UNL     1       6.016  34.109  65.813  1.00  0.00     0.068 A 
HETATM   14  C   UNL     1       7.295  33.819  65.346  1.00  0.00     0.037 A 
HETATM   15  C   UNL     1       7.463  33.019  64.209  1.00  0.00     0.012 A 
BRANCH  13  16
HETATM   16  O   UNL     1       5.710  34.871  66.905  1.00  0.00    -0.356 OA
HETATM   17  C   UNL     1       4.856  34.282  67.878  1.00  0.00     0.210 C 
ENDBRANCH  13  16
ENDBRANCH   7  10
ENDBRANCH   5   7
ENDBRANCH   2   5
BRANCH   1  18
HETATM   18  C   UNL     1       8.400  30.418  58.078  1.00  0.00     0.075 C 
HETATM   19  C   UNL     1       7.529  29.777  57.199  1.00  0.00     0.051 C 
HETATM   20  C   UNL     1       6.098  30.033  56.870  1.00  0.00     0.071 C 
HETATM   21  N   UNL     1       8.274  28.769  56.578  1.00  0.00    -0.220 N 
HETATM   22  N   UNL     1       9.597  28.871  56.887  1.00  0.00    -0.177 NA
HETATM   23  C   UNL     1       9.653  29.832  57.802  1.00  0.00     0.158 C 
BRANCH  21  24
HETATM   24  C   UNL     1       7.817  27.708  55.721  1.00  0.00     0.150 A 
HETATM   25  N   UNL     1       7.458  26.515  56.267  1.00  0.00    -0.241 NA
HETATM   26  C   UNL     1       7.059  25.536  55.424  1.00  0.00     0.119 A 
HETATM   27  C   UNL     1       6.992  25.681  54.049  1.00  0.00     0.019 A 
HETATM   28  C   UNL     1       7.359  26.902  53.501  1.00  0.00     0.005 A 
HETATM   29  C   UNL     1       7.782  27.930  54.341  1.00  0.00     0.052 A 
ENDBRANCH  21  24
ENDBRANCH   1  18
TORSDOF 7
ENDMDL
MODEL 4
REMARK VINA RESULT:      -8.3      1.899      2.592
REMARK  7 active torsions:
REMARK  status: ('A' for Active; 'I' for Inactive)
REMARK    1  A    between atoms: N_3  and  C_4 
REMARK    2  A    between atoms: C_12  and  C_13 
REMARK       I    between atoms: C_13  and  N_14 
REMARK    3  A    between atoms: N_14  and  C_15 
REMARK    4  A    between atoms: C_15  and  C_16 
REMARK    5  A    between atoms: C_16  and  O_17 
REMARK    6  A    between atoms: C_16  and  C_18 
REMARK    7  A    between atoms: C_21  and  O_22 
ROOT
HETATM    1  C   UNL     1       5.394  29.382  55.902  1.00  0.00     0.255 C 
HETATM    2  N   UNL     1       6.249  29.080  54.871  1.00  0.00    -0.350 N 
HETATM    3  O   UNL     1       4.271  28.894  55.983  1.00  0.00    -0.268 OA
HETATM    4  H   UNL     1       7.222  29.345  54.947  1.00  0.00     0.163 HD
ENDROOT
BRANCH   2   5
HETATM    5  C   UNL     1       5.907  28.135  53.806  1.00  0.00     0.114 C 
HETATM    6  C   UNL     1       5.168  28.860  52.672  1.00  0.00     0.035 C 
BRANCH   5   7
HETATM    7  C   UNL     1       7.181  27.415  53.264  1.00  0.00     0.173 C 
BRANCH   7   8
HETATM    8  O   UNL     1       8.343  28.026  53.848  1.00  0.00    -0.389 OA
HETATM    9  H   UNL     1       9.080  27.402  53.746  1.00  0.00     0.210 HD
ENDBRANCH   7   8
BRANCH   7  10
HETATM   10  C   UNL     1       7.247  25.912  53.511  1.00  0.00    -0.028 A 
HETATM   11  C   UNL     1       7.720  25.019  52.538  1.00  0.00     0.012 A 
HETATM   12  C   UNL     1       7.803  23.647  52.803  1.00  0.00     0.037 A 
HETATM   13  C   UNL     1       7.435  23.132  54.046  1.00  0.00     0.068 A 
HETATM   14  C   UNL     1       6.982  24.006  55.029  1.00  0.00     0.037 A 
HETATM   15  C   UNL     1       6.897  25.379  54.764  1.00  0.00     0.012 A 
BRANCH  13  16
HETATM   16  O   UNL     1       7.568  21.777  54.170  1.00  0.00    -0.356 OA
HETATM   17  C   UNL     1       8.106  21.081  53.053  1.00  0.00     0.210 C 
ENDBRANCH  13  16
ENDBRANCH   7  10
ENDBRANCH   5   7
ENDBRANCH   2   5
BRANCH   1  18
HETATM   18  C   UNL     1       5.905  30.278  56.931  1.00  0.00     0.075 C 
HETATM   19  C   UNL     1       6.886  30.120  57.908  1.00  0.00     0.051 C 
HETATM   20  C   UNL     1       7.836  29.004  58.177  1.00  0.00     0.071 C 
HETATM   21  N   UNL     1       6.875  31.296  58.665  1.00  0.00    -0.220 N 
HETATM   22  N   UNL     1       6.073  32.241  58.098  1.00  0.00    -0.177 NA
HETATM   23  C   UNL     1       5.479  31.613  57.089  1.00  0.00     0.158 C 
BRANCH  21  24
HETATM   24  C   UNL     1       7.563  31.583  59.895  1.00  0.00     0.150 A 
HETATM   25  N   UNL     1       6.857  31.653  61.055  1.00  0.00    -0.241 NA
HETATM   26  C   UNL     1       7.538  31.951  62.185  1.00  0.00     0.119 A 
HETATM   27  C   UNL     1       8.901  32.182  62.226  1.00  0.00     0.019 A 
HETATM   28  C   UNL     1       9.614  32.108  61.038  1.00  0.00     0.005 A 
HETATM   29  C   UNL     1       8.942  31.811  59.854  1.00  0.00     0.052 A 
ENDBRANCH  21  24
ENDBRANCH   1  18
TORSDOF 7
ENDMDL
MODEL 5
REMARK VINA RESULT:      -8.3      3.124      7.414
REMARK  7 active torsions:
REMARK  status: ('A' for Active; 'I' for Inactive)
REMARK    1  A    between atoms: N_3  and  C_4 
REMARK    2  A    between atoms: C_12  and  C_13 
REMARK       I    between atoms: C_13  and  N_14 
REMARK    3  A    between atoms: N_14  and  C_15 
REMARK    4  A    between atoms: C_15  and  C_16 
REMARK    5  A    between atoms: C_16  and  O_17 
REMARK    6  A    between atoms: C_16  and  C_18 
REMARK    7  A    between atoms: C_21  and  O_22 
ROOT
HETATM    1  C   UNL     1       6.621  27.678  53.707  1.00  0.00     0.255 C 
HETATM    2  N   UNL     1       5.958  27.387  54.873  1.00  0.00    -0.350 N 
HETATM    3  O   UNL     1       7.846  27.708  53.643  1.00  0.00    -0.268 OA
HETATM    4  H   UNL     1       4.969  27.181  54.836  1.00  0.00     0.163 HD
ENDROOT
BRANCH   2   5
HETATM    5  C   UNL     1       6.651  27.061  56.121  1.00  0.00     0.114 C 
HETATM    6  C   UNL     1       6.246  28.048  57.225  1.00  0.00     0.035 C 
BRANCH   5   7
HETATM    7  C   UNL     1       6.356  25.593  56.560  1.00  0.00     0.173 C 
BRANCH   7   8
HETATM    8  O   UNL     1       4.944  25.348  56.445  1.00  0.00    -0.389 OA
HETATM    9  H   UNL     1       4.549  25.524  57.315  1.00  0.00     0.210 HD
ENDBRANCH   7   8
BRANCH   7  10
HETATM   10  C   UNL     1       7.100  24.510  55.786  1.00  0.00    -0.028 A 
HETATM   11  C   UNL     1       6.633  24.022  54.556  1.00  0.00     0.012 A 
HETATM   12  C   UNL     1       7.353  23.052  53.848  1.00  0.00     0.037 A 
HETATM   13  C   UNL     1       8.562  22.556  54.337  1.00  0.00     0.068 A 
HETATM   14  C   UNL     1       9.050  23.044  55.545  1.00  0.00     0.037 A 
HETATM   15  C   UNL     1       8.329  24.014  56.254  1.00  0.00     0.012 A 
BRANCH  13  16
HETATM   16  O   UNL     1       9.161  21.617  53.546  1.00  0.00    -0.356 OA
HETATM   17  C   UNL     1       8.316  20.624  52.978  1.00  0.00     0.210 C 
ENDBRANCH  13  16
ENDBRANCH   7  10
ENDBRANCH   5   7
ENDBRANCH   2   5
BRANCH   1  18
HETATM   18  C   UNL     1       5.797  27.903  52.527  1.00  0.00     0.075 C 
HETATM   19  C   UNL     1       5.124  27.031  51.674  1.00  0.00     0.051 C 
HETATM   20  C   UNL     1       4.927  25.555  51.732  1.00  0.00     0.071 C 
HETATM   21  N   UNL     1       4.573  27.823  50.662  1.00  0.00    -0.220 N 
HETATM   22  N   UNL     1       4.712  29.149  50.942  1.00  0.00    -0.177 NA
HETATM   23  C   UNL     1       5.467  29.183  52.033  1.00  0.00     0.158 C 
BRANCH  21  24
HETATM   24  C   UNL     1       3.935  27.410  49.440  1.00  0.00     0.150 A 
HETATM   25  N   UNL     1       2.665  27.820  49.178  1.00  0.00    -0.241 NA
HETATM   26  C   UNL     1       2.092  27.388  48.032  1.00  0.00     0.119 A 
HETATM   27  C   UNL     1       2.722  26.562  47.118  1.00  0.00     0.019 A 
HETATM   28  C   UNL     1       4.018  26.149  47.393  1.00  0.00     0.005 A 
HETATM   29  C   UNL     1       4.635  26.570  48.570  1.00  0.00     0.052 A 
ENDBRANCH  21  24
ENDBRANCH   1  18
TORSDOF 7
ENDMDL
MODEL 6
REMARK VINA RESULT:      -8.2      5.495      9.113
REMARK  7 active torsions:
REMARK  status: ('A' for Active; 'I' for Inactive)
REMARK    1  A    between atoms: N_3  and  C_4 
REMARK    2  A    between atoms: C_12  and  C_13 
REMARK       I    between atoms: C_13  and  N_14 
REMARK    3  A    between atoms: N_14  and  C_15 
REMARK    4  A    between atoms: C_15  and  C_16 
REMARK    5  A    between atoms: C_16  and  O_17 
REMARK    6  A    between atoms: C_16  and  C_18 
REMARK    7  A    between atoms: C_21  and  O_22 
ROOT
HETATM    1  C   UNL     1       4.939  27.252  50.639  1.00  0.00     0.255 C 
HETATM    2  N   UNL     1       4.833  26.002  51.195  1.00  0.00    -0.350 N 
HETATM    3  O   UNL     1       5.629  28.134  51.142  1.00  0.00    -0.268 OA
HETATM    4  H   UNL     1       4.421  25.256  50.650  1.00  0.00     0.163 HD
ENDROOT
BRANCH   2   5
HETATM    5  C   UNL     1       5.552  25.608  52.408  1.00  0.00     0.114 C 
HETATM    6  C   UNL     1       4.682  24.674  53.260  1.00  0.00     0.035 C 
BRANCH   5   7
HETATM    7  C   UNL     1       6.913  24.928  52.059  1.00  0.00     0.173 C 
BRANCH   7   8
HETATM    8  O   UNL     1       7.890  25.951  51.801  1.00  0.00    -0.389 OA
HETATM    9  H   UNL     1       7.411  26.735  51.487  1.00  0.00     0.210 HD
ENDBRANCH   7   8
BRANCH   7  10
HETATM   10  C   UNL     1       7.470  23.982  53.118  1.00  0.00    -0.028 A 
HETATM   11  C   UNL     1       7.658  22.615  52.866  1.00  0.00     0.012 A 
HETATM   12  C   UNL     1       8.204  21.773  53.843  1.00  0.00     0.037 A 
HETATM   13  C   UNL     1       8.591  22.274  55.087  1.00  0.00     0.068 A 
HETATM   14  C   UNL     1       8.430  23.632  55.345  1.00  0.00     0.037 A 
HETATM   15  C   UNL     1       7.882  24.473  54.368  1.00  0.00     0.012 A 
BRANCH  13  16
HETATM   16  O   UNL     1       9.111  21.346  55.945  1.00  0.00    -0.356 OA
HETATM   17  C   UNL     1       8.306  20.206  56.220  1.00  0.00     0.210 C 
ENDBRANCH  13  16
ENDBRANCH   7  10
ENDBRANCH   5   7
ENDBRANCH   2   5
BRANCH   1  18
HETATM   18  C   UNL     1       4.227  27.471  49.386  1.00  0.00     0.075 C 
HETATM   19  C   UNL     1       3.047  28.149  49.086  1.00  0.00     0.051 C 
HETATM   20  C   UNL     1       2.146  28.979  49.934  1.00  0.00     0.071 C 
HETATM   21  N   UNL     1       2.816  27.943  47.722  1.00  0.00    -0.220 N 
HETATM   22  N   UNL     1       3.881  27.334  47.127  1.00  0.00    -0.177 NA
HETATM   23  C   UNL     1       4.696  27.031  48.131  1.00  0.00     0.158 C 
BRANCH  21  24
HETATM   24  C   UNL     1       1.651  28.273  46.945  1.00  0.00     0.150 A 
HETATM   25  N   UNL     1       1.448  29.562  46.560  1.00  0.00    -0.241 NA
HETATM   26  C   UNL     1       0.328  29.834  45.854  1.00  0.00     0.119 A 
HETATM   27  C   UNL     1      -0.612  28.882  45.500  1.00  0.00     0.019 A 
HETATM   28  C   UNL     1      -0.396  27.570  45.897  1.00  0.00     0.005 A 
HETATM   29  C   UNL     1       0.745  27.256  46.633  1.00  0.00     0.052 A 
ENDBRANCH  21  24
ENDBRANCH   1  18
TORSDOF 7
ENDMDL
MODEL 7
REMARK VINA RESULT:      -8.2      5.959     10.822
REMARK  7 active torsions:
REMARK  status: ('A' for Active; 'I' for Inactive)
REMARK    1  A    between atoms: N_3  and  C_4 
REMARK    2  A    between atoms: C_12  and  C_13 
REMARK       I    between atoms: C_13  and  N_14 
REMARK    3  A    between atoms: N_14  and  C_15 
REMARK    4  A    between atoms: C_15  and  C_16 
REMARK    5  A    between atoms: C_16  and  O_17 
REMARK    6  A    between atoms: C_16  and  C_18 
REMARK    7  A    between atoms: C_21  and  O_22 
ROOT
HETATM    1  C   UNL     1       6.115  32.038  63.262  1.00  0.00     0.255 C 
HETATM    2  N   UNL     1       6.444  33.134  64.019  1.00  0.00    -0.350 N 
HETATM    3  O   UNL     1       5.005  31.515  63.318  1.00  0.00    -0.268 OA
HETATM    4  H   UNL     1       7.289  33.645  63.800  1.00  0.00     0.163 HD
ENDROOT
BRANCH   2   5
HETATM    5  C   UNL     1       5.499  33.786  64.928  1.00  0.00     0.114 C 
HETATM    6  C   UNL     1       6.169  34.061  66.281  1.00  0.00     0.035 C 
BRANCH   5   7
HETATM    7  C   UNL     1       4.945  35.106  64.308  1.00  0.00     0.173 C 
BRANCH   7   8
HETATM    8  O   UNL     1       6.045  35.991  64.038  1.00  0.00    -0.389 OA
HETATM    9  H   UNL     1       6.780  35.722  64.615  1.00  0.00     0.210 HD
ENDBRANCH   7   8
BRANCH   7  10
HETATM   10  C   UNL     1       4.128  34.945  63.030  1.00  0.00    -0.028 A 
HETATM   11  C   UNL     1       2.839  34.393  63.037  1.00  0.00     0.012 A 
HETATM   12  C   UNL     1       2.097  34.287  61.854  1.00  0.00     0.037 A 
HETATM   13  C   UNL     1       2.611  34.744  60.641  1.00  0.00     0.068 A 
HETATM   14  C   UNL     1       3.881  35.313  60.620  1.00  0.00     0.037 A 
HETATM   15  C   UNL     1       4.624  35.417  61.802  1.00  0.00     0.012 A 
BRANCH  13  16
HETATM   16  O   UNL     1       1.782  34.584  59.566  1.00  0.00    -0.356 OA
HETATM   17  C   UNL     1       1.125  35.750  59.084  1.00  0.00     0.210 C 
ENDBRANCH  13  16
ENDBRANCH   7  10
ENDBRANCH   5   7
ENDBRANCH   2   5
BRANCH   1  18
HETATM   18  C   UNL     1       7.135  31.547  62.345  1.00  0.00     0.075 C 
HETATM   19  C   UNL     1       7.256  31.612  60.958  1.00  0.00     0.051 C 
HETATM   20  C   UNL     1       6.426  32.300  59.928  1.00  0.00     0.071 C 
HETATM   21  N   UNL     1       8.406  30.886  60.633  1.00  0.00    -0.220 N 
HETATM   22  N   UNL     1       9.101  30.535  61.752  1.00  0.00    -0.177 NA
HETATM   23  C   UNL     1       8.320  30.905  62.760  1.00  0.00     0.158 C 
BRANCH  21  24
HETATM   24  C   UNL     1       8.887  30.492  59.336  1.00  0.00     0.150 A 
HETATM   25  N   UNL     1       8.330  29.418  58.715  1.00  0.00    -0.241 NA
HETATM   26  C   UNL     1       8.830  29.065  57.508  1.00  0.00     0.119 A 
HETATM   27  C   UNL     1       9.863  29.732  56.875  1.00  0.00     0.019 A 
HETATM   28  C   UNL     1      10.424  30.828  57.516  1.00  0.00     0.005 A 
HETATM   29  C   UNL     1       9.939  31.214  58.764  1.00  0.00     0.052 A 
ENDBRANCH  21  24
ENDBRANCH   1  18
TORSDOF 7
ENDMDL
MODEL 8
REMARK VINA RESULT:      -8.1      2.049      4.446
REMARK  7 active torsions:
REMARK  status: ('A' for Active; 'I' for Inactive)
REMARK    1  A    between atoms: N_3  and  C_4 
REMARK    2  A    between atoms: C_12  and  C_13 
REMARK       I    between atoms: C_13  and  N_14 
REMARK    3  A    between atoms: N_14  and  C_15 
REMARK    4  A    between atoms: C_15  and  C_16 
REMARK    5  A    between atoms: C_16  and  O_17 
REMARK    6  A    between atoms: C_16  and  C_18 
REMARK    7  A    between atoms: C_21  and  O_22 
ROOT
HETATM    1  C   UNL     1       7.698  27.823  55.228  1.00  0.00     0.255 C 
HETATM    2  N   UNL     1       7.343  26.514  55.437  1.00  0.00    -0.350 N 
HETATM    3  O   UNL     1       8.026  28.243  54.122  1.00  0.00    -0.268 OA
HETATM    4  H   UNL     1       6.895  26.260  56.307  1.00  0.00     0.163 HD
ENDROOT
BRANCH   2   5
HETATM    5  C   UNL     1       7.298  25.522  54.361  1.00  0.00     0.114 C 
HETATM    6  C   UNL     1       7.955  24.213  54.820  1.00  0.00     0.035 C 
BRANCH   5   7
HETATM    7  C   UNL     1       5.831  25.268  53.893  1.00  0.00     0.173 C 
BRANCH   7   8
HETATM    8  O   UNL     1       4.946  25.477  55.006  1.00  0.00    -0.389 OA
HETATM    9  H   UNL     1       4.816  24.616  55.438  1.00  0.00     0.210 HD
ENDBRANCH   7   8
BRANCH   7  10
HETATM   10  C   UNL     1       5.352  26.125  52.726  1.00  0.00    -0.028 A 
HETATM   11  C   UNL     1       5.470  25.699  51.394  1.00  0.00     0.012 A 
HETATM   12  C   UNL     1       4.991  26.490  50.343  1.00  0.00     0.037 A 
HETATM   13  C   UNL     1       4.368  27.713  50.590  1.00  0.00     0.068 A 
HETATM   14  C   UNL     1       4.225  28.141  51.907  1.00  0.00     0.037 A 
HETATM   15  C   UNL     1       4.706  27.351  52.959  1.00  0.00     0.012 A 
BRANCH  13  16
HETATM   16  O   UNL     1       3.945  28.381  49.475  1.00  0.00    -0.356 OA
HETATM   17  C   UNL     1       2.914  27.766  48.713  1.00  0.00     0.210 C 
ENDBRANCH  13  16
ENDBRANCH   7  10
ENDBRANCH   5   7
ENDBRANCH   2   5
BRANCH   1  18
HETATM   18  C   UNL     1       7.619  28.712  56.380  1.00  0.00     0.075 C 
HETATM   19  C   UNL     1       8.599  29.313  57.168  1.00  0.00     0.051 C 
HETATM   20  C   UNL     1      10.084  29.337  57.044  1.00  0.00     0.071 C 
HETATM   21  N   UNL     1       7.919  29.989  58.186  1.00  0.00    -0.220 N 
HETATM   22  N   UNL     1       6.575  29.992  57.965  1.00  0.00    -0.177 NA
HETATM   23  C   UNL     1       6.408  29.205  56.909  1.00  0.00     0.158 C 
BRANCH  21  24
HETATM   24  C   UNL     1       8.455  30.622  59.362  1.00  0.00     0.150 A 
HETATM   25  N   UNL     1       8.806  29.858  60.432  1.00  0.00    -0.241 NA
HETATM   26  C   UNL     1       9.280  30.496  61.526  1.00  0.00     0.119 A 
HETATM   27  C   UNL     1       9.432  31.868  61.615  1.00  0.00     0.019 A 
HETATM   28  C   UNL     1       9.073  32.639  60.519  1.00  0.00     0.005 A 
HETATM   29  C   UNL     1       8.572  32.015  59.377  1.00  0.00     0.052 A 
ENDBRANCH  21  24
ENDBRANCH   1  18
TORSDOF 7
ENDMDL
MODEL 9
REMARK VINA RESULT:      -7.9      4.974      9.185
REMARK  7 active torsions:
REMARK  status: ('A' for Active; 'I' for Inactive)
REMARK    1  A    between atoms: N_3  and  C_4 
REMARK    2  A    between atoms: C_12  and  C_13 
REMARK       I    between atoms: C_13  and  N_14 
REMARK    3  A    between atoms: N_14  and  C_15 
REMARK    4  A    between atoms: C_15  and  C_16 
REMARK    5  A    between atoms: C_16  and  O_17 
REMARK    6  A    between atoms: C_16  and  C_18 
REMARK    7  A    between atoms: C_21  and  O_22 
ROOT
HETATM    1  C   UNL     1       4.633  27.764  50.500  1.00  0.00     0.255 C 
HETATM    2  N   UNL     1       4.537  27.308  51.791  1.00  0.00    -0.350 N 
HETATM    3  O   UNL     1       5.707  27.836  49.911  1.00  0.00    -0.268 OA
HETATM    4  H   UNL     1       3.625  27.081  52.165  1.00  0.00     0.163 HD
ENDROOT
BRANCH   2   5
HETATM    5  C   UNL     1       5.695  26.846  52.559  1.00  0.00     0.114 C 
HETATM    6  C   UNL     1       6.369  28.029  53.267  1.00  0.00     0.035 C 
BRANCH   5   7
HETATM    7  C   UNL     1       5.284  25.748  53.589  1.00  0.00     0.173 C 
BRANCH   7   8
HETATM    8  O   UNL     1       4.049  25.149  53.160  1.00  0.00    -0.389 OA
HETATM    9  H   UNL     1       3.465  25.104  53.935  1.00  0.00     0.210 HD
ENDBRANCH   7   8
BRANCH   7  10
HETATM   10  C   UNL     1       6.306  24.640  53.818  1.00  0.00    -0.028 A 
HETATM   11  C   UNL     1       7.057  24.092  52.767  1.00  0.00     0.012 A 
HETATM   12  C   UNL     1       8.014  23.100  53.010  1.00  0.00     0.037 A 
HETATM   13  C   UNL     1       8.260  22.641  54.304  1.00  0.00     0.068 A 
HETATM   14  C   UNL     1       7.539  23.188  55.360  1.00  0.00     0.037 A 
HETATM   15  C   UNL     1       6.580  24.180  55.118  1.00  0.00     0.012 A 
BRANCH  13  16
HETATM   16  O   UNL     1       9.221  21.674  54.399  1.00  0.00    -0.356 OA
HETATM   17  C   UNL     1       9.214  20.876  55.577  1.00  0.00     0.210 C 
ENDBRANCH  13  16
ENDBRANCH   7  10
ENDBRANCH   5   7
ENDBRANCH   2   5
BRANCH   1  18
HETATM   18  C   UNL     1       3.383  28.114  49.838  1.00  0.00     0.075 C 
HETATM   19  C   UNL     1       2.824  27.720  48.624  1.00  0.00     0.051 C 
HETATM   20  C   UNL     1       3.266  26.714  47.617  1.00  0.00     0.071 C 
HETATM   21  N   UNL     1       1.645  28.459  48.480  1.00  0.00    -0.220 N 
HETATM   22  N   UNL     1       1.352  29.148  49.618  1.00  0.00    -0.177 NA
HETATM   23  C   UNL     1       2.407  28.961  50.403  1.00  0.00     0.158 C 
BRANCH  21  24
HETATM   24  C   UNL     1       0.783  28.566  47.333  1.00  0.00     0.150 A 
HETATM   25  N   UNL     1       0.060  27.484  46.937  1.00  0.00    -0.241 NA
HETATM   26  C   UNL     1      -0.718  27.619  45.839  1.00  0.00     0.119 A 
HETATM   27  C   UNL     1      -0.821  28.788  45.106  1.00  0.00     0.019 A 
HETATM   28  C   UNL     1      -0.079  29.887  45.517  1.00  0.00     0.005 A 
HETATM   29  C   UNL     1       0.738  29.779  46.640  1.00  0.00     0.052 A 
ENDBRANCH  21  24
ENDBRANCH   1  18
TORSDOF 7
ENDMDL
MODEL 10
REMARK VINA RESULT:      -7.9      3.395      5.539
REMARK  7 active torsions:
REMARK  status: ('A' for Active; 'I' for Inactive)
REMARK    1  A    between atoms: N_3  and  C_4 
REMARK    2  A    between atoms: C_12  and  C_13 
REMARK       I    between atoms: C_13  and  N_14 
REMARK    3  A    between atoms: N_14  and  C_15 
REMARK    4  A    between atoms: C_15  and  C_16 
REMARK    5  A    between atoms: C_16  and  O_17 
REMARK    6  A    between atoms: C_16  and  C_18 
REMARK    7  A    between atoms: C_21  and  O_22 
ROOT
HETATM    1  C   UNL     1       7.564  31.370  59.094  1.00  0.00     0.255 C 
HETATM    2  N   UNL     1       6.870  30.309  58.567  1.00  0.00    -0.350 N 
HETATM    3  O   UNL     1       8.641  31.738  58.635  1.00  0.00    -0.268 OA
HETATM    4  H   UNL     1       5.908  30.166  58.845  1.00  0.00     0.163 HD
ENDROOT
BRANCH   2   5
HETATM    5  C   UNL     1       7.337  29.553  57.404  1.00  0.00     0.114 C 
HETATM    6  C   UNL     1       8.119  28.313  57.857  1.00  0.00     0.035 C 
BRANCH   5   7
HETATM    7  C   UNL     1       6.145  29.147  56.482  1.00  0.00     0.173 C 
BRANCH   7   8
HETATM    8  O   UNL     1       6.042  30.098  55.409  1.00  0.00    -0.389 OA
HETATM    9  H   UNL     1       6.932  30.457  55.256  1.00  0.00     0.210 HD
ENDBRANCH   7   8
BRANCH   7  10
HETATM   10  C   UNL     1       6.219  27.746  55.884  1.00  0.00    -0.028 A 
HETATM   11  C   UNL     1       7.060  27.444  54.802  1.00  0.00     0.012 A 
HETATM   12  C   UNL     1       7.135  26.142  54.293  1.00  0.00     0.037 A 
HETATM   13  C   UNL     1       6.390  25.107  54.857  1.00  0.00     0.068 A 
HETATM   14  C   UNL     1       5.566  25.385  55.943  1.00  0.00     0.037 A 
HETATM   15  C   UNL     1       5.489  26.688  56.452  1.00  0.00     0.012 A 
BRANCH  13  16
HETATM   16  O   UNL     1       6.560  23.886  54.266  1.00  0.00    -0.356 OA
HETATM   17  C   UNL     1       7.364  22.943  54.963  1.00  0.00     0.210 C 
ENDBRANCH  13  16
ENDBRANCH   7  10
ENDBRANCH   5   7
ENDBRANCH   2   5
BRANCH   1  18
HETATM   18  C   UNL     1       6.934  32.075  60.203  1.00  0.00     0.075 C 
HETATM   19  C   UNL     1       7.325  32.279  61.525  1.00  0.00     0.051 C 
HETATM   20  C   UNL     1       8.581  31.930  62.245  1.00  0.00     0.071 C 
HETATM   21  N   UNL     1       6.269  32.958  62.142  1.00  0.00    -0.220 N 
HETATM   22  N   UNL     1       5.332  33.346  61.232  1.00  0.00    -0.177 NA
HETATM   23  C   UNL     1       5.723  32.788  60.092  1.00  0.00     0.158 C 
BRANCH  21  24
HETATM   24  C   UNL     1       6.081  33.255  63.537  1.00  0.00     0.150 A 
HETATM   25  N   UNL     1       4.822  33.272  64.053  1.00  0.00    -0.241 NA
HETATM   26  C   UNL     1       4.687  33.581  65.362  1.00  0.00     0.119 A 
HETATM   27  C   UNL     1       5.749  33.874  66.200  1.00  0.00     0.019 A 
HETATM   28  C   UNL     1       7.030  33.853  65.665  1.00  0.00     0.005 A 
HETATM   29  C   UNL     1       7.203  33.546  64.317  1.00  0.00     0.052 A 
ENDBRANCH  21  24
ENDBRANCH   1  18
TORSDOF 7
ENDMDL
