MODEL 1
REMARK VINA RESULT:     -10.3      0.000      0.000
REMARK  3 active torsions:
REMARK  status: ('A' for Active; 'I' for Inactive)
REMARK    1  A    between atoms: C_3  and  N_4 
REMARK       I    between atoms: N_4  and  C_5 
REMARK    2  A    between atoms: C_5  and  C_6 
REMARK    3  A    between atoms: C_17  and  O_18 
ROOT
HETATM    1  C   UNL     1       6.417  25.728  56.751  1.00  0.00     0.153 A 
HETATM    2  N   UNL     1       5.074  25.622  56.624  1.00  0.00    -0.168 NA
HETATM    3  N   UNL     1       4.617  26.866  56.881  1.00  0.00    -0.276 N 
HETATM    4  H   UNL     1       3.617  27.025  56.864  1.00  0.00     0.189 HD
HETATM    5  C   UNL     1       5.605  27.768  57.128  1.00  0.00     0.069 A 
HETATM    6  C   UNL     1       6.786  27.062  57.059  1.00  0.00     0.007 A 
HETATM    7  C   UNL     1       8.106  27.727  57.229  1.00  0.00     0.048 C 
HETATM    8  C   UNL     1       7.977  29.026  58.060  1.00  0.00     0.044 C 
HETATM    9  C   UNL     1       6.708  29.833  57.810  1.00  0.00    -0.043 A 
HETATM   10  C   UNL     1       5.515  29.192  57.405  1.00  0.00    -0.001 A 
HETATM   11  C   UNL     1       6.691  31.208  58.078  1.00  0.00     0.044 A 
HETATM   12  C   UNL     1       5.516  31.951  57.933  1.00  0.00     0.068 A 
HETATM   13  C   UNL     1       4.344  31.310  57.526  1.00  0.00     0.037 A 
HETATM   14  C   UNL     1       4.341  29.933  57.263  1.00  0.00     0.017 A 
ENDROOT
BRANCH   1  15
HETATM   15  C   UNL     1       7.308  24.566  56.548  1.00  0.00     0.277 C 
HETATM   16  N   UNL     1       6.927  23.818  55.448  1.00  0.00    -0.321 N 
HETATM   17  H   UNL     1       6.135  24.222  54.958  1.00  0.00     0.169 HD
HETATM   18  O   UNL     1       8.271  24.357  57.275  1.00  0.00    -0.266 OA
BRANCH  16  19
HETATM   19  C   UNL     1       7.520  22.647  54.935  1.00  0.00     0.043 A 
HETATM   20  C   UNL     1       7.905  22.612  53.576  1.00  0.00    -0.035 A 
HETATM   21  C   UNL     1       7.729  23.788  52.650  1.00  0.00     0.050 C 
HETATM   22  C   UNL     1       8.458  21.433  53.041  1.00  0.00     0.012 A 
HETATM   23  C   UNL     1       8.648  20.310  53.843  1.00  0.00     0.043 A 
HETATM   24  C   UNL     1       8.281  20.362  55.177  1.00  0.00     0.118 A 
HETATM   25  C   UNL     1       7.724  21.511  55.727  1.00  0.00     0.072 A 
HETATM   26  F   UNL     1       8.455  19.279  55.947  1.00  0.00    -0.206 F 
ENDBRANCH  16  19
ENDBRANCH   1  15
BRANCH  12  27
HETATM   27  O   UNL     1       5.646  33.282  58.220  1.00  0.00    -0.356 OA
HETATM   28  C   UNL     1       4.606  34.143  57.775  1.00  0.00     0.210 C 
ENDBRANCH  12  27
TORSDOF 3
ENDMDL
MODEL 2
REMARK VINA RESULT:     -10.3      6.102      8.734
REMARK  3 active torsions:
REMARK  status: ('A' for Active; 'I' for Inactive)
REMARK    1  A    between atoms: C_3  and  N_4 
REMARK       I    between atoms: N_4  and  C_5 
REMARK    2  A    between atoms: C_5  and  C_6 
REMARK    3  A    between atoms: C_17  and  O_18 
ROOT
HETATM    1  C   UNL     1       5.758  32.353  60.852  1.00  0.00     0.153 A 
HETATM    2  N   UNL     1       4.405  32.337  60.899  1.00  0.00    -0.168 NA
HETATM    3  N   UNL     1       4.114  32.706  62.165  1.00  0.00    -0.276 N 
HETATM    4  H   UNL     1       3.141  32.744  62.444  1.00  0.00     0.189 HD
HETATM    5  C   UNL     1       5.213  32.991  62.916  1.00  0.00     0.069 A 
HETATM    6  C   UNL     1       6.297  32.766  62.096  1.00  0.00     0.007 A 
HETATM    7  C   UNL     1       7.690  33.019  62.555  1.00  0.00     0.048 C 
HETATM    8  C   UNL     1       7.797  32.935  64.095  1.00  0.00     0.044 C 
HETATM    9  C   UNL     1       6.597  33.481  64.861  1.00  0.00    -0.043 A 
HETATM   10  C   UNL     1       5.304  33.450  64.291  1.00  0.00    -0.001 A 
HETATM   11  C   UNL     1       6.755  33.929  66.179  1.00  0.00     0.044 A 
HETATM   12  C   UNL     1       5.654  34.358  66.926  1.00  0.00     0.068 A 
HETATM   13  C   UNL     1       4.382  34.330  66.352  1.00  0.00     0.037 A 
HETATM   14  C   UNL     1       4.205  33.876  65.038  1.00  0.00     0.017 A 
ENDROOT
BRANCH   1  15
HETATM   15  C   UNL     1       6.492  32.002  59.618  1.00  0.00     0.277 C 
HETATM   16  N   UNL     1       7.311  30.903  59.807  1.00  0.00    -0.321 N 
HETATM   17  H   UNL     1       7.228  30.513  60.741  1.00  0.00     0.169 HD
HETATM   18  O   UNL     1       6.333  32.622  58.574  1.00  0.00    -0.266 OA
BRANCH  16  19
HETATM   19  C   UNL     1       8.161  30.271  58.878  1.00  0.00     0.043 A 
HETATM   20  C   UNL     1       9.454  30.800  58.662  1.00  0.00    -0.035 A 
HETATM   21  C   UNL     1       9.975  32.003  59.404  1.00  0.00     0.050 C 
HETATM   22  C   UNL     1      10.296  30.203  57.703  1.00  0.00     0.012 A 
HETATM   23  C   UNL     1       9.876  29.088  56.984  1.00  0.00     0.043 A 
HETATM   24  C   UNL     1       8.612  28.571  57.215  1.00  0.00     0.118 A 
HETATM   25  C   UNL     1       7.757  29.147  58.149  1.00  0.00     0.072 A 
HETATM   26  F   UNL     1       8.203  27.504  56.516  1.00  0.00    -0.206 F 
ENDBRANCH  16  19
ENDBRANCH   1  15
BRANCH  12  27
HETATM   27  O   UNL     1       5.955  34.775  68.194  1.00  0.00    -0.356 OA
HETATM   28  C   UNL     1       7.302  34.622  68.620  1.00  0.00     0.210 C 
ENDBRANCH  12  27
TORSDOF 3
ENDMDL
MODEL 3
REMARK VINA RESULT:     -10.1      3.682      8.892
REMARK  3 active torsions:
REMARK  status: ('A' for Active; 'I' for Inactive)
REMARK    1  A    between atoms: C_3  and  N_4 
REMARK       I    between atoms: N_4  and  C_5 
REMARK    2  A    between atoms: C_5  and  C_6 
REMARK    3  A    between atoms: C_17  and  O_18 
ROOT
HETATM    1  C   UNL     1       7.323  27.708  55.031  1.00  0.00     0.153 A 
HETATM    2  N   UNL     1       7.305  27.826  53.683  1.00  0.00    -0.168 NA
HETATM    3  N   UNL     1       7.504  26.567  53.238  1.00  0.00    -0.276 N 
HETATM    4  H   UNL     1       7.551  26.411  52.238  1.00  0.00     0.189 HD
HETATM    5  C   UNL     1       7.610  25.647  54.235  1.00  0.00     0.069 A 
HETATM    6  C   UNL     1       7.504  26.355  55.412  1.00  0.00     0.007 A 
HETATM    7  C   UNL     1       7.525  25.677  56.737  1.00  0.00     0.048 C 
HETATM    8  C   UNL     1       8.266  24.321  56.661  1.00  0.00     0.044 C 
HETATM    9  C   UNL     1       8.054  23.536  55.371  1.00  0.00    -0.043 A 
HETATM   10  C   UNL     1       7.788  24.208  54.155  1.00  0.00    -0.001 A 
HETATM   11  C   UNL     1       8.221  22.145  55.363  1.00  0.00     0.044 A 
HETATM   12  C   UNL     1       8.110  21.417  54.175  1.00  0.00     0.068 A 
HETATM   13  C   UNL     1       7.841  22.089  52.982  1.00  0.00     0.037 A 
HETATM   14  C   UNL     1       7.681  23.481  52.969  1.00  0.00     0.017 A 
ENDROOT
BRANCH   1  15
HETATM   15  C   UNL     1       7.139  28.880  55.913  1.00  0.00     0.277 C 
HETATM   16  N   UNL     1       8.216  29.050  56.765  1.00  0.00    -0.321 N 
HETATM   17  H   UNL     1       8.951  28.368  56.604  1.00  0.00     0.169 HD
HETATM   18  O   UNL     1       6.151  29.600  55.833  1.00  0.00    -0.266 OA
BRANCH  16  19
HETATM   19  C   UNL     1       8.411  30.045  57.744  1.00  0.00     0.043 A 
HETATM   20  C   UNL     1       9.715  30.548  57.960  1.00  0.00    -0.035 A 
HETATM   21  C   UNL     1      10.908  30.081  57.167  1.00  0.00     0.050 C 
HETATM   22  C   UNL     1       9.929  31.509  58.966  1.00  0.00     0.012 A 
HETATM   23  C   UNL     1       8.870  31.984  59.733  1.00  0.00     0.043 A 
HETATM   24  C   UNL     1       7.595  31.495  59.502  1.00  0.00     0.118 A 
HETATM   25  C   UNL     1       7.357  30.538  58.522  1.00  0.00     0.072 A 
HETATM   26  F   UNL     1       6.575  31.943  60.248  1.00  0.00    -0.206 F 
ENDBRANCH  16  19
ENDBRANCH   1  15
BRANCH  12  27
HETATM   27  O   UNL     1       8.289  20.068  54.317  1.00  0.00    -0.356 OA
HETATM   28  C   UNL     1       8.685  19.601  55.600  1.00  0.00     0.210 C 
ENDBRANCH  12  27
TORSDOF 3
ENDMDL
MODEL 4
REMARK VINA RESULT:      -9.9      6.161      8.607
REMARK  3 active torsions:
REMARK  status: ('A' for Active; 'I' for Inactive)
REMARK    1  A    between atoms: C_3  and  N_4 
REMARK       I    between atoms: N_4  and  C_5 
REMARK    2  A    between atoms: C_5  and  C_6 
REMARK    3  A    between atoms: C_17  and  O_18 
ROOT
HETATM    1  C   UNL     1       5.790  32.305  60.646  1.00  0.00     0.153 A 
HETATM    2  N   UNL     1       4.442  32.246  60.753  1.00  0.00    -0.168 NA
HETATM    3  N   UNL     1       4.196  32.581  62.037  1.00  0.00    -0.276 N 
HETATM    4  H   UNL     1       3.235  32.584  62.359  1.00  0.00     0.189 HD
HETATM    5  C   UNL     1       5.318  32.887  62.745  1.00  0.00     0.069 A 
HETATM    6  C   UNL     1       6.371  32.712  61.874  1.00  0.00     0.007 A 
HETATM    7  C   UNL     1       7.774  32.999  62.277  1.00  0.00     0.048 C 
HETATM    8  C   UNL     1       7.952  32.889  63.809  1.00  0.00     0.044 C 
HETATM    9  C   UNL     1       6.771  33.384  64.638  1.00  0.00    -0.043 A 
HETATM   10  C   UNL     1       5.455  33.323  64.124  1.00  0.00    -0.001 A 
HETATM   11  C   UNL     1       6.973  33.811  65.956  1.00  0.00     0.044 A 
HETATM   12  C   UNL     1       5.894  34.192  66.759  1.00  0.00     0.068 A 
HETATM   13  C   UNL     1       4.599  34.135  66.240  1.00  0.00     0.037 A 
HETATM   14  C   UNL     1       4.378  33.700  64.926  1.00  0.00     0.017 A 
ENDROOT
BRANCH   1  15
HETATM   15  C   UNL     1       6.480  32.001  59.375  1.00  0.00     0.277 C 
HETATM   16  N   UNL     1       7.331  30.918  59.504  1.00  0.00    -0.321 N 
HETATM   17  H   UNL     1       7.298  30.505  60.431  1.00  0.00     0.169 HD
HETATM   18  O   UNL     1       6.262  32.640  58.353  1.00  0.00    -0.266 OA
BRANCH  16  19
HETATM   19  C   UNL     1       8.156  30.328  58.525  1.00  0.00     0.043 A 
HETATM   20  C   UNL     1       7.581  29.439  57.589  1.00  0.00    -0.035 A 
HETATM   21  C   UNL     1       6.111  29.110  57.577  1.00  0.00     0.050 C 
HETATM   22  C   UNL     1       8.403  28.810  56.634  1.00  0.00     0.012 A 
HETATM   23  C   UNL     1       9.770  29.071  56.590  1.00  0.00     0.043 A 
HETATM   24  C   UNL     1      10.319  29.956  57.504  1.00  0.00     0.118 A 
HETATM   25  C   UNL     1       9.531  30.583  58.463  1.00  0.00     0.072 A 
HETATM   26  F   UNL     1      11.636  30.200  57.469  1.00  0.00    -0.206 F 
ENDBRANCH  16  19
ENDBRANCH   1  15
BRANCH  12  27
HETATM   27  O   UNL     1       6.238  34.594  68.021  1.00  0.00    -0.356 OA
HETATM   28  C   UNL     1       5.588  33.943  69.104  1.00  0.00     0.210 C 
ENDBRANCH  12  27
TORSDOF 3
ENDMDL
MODEL 5
REMARK VINA RESULT:      -9.6      1.808      2.297
REMARK  3 active torsions:
REMARK  status: ('A' for Active; 'I' for Inactive)
REMARK    1  A    between atoms: C_3  and  N_4 
REMARK       I    between atoms: N_4  and  C_5 
REMARK    2  A    between atoms: C_5  and  C_6 
REMARK    3  A    between atoms: C_17  and  O_18 
ROOT
HETATM    1  C   UNL     1       5.534  26.917  55.665  1.00  0.00     0.153 A 
HETATM    2  N   UNL     1       4.313  27.448  55.914  1.00  0.00    -0.168 NA
HETATM    3  N   UNL     1       4.571  28.520  56.693  1.00  0.00    -0.276 N 
HETATM    4  H   UNL     1       3.789  29.072  57.027  1.00  0.00     0.189 HD
HETATM    5  C   UNL     1       5.897  28.720  56.923  1.00  0.00     0.069 A 
HETATM    6  C   UNL     1       6.550  27.695  56.276  1.00  0.00     0.007 A 
HETATM    7  C   UNL     1       8.035  27.600  56.260  1.00  0.00     0.048 C 
HETATM    8  C   UNL     1       8.657  28.330  57.474  1.00  0.00     0.044 C 
HETATM    9  C   UNL     1       7.947  29.612  57.895  1.00  0.00    -0.043 A 
HETATM   10  C   UNL     1       6.560  29.774  57.671  1.00  0.00    -0.001 A 
HETATM   11  C   UNL     1       8.649  30.601  58.597  1.00  0.00     0.044 A 
HETATM   12  C   UNL     1       7.998  31.747  59.062  1.00  0.00     0.068 A 
HETATM   13  C   UNL     1       6.630  31.900  58.831  1.00  0.00     0.037 A 
HETATM   14  C   UNL     1       5.910  30.917  58.138  1.00  0.00     0.017 A 
ENDROOT
BRANCH   1  15
HETATM   15  C   UNL     1       5.696  25.706  54.834  1.00  0.00     0.277 C 
HETATM   16  N   UNL     1       6.833  24.999  55.181  1.00  0.00    -0.321 N 
HETATM   17  H   UNL     1       7.325  25.414  55.966  1.00  0.00     0.169 HD
HETATM   18  O   UNL     1       4.876  25.396  53.978  1.00  0.00    -0.266 OA
BRANCH  16  19
HETATM   19  C   UNL     1       7.326  23.801  54.624  1.00  0.00     0.043 A 
HETATM   20  C   UNL     1       7.866  23.824  53.318  1.00  0.00    -0.035 A 
HETATM   21  C   UNL     1       7.959  25.084  52.498  1.00  0.00     0.050 C 
HETATM   22  C   UNL     1       8.320  22.625  52.735  1.00  0.00     0.012 A 
HETATM   23  C   UNL     1       8.263  21.425  53.439  1.00  0.00     0.043 A 
HETATM   24  C   UNL     1       7.746  21.420  54.724  1.00  0.00     0.118 A 
HETATM   25  C   UNL     1       7.281  22.587  55.319  1.00  0.00     0.072 A 
HETATM   26  F   UNL     1       7.680  20.264  55.398  1.00  0.00    -0.206 F 
ENDBRANCH  16  19
ENDBRANCH   1  15
BRANCH  12  27
HETATM   27  O   UNL     1       8.806  32.630  59.724  1.00  0.00    -0.356 OA
HETATM   28  C   UNL     1       9.655  32.097  60.731  1.00  0.00     0.210 C 
ENDBRANCH  12  27
TORSDOF 3
ENDMDL
MODEL 6
REMARK VINA RESULT:      -9.4      5.619      6.618
REMARK  3 active torsions:
REMARK  status: ('A' for Active; 'I' for Inactive)
REMARK    1  A    between atoms: C_3  and  N_4 
REMARK       I    between atoms: N_4  and  C_5 
REMARK    2  A    between atoms: C_5  and  C_6 
REMARK    3  A    between atoms: C_17  and  O_18 
ROOT
HETATM    1  C   UNL     1       5.783  26.667  52.498  1.00  0.00     0.153 A 
HETATM    2  N   UNL     1       6.231  27.648  53.315  1.00  0.00    -0.168 NA
HETATM    3  N   UNL     1       6.159  28.766  52.561  1.00  0.00    -0.276 N 
HETATM    4  H   UNL     1       6.470  29.641  52.966  1.00  0.00     0.189 HD
HETATM    5  C   UNL     1       5.653  28.551  51.317  1.00  0.00     0.069 A 
HETATM    6  C   UNL     1       5.404  27.199  51.240  1.00  0.00     0.007 A 
HETATM    7  C   UNL     1       4.794  26.583  50.030  1.00  0.00     0.048 C 
HETATM    8  C   UNL     1       5.061  27.439  48.770  1.00  0.00     0.044 C 
HETATM    9  C   UNL     1       5.036  28.948  48.991  1.00  0.00    -0.043 A 
HETATM   10  C   UNL     1       5.391  29.497  50.245  1.00  0.00    -0.001 A 
HETATM   11  C   UNL     1       4.756  29.807  47.921  1.00  0.00     0.044 A 
HETATM   12  C   UNL     1       4.807  31.194  48.084  1.00  0.00     0.068 A 
HETATM   13  C   UNL     1       5.153  31.726  49.327  1.00  0.00     0.037 A 
HETATM   14  C   UNL     1       5.445  30.882  50.407  1.00  0.00     0.017 A 
ENDROOT
BRANCH   1  15
HETATM   15  C   UNL     1       5.703  25.261  52.948  1.00  0.00     0.277 C 
HETATM   16  N   UNL     1       6.951  24.758  53.273  1.00  0.00    -0.321 N 
HETATM   17  H   UNL     1       7.686  25.454  53.183  1.00  0.00     0.169 HD
HETATM   18  O   UNL     1       4.633  24.672  53.037  1.00  0.00    -0.266 OA
BRANCH  16  19
HETATM   19  C   UNL     1       7.284  23.471  53.737  1.00  0.00     0.043 A 
HETATM   20  C   UNL     1       7.285  23.223  55.129  1.00  0.00    -0.035 A 
HETATM   21  C   UNL     1       6.921  24.276  56.143  1.00  0.00     0.050 C 
HETATM   22  C   UNL     1       7.660  21.952  55.607  1.00  0.00     0.012 A 
HETATM   23  C   UNL     1       8.008  20.934  54.723  1.00  0.00     0.043 A 
HETATM   24  C   UNL     1       7.988  21.185  53.361  1.00  0.00     0.118 A 
HETATM   25  C   UNL     1       7.631  22.434  52.863  1.00  0.00     0.072 A 
HETATM   26  F   UNL     1       8.332  20.209  52.510  1.00  0.00    -0.206 F 
ENDBRANCH  16  19
ENDBRANCH   1  15
BRANCH  12  27
HETATM   27  O   UNL     1       4.504  31.910  46.958  1.00  0.00    -0.356 OA
HETATM   28  C   UNL     1       4.752  31.282  45.708  1.00  0.00     0.210 C 
ENDBRANCH  12  27
TORSDOF 3
ENDMDL
MODEL 7
REMARK VINA RESULT:      -9.3      4.588      5.807
REMARK  3 active torsions:
REMARK  status: ('A' for Active; 'I' for Inactive)
REMARK    1  A    between atoms: C_3  and  N_4 
REMARK       I    between atoms: N_4  and  C_5 
REMARK    2  A    between atoms: C_5  and  C_6 
REMARK    3  A    between atoms: C_17  and  O_18 
ROOT
HETATM    1  C   UNL     1       6.628  26.315  54.325  1.00  0.00     0.153 A 
HETATM    2  N   UNL     1       7.183  27.513  54.620  1.00  0.00    -0.168 NA
HETATM    3  N   UNL     1       6.837  28.303  53.582  1.00  0.00    -0.276 N 
HETATM    4  H   UNL     1       7.167  29.262  53.575  1.00  0.00     0.189 HD
HETATM    5  C   UNL     1       6.058  27.678  52.658  1.00  0.00     0.069 A 
HETATM    6  C   UNL     1       5.908  26.385  53.105  1.00  0.00     0.007 A 
HETATM    7  C   UNL     1       5.070  25.396  52.375  1.00  0.00     0.048 C 
HETATM    8  C   UNL     1       4.947  25.763  50.877  1.00  0.00     0.044 C 
HETATM    9  C   UNL     1       4.855  27.256  50.580  1.00  0.00    -0.043 A 
HETATM   10  C   UNL     1       5.464  28.200  51.439  1.00  0.00    -0.001 A 
HETATM   11  C   UNL     1       4.251  27.697  49.396  1.00  0.00     0.044 A 
HETATM   12  C   UNL     1       4.228  29.055  49.065  1.00  0.00     0.068 A 
HETATM   13  C   UNL     1       4.826  29.979  49.924  1.00  0.00     0.037 A 
HETATM   14  C   UNL     1       5.443  29.555  51.108  1.00  0.00     0.017 A 
ENDROOT
BRANCH   1  15
HETATM   15  C   UNL     1       6.777  25.151  55.224  1.00  0.00     0.277 C 
HETATM   16  N   UNL     1       7.460  24.116  54.610  1.00  0.00    -0.321 N 
HETATM   17  H   UNL     1       7.770  24.357  53.673  1.00  0.00     0.169 HD
HETATM   18  O   UNL     1       6.356  25.166  56.374  1.00  0.00    -0.266 OA
BRANCH  16  19
HETATM   19  C   UNL     1       7.797  22.853  55.135  1.00  0.00     0.043 A 
HETATM   20  C   UNL     1       7.975  21.766  54.249  1.00  0.00    -0.035 A 
HETATM   21  C   UNL     1       7.843  21.906  52.754  1.00  0.00     0.050 C 
HETATM   22  C   UNL     1       8.268  20.490  54.766  1.00  0.00     0.012 A 
HETATM   23  C   UNL     1       8.404  20.293  56.137  1.00  0.00     0.043 A 
HETATM   24  C   UNL     1       8.242  21.368  56.995  1.00  0.00     0.118 A 
HETATM   25  C   UNL     1       7.943  22.637  56.511  1.00  0.00     0.072 A 
HETATM   26  F   UNL     1       8.363  21.177  58.316  1.00  0.00    -0.206 F 
ENDBRANCH  16  19
ENDBRANCH   1  15
BRANCH  12  27
HETATM   27  O   UNL     1       3.599  29.342  47.885  1.00  0.00    -0.356 OA
HETATM   28  C   UNL     1       2.956  28.264  47.217  1.00  0.00     0.210 C 
ENDBRANCH  12  27
TORSDOF 3
ENDMDL
MODEL 8
REMARK VINA RESULT:      -9.3      2.107      2.592
REMARK  3 active torsions:
REMARK  status: ('A' for Active; 'I' for Inactive)
REMARK    1  A    between atoms: C_3  and  N_4 
REMARK       I    between atoms: N_4  and  C_5 
REMARK    2  A    between atoms: C_5  and  C_6 
REMARK    3  A    between atoms: C_17  and  O_18 
ROOT
HETATM    1  C   UNL     1       5.989  26.291  53.899  1.00  0.00     0.153 A 
HETATM    2  N   UNL     1       4.979  26.486  53.019  1.00  0.00    -0.168 NA
HETATM    3  N   UNL     1       4.260  27.493  53.558  1.00  0.00    -0.276 N 
HETATM    4  H   UNL     1       3.425  27.802  53.074  1.00  0.00     0.189 HD
HETATM    5  C   UNL     1       4.781  27.975  54.719  1.00  0.00     0.069 A 
HETATM    6  C   UNL     1       5.900  27.213  54.973  1.00  0.00     0.007 A 
HETATM    7  C   UNL     1       6.775  27.475  56.148  1.00  0.00     0.048 C 
HETATM    8  C   UNL     1       5.997  28.189  57.278  1.00  0.00     0.044 C 
HETATM    9  C   UNL     1       4.966  29.210  56.813  1.00  0.00    -0.043 A 
HETATM   10  C   UNL     1       4.320  29.063  55.563  1.00  0.00    -0.001 A 
HETATM   11  C   UNL     1       4.578  30.251  57.667  1.00  0.00     0.044 A 
HETATM   12  C   UNL     1       3.575  31.150  57.291  1.00  0.00     0.068 A 
HETATM   13  C   UNL     1       2.949  31.000  56.053  1.00  0.00     0.037 A 
HETATM   14  C   UNL     1       3.318  29.960  55.190  1.00  0.00     0.017 A 
ENDROOT
BRANCH   1  15
HETATM   15  C   UNL     1       7.020  25.256  53.677  1.00  0.00     0.277 C 
HETATM   16  N   UNL     1       6.714  24.082  54.342  1.00  0.00    -0.321 N 
HETATM   17  H   UNL     1       5.822  24.129  54.826  1.00  0.00     0.169 HD
HETATM   18  O   UNL     1       7.989  25.454  52.955  1.00  0.00    -0.266 OA
BRANCH  16  19
HETATM   19  C   UNL     1       7.444  22.877  54.376  1.00  0.00     0.043 A 
HETATM   20  C   UNL     1       8.132  22.524  55.560  1.00  0.00    -0.035 A 
HETATM   21  C   UNL     1       8.100  23.375  56.802  1.00  0.00     0.050 C 
HETATM   22  C   UNL     1       8.900  21.345  55.590  1.00  0.00     0.012 A 
HETATM   23  C   UNL     1       8.971  20.513  54.476  1.00  0.00     0.043 A 
HETATM   24  C   UNL     1       8.280  20.862  53.327  1.00  0.00     0.118 A 
HETATM   25  C   UNL     1       7.522  22.026  53.267  1.00  0.00     0.072 A 
HETATM   26  F   UNL     1       8.356  20.068  52.250  1.00  0.00    -0.206 F 
ENDBRANCH  16  19
ENDBRANCH   1  15
BRANCH  12  27
HETATM   27  O   UNL     1       3.304  32.119  58.218  1.00  0.00    -0.356 OA
HETATM   28  C   UNL     1       4.210  33.212  58.293  1.00  0.00     0.210 C 
ENDBRANCH  12  27
TORSDOF 3
ENDMDL
MODEL 9
REMARK VINA RESULT:      -9.3      3.600      9.121
REMARK  3 active torsions:
REMARK  status: ('A' for Active; 'I' for Inactive)
REMARK    1  A    between atoms: C_3  and  N_4 
REMARK       I    between atoms: N_4  and  C_5 
REMARK    2  A    between atoms: C_5  and  C_6 
REMARK    3  A    between atoms: C_17  and  O_18 
ROOT
HETATM    1  C   UNL     1       7.498  27.942  56.335  1.00  0.00     0.153 A 
HETATM    2  N   UNL     1       7.440  28.453  55.083  1.00  0.00    -0.168 NA
HETATM    3  N   UNL     1       7.536  27.373  54.279  1.00  0.00    -0.276 N 
HETATM    4  H   UNL     1       7.536  27.517  53.276  1.00  0.00     0.189 HD
HETATM    5  C   UNL     1       7.616  26.196  54.957  1.00  0.00     0.069 A 
HETATM    6  C   UNL     1       7.601  26.529  56.293  1.00  0.00     0.007 A 
HETATM    7  C   UNL     1       7.625  25.490  57.358  1.00  0.00     0.048 C 
HETATM    8  C   UNL     1       8.268  24.179  56.848  1.00  0.00     0.044 C 
HETATM    9  C   UNL     1       7.957  23.823  55.399  1.00  0.00    -0.043 A 
HETATM   10  C   UNL     1       7.693  24.837  54.449  1.00  0.00    -0.001 A 
HETATM   11  C   UNL     1       8.028  22.489  54.977  1.00  0.00     0.044 A 
HETATM   12  C   UNL     1       7.826  22.151  53.635  1.00  0.00     0.068 A 
HETATM   13  C   UNL     1       7.559  23.159  52.707  1.00  0.00     0.037 A 
HETATM   14  C   UNL     1       7.493  24.499  53.110  1.00  0.00     0.017 A 
ENDROOT
BRANCH   1  15
HETATM   15  C   UNL     1       7.427  28.810  57.529  1.00  0.00     0.277 C 
HETATM   16  N   UNL     1       6.509  29.832  57.363  1.00  0.00    -0.321 N 
HETATM   17  H   UNL     1       6.024  29.777  56.472  1.00  0.00     0.169 HD
HETATM   18  O   UNL     1       8.097  28.587  58.530  1.00  0.00    -0.266 OA
BRANCH  16  19
HETATM   19  C   UNL     1       6.160  30.854  58.268  1.00  0.00     0.043 A 
HETATM   20  C   UNL     1       4.823  31.311  58.303  1.00  0.00    -0.035 A 
HETATM   21  C   UNL     1       3.743  30.734  57.425  1.00  0.00     0.050 C 
HETATM   22  C   UNL     1       4.472  32.362  59.171  1.00  0.00     0.012 A 
HETATM   23  C   UNL     1       5.422  32.939  60.010  1.00  0.00     0.043 A 
HETATM   24  C   UNL     1       6.725  32.472  59.977  1.00  0.00     0.118 A 
HETATM   25  C   UNL     1       7.100  31.442  59.121  1.00  0.00     0.072 A 
HETATM   26  F   UNL     1       7.643  33.034  60.776  1.00  0.00    -0.206 F 
ENDBRANCH  16  19
ENDBRANCH   1  15
BRANCH  12  27
HETATM   27  O   UNL     1       7.917  20.813  53.367  1.00  0.00    -0.356 OA
HETATM   28  C   UNL     1       8.700  20.028  54.257  1.00  0.00     0.210 C 
ENDBRANCH  12  27
TORSDOF 3
ENDMDL
MODEL 10
REMARK VINA RESULT:      -9.3      4.852      9.616
REMARK  3 active torsions:
REMARK  status: ('A' for Active; 'I' for Inactive)
REMARK    1  A    between atoms: C_3  and  N_4 
REMARK       I    between atoms: N_4  and  C_5 
REMARK    2  A    between atoms: C_5  and  C_6 
REMARK    3  A    between atoms: C_17  and  O_18 
ROOT
HETATM    1  C   UNL     1       6.611  30.834  58.171  1.00  0.00     0.153 A 
HETATM    2  N   UNL     1       5.479  31.188  57.520  1.00  0.00    -0.168 NA
HETATM    3  N   UNL     1       5.246  30.159  56.678  1.00  0.00    -0.276 N 
HETATM    4  H   UNL     1       4.445  30.215  56.060  1.00  0.00     0.189 HD
HETATM    5  C   UNL     1       6.152  29.151  56.786  1.00  0.00     0.069 A 
HETATM    6  C   UNL     1       7.056  29.558  57.742  1.00  0.00     0.007 A 
HETATM    7  C   UNL     1       8.183  28.688  58.175  1.00  0.00     0.048 C 
HETATM    8  C   UNL     1       8.560  27.669  57.074  1.00  0.00     0.044 C 
HETATM    9  C   UNL     1       7.386  27.111  56.276  1.00  0.00    -0.043 A 
HETATM   10  C   UNL     1       6.215  27.879  56.086  1.00  0.00    -0.001 A 
HETATM   11  C   UNL     1       7.502  25.868  55.640  1.00  0.00     0.044 A 
HETATM   12  C   UNL     1       6.468  25.375  54.838  1.00  0.00     0.068 A 
HETATM   13  C   UNL     1       5.313  26.138  54.662  1.00  0.00     0.037 A 
HETATM   14  C   UNL     1       5.184  27.388  55.283  1.00  0.00     0.017 A 
ENDROOT
BRANCH   1  15
HETATM   15  C   UNL     1       7.217  31.706  59.200  1.00  0.00     0.277 C 
HETATM   16  N   UNL     1       6.503  31.669  60.384  1.00  0.00    -0.321 N 
HETATM   17  H   UNL     1       5.720  31.023  60.347  1.00  0.00     0.169 HD
HETATM   18  O   UNL     1       8.246  32.336  58.987  1.00  0.00    -0.266 OA
BRANCH  16  19
HETATM   19  C   UNL     1       6.761  32.357  61.587  1.00  0.00     0.043 A 
HETATM   20  C   UNL     1       7.778  31.880  62.445  1.00  0.00    -0.035 A 
HETATM   21  C   UNL     1       8.619  30.673  62.117  1.00  0.00     0.050 C 
HETATM   22  C   UNL     1       8.015  32.533  63.670  1.00  0.00     0.012 A 
HETATM   23  C   UNL     1       7.274  33.654  64.032  1.00  0.00     0.043 A 
HETATM   24  C   UNL     1       6.291  34.121  63.176  1.00  0.00     0.118 A 
HETATM   25  C   UNL     1       6.030  33.489  61.965  1.00  0.00     0.072 A 
HETATM   26  F   UNL     1       5.570  35.195  63.529  1.00  0.00    -0.206 F 
ENDBRANCH  16  19
ENDBRANCH   1  15
BRANCH  12  27
HETATM   27  O   UNL     1       6.713  24.147  54.286  1.00  0.00    -0.356 OA
HETATM   28  C   UNL     1       7.321  23.173  55.125  1.00  0.00     0.210 C 
ENDBRANCH  12  27
TORSDOF 3
ENDMDL
