MODEL 1
REMARK VINA RESULT:     -10.3      0.000      0.000
REMARK  3 active torsions:
REMARK  status: ('A' for Active; 'I' for Inactive)
REMARK    1  A    between atoms: C_7  and  C_8 
REMARK       I    between atoms: C_8  and  N_9 
REMARK    2  A    between atoms: N_9  and  N_10 
REMARK    3  A    between atoms: N_10  and  C_11 
ROOT
HETATM    1  C   UNL     1       7.613  29.479  56.184  1.00  0.00     0.124 A 
HETATM    2  N   UNL     1       8.947  29.307  56.131  1.00  0.00    -0.223 NA
HETATM    3  C   UNL     1       9.683  29.809  57.141  1.00  0.00     0.129 A 
HETATM    4 CL   UNL     1      11.370  29.540  56.995  1.00  0.00    -0.062 Cl
HETATM    5  C   UNL     1       9.171  30.498  58.219  1.00  0.00     0.067 A 
HETATM    6  C   UNL     1       7.795  30.684  58.253  1.00  0.00     0.051 A 
HETATM    7  C   UNL     1       7.192  31.399  59.336  1.00  0.00     0.099 C 
HETATM    8  N   UNL     1       6.710  31.979  60.218  1.00  0.00    -0.191 NA
HETATM    9  C   UNL     1       7.003  30.175  57.223  1.00  0.00     0.068 A 
ENDROOT
BRANCH   1  10
HETATM   10  N   UNL     1       6.868  28.985  55.094  1.00  0.00    -0.186 NA
HETATM   11  H   UNL     1       7.128  29.575  54.291  1.00  0.00     0.154 HD
BRANCH  10  12
HETATM   12  N   UNL     1       7.104  27.621  54.828  1.00  0.00    -0.281 N 
HETATM   13  C   UNL     1       6.238  26.703  55.387  1.00  0.00     0.271 C 
HETATM   14  O   UNL     1       5.167  27.021  55.904  1.00  0.00    -0.266 OA
HETATM   15  H   UNL     1       8.063  27.347  54.593  1.00  0.00     0.184 HD
BRANCH  13  16
HETATM   16  C   UNL     1       6.711  25.291  55.348  1.00  0.00     0.099 A 
HETATM   17  C   UNL     1       6.905  24.510  54.096  1.00  0.00     0.201 A 
HETATM   18  C   UNL     1       7.435  23.125  54.207  1.00  0.00     0.045 A 
HETATM   19  O   UNL     1       6.651  24.999  52.997  1.00  0.00    -0.286 OA
HETATM   20  C   UNL     1       7.725  22.599  55.485  1.00  0.00     0.052 A 
HETATM   21  C   UNL     1       7.652  22.376  53.048  1.00  0.00     0.060 A 
HETATM   22  C   UNL     1       8.207  21.280  55.590  1.00  0.00    -0.031 A 
HETATM   23  N   UNL     1       7.461  23.385  56.618  1.00  0.00    -0.364 N 
HETATM   24  C   UNL     1       8.523  20.652  56.919  1.00  0.00     0.050 C 
HETATM   25  C   UNL     1       8.431  20.541  54.418  1.00  0.00     0.051 A 
HETATM   26  C   UNL     1       8.153  21.091  53.169  1.00  0.00     0.117 A 
HETATM   27  F   UNL     1       8.373  20.363  52.068  1.00  0.00    -0.206 F 
HETATM   28  C   UNL     1       7.010  24.674  56.502  1.00  0.00     0.109 A 
HETATM   29  H   UNL     1       7.796  23.079  57.524  1.00  0.00     0.165 HD
ENDBRANCH  13  16
ENDBRANCH  10  12
ENDBRANCH   1  10
TORSDOF 3
ENDMDL
MODEL 2
REMARK VINA RESULT:     -10.2      4.187      5.853
REMARK  3 active torsions:
REMARK  status: ('A' for Active; 'I' for Inactive)
REMARK    1  A    between atoms: C_7  and  C_8 
REMARK       I    between atoms: C_8  and  N_9 
REMARK    2  A    between atoms: N_9  and  N_10 
REMARK    3  A    between atoms: N_10  and  C_11 
ROOT
HETATM    1  C   UNL     1       5.655  28.964  51.295  1.00  0.00     0.124 A 
HETATM    2  N   UNL     1       5.784  30.094  50.576  1.00  0.00    -0.223 NA
HETATM    3  C   UNL     1       5.317  30.088  49.313  1.00  0.00     0.129 A 
HETATM    4 CL   UNL     1       5.518  31.569  48.472  1.00  0.00    -0.062 Cl
HETATM    5  C   UNL     1       4.726  29.005  48.699  1.00  0.00     0.067 A 
HETATM    6  C   UNL     1       4.614  27.840  49.447  1.00  0.00     0.051 A 
HETATM    7  C   UNL     1       4.020  26.671  48.873  1.00  0.00     0.099 C 
HETATM    8  N   UNL     1       3.538  25.727  48.402  1.00  0.00    -0.191 NA
HETATM    9  C   UNL     1       5.087  27.812  50.759  1.00  0.00     0.068 A 
ENDROOT
BRANCH   1  10
HETATM   10  N   UNL     1       6.192  28.980  52.598  1.00  0.00    -0.186 NA
HETATM   11  H   UNL     1       5.591  29.620  53.138  1.00  0.00     0.154 HD
BRANCH  10  12
HETATM   12  N   UNL     1       6.252  27.705  53.196  1.00  0.00    -0.281 N 
HETATM   13  C   UNL     1       7.388  27.390  53.915  1.00  0.00     0.271 C 
HETATM   14  O   UNL     1       8.227  28.229  54.242  1.00  0.00    -0.266 OA
HETATM   15  H   UNL     1       5.689  26.961  52.772  1.00  0.00     0.184 HD
BRANCH  13  16
HETATM   16  C   UNL     1       7.541  25.945  54.241  1.00  0.00     0.099 A 
HETATM   17  C   UNL     1       7.642  24.865  53.222  1.00  0.00     0.201 A 
HETATM   18  C   UNL     1       7.847  23.470  53.695  1.00  0.00     0.045 A 
HETATM   19  O   UNL     1       7.575  25.117  52.021  1.00  0.00    -0.286 OA
HETATM   20  C   UNL     1       7.928  23.218  55.082  1.00  0.00     0.052 A 
HETATM   21  C   UNL     1       7.971  22.438  52.762  1.00  0.00     0.060 A 
HETATM   22  C   UNL     1       8.101  21.894  55.530  1.00  0.00    -0.031 A 
HETATM   23  N   UNL     1       7.767  24.288  55.976  1.00  0.00    -0.364 N 
HETATM   24  C   UNL     1       8.182  21.552  56.991  1.00  0.00     0.050 C 
HETATM   25  C   UNL     1       8.235  20.866  54.582  1.00  0.00     0.051 A 
HETATM   26  C   UNL     1       8.168  21.146  53.220  1.00  0.00     0.117 A 
HETATM   27  F   UNL     1       8.296  20.147  52.338  1.00  0.00    -0.206 F 
HETATM   28  C   UNL     1       7.619  25.575  55.529  1.00  0.00     0.109 A 
HETATM   29  H   UNL     1       7.967  24.147  56.961  1.00  0.00     0.165 HD
ENDBRANCH  13  16
ENDBRANCH  10  12
ENDBRANCH   1  10
TORSDOF 3
ENDMDL
MODEL 3
REMARK VINA RESULT:     -10.2      1.524      2.150
REMARK  3 active torsions:
REMARK  status: ('A' for Active; 'I' for Inactive)
REMARK    1  A    between atoms: C_7  and  C_8 
REMARK       I    between atoms: C_8  and  N_9 
REMARK    2  A    between atoms: N_9  and  N_10 
REMARK    3  A    between atoms: N_10  and  C_11 
ROOT
HETATM    1  C   UNL     1       7.249  29.457  55.888  1.00  0.00     0.124 A 
HETATM    2  N   UNL     1       6.558  30.076  56.863  1.00  0.00    -0.223 NA
HETATM    3  C   UNL     1       7.254  30.581  57.900  1.00  0.00     0.129 A 
HETATM    4 CL   UNL     1       6.295  31.356  59.091  1.00  0.00    -0.062 Cl
HETATM    5  C   UNL     1       8.622  30.499  58.041  1.00  0.00     0.067 A 
HETATM    6  C   UNL     1       9.322  29.843  57.036  1.00  0.00     0.051 A 
HETATM    7  C   UNL     1      10.744  29.710  57.119  1.00  0.00     0.099 C 
HETATM    8  N   UNL     1      11.897  29.606  57.193  1.00  0.00    -0.191 NA
HETATM    9  C   UNL     1       8.632  29.309  55.948  1.00  0.00     0.068 A 
ENDROOT
BRANCH   1  10
HETATM   10  N   UNL     1       6.495  28.896  54.837  1.00  0.00    -0.186 NA
HETATM   11  H   UNL     1       6.719  29.460  54.005  1.00  0.00     0.154 HD
BRANCH  10  12
HETATM   12  N   UNL     1       6.765  27.530  54.621  1.00  0.00    -0.281 N 
HETATM   13  C   UNL     1       6.029  26.612  55.343  1.00  0.00     0.271 C 
HETATM   14  O   UNL     1       5.020  26.916  55.980  1.00  0.00    -0.266 OA
HETATM   15  H   UNL     1       7.698  27.284  54.276  1.00  0.00     0.184 HD
BRANCH  13  16
HETATM   16  C   UNL     1       6.566  25.224  55.323  1.00  0.00     0.099 A 
HETATM   17  C   UNL     1       6.769  24.425  54.083  1.00  0.00     0.201 A 
HETATM   18  C   UNL     1       7.365  23.069  54.211  1.00  0.00     0.045 A 
HETATM   19  O   UNL     1       6.467  24.877  52.980  1.00  0.00    -0.286 OA
HETATM   20  C   UNL     1       7.707  22.585  55.493  1.00  0.00     0.052 A 
HETATM   21  C   UNL     1       7.591  22.305  53.063  1.00  0.00     0.060 A 
HETATM   22  C   UNL     1       8.253  21.292  55.615  1.00  0.00    -0.031 A 
HETATM   23  N   UNL     1       7.432  23.382  56.614  1.00  0.00    -0.364 N 
HETATM   24  C   UNL     1       8.627  20.709  56.948  1.00  0.00     0.050 C 
HETATM   25  C   UNL     1       8.484  20.538  54.453  1.00  0.00     0.051 A 
HETATM   26  C   UNL     1       8.153  21.047  53.200  1.00  0.00     0.117 A 
HETATM   27  F   UNL     1       8.382  20.305  52.109  1.00  0.00    -0.206 F 
HETATM   28  C   UNL     1       6.919  24.647  56.482  1.00  0.00     0.109 A 
HETATM   29  H   UNL     1       7.802  23.112  57.519  1.00  0.00     0.165 HD
ENDBRANCH  13  16
ENDBRANCH  10  12
ENDBRANCH   1  10
TORSDOF 3
ENDMDL
MODEL 4
REMARK VINA RESULT:     -10.1      1.534      2.167
REMARK  3 active torsions:
REMARK  status: ('A' for Active; 'I' for Inactive)
REMARK    1  A    between atoms: C_7  and  C_8 
REMARK       I    between atoms: C_8  and  N_9 
REMARK    2  A    between atoms: N_9  and  N_10 
REMARK    3  A    between atoms: N_10  and  C_11 
ROOT
HETATM    1  C   UNL     1       7.645  29.570  56.398  1.00  0.00     0.124 A 
HETATM    2  N   UNL     1       8.983  29.437  56.353  1.00  0.00    -0.223 NA
HETATM    3  C   UNL     1       9.701  29.992  57.348  1.00  0.00     0.129 A 
HETATM    4 CL   UNL     1      11.396  29.769  57.214  1.00  0.00    -0.062 Cl
HETATM    5  C   UNL     1       9.165  30.697  58.404  1.00  0.00     0.067 A 
HETATM    6  C   UNL     1       7.784  30.842  58.429  1.00  0.00     0.051 A 
HETATM    7  C   UNL     1       7.156  31.571  59.489  1.00  0.00     0.099 C 
HETATM    8  N   UNL     1       6.654  32.162  60.351  1.00  0.00    -0.191 NA
HETATM    9  C   UNL     1       7.010  30.279  57.413  1.00  0.00     0.068 A 
ENDROOT
BRANCH   1  10
HETATM   10  N   UNL     1       6.919  29.021  55.322  1.00  0.00    -0.186 NA
HETATM   11  H   UNL     1       7.035  29.684  54.542  1.00  0.00     0.154 HD
BRANCH  10  12
HETATM   12  N   UNL     1       7.344  27.726  54.962  1.00  0.00    -0.281 N 
HETATM   13  C   UNL     1       6.371  26.802  54.637  1.00  0.00     0.271 C 
HETATM   14  O   UNL     1       5.198  27.111  54.431  1.00  0.00    -0.266 OA
HETATM   15  H   UNL     1       8.251  27.413  55.322  1.00  0.00     0.184 HD
BRANCH  13  16
HETATM   16  C   UNL     1       6.841  25.390  54.586  1.00  0.00     0.099 A 
HETATM   17  C   UNL     1       7.369  24.643  55.760  1.00  0.00     0.201 A 
HETATM   18  C   UNL     1       7.752  23.218  55.571  1.00  0.00     0.045 A 
HETATM   19  O   UNL     1       7.472  25.180  56.861  1.00  0.00    -0.286 OA
HETATM   20  C   UNL     1       7.612  22.631  54.294  1.00  0.00     0.052 A 
HETATM   21  C   UNL     1       8.227  22.483  56.659  1.00  0.00     0.060 A 
HETATM   22  C   UNL     1       7.994  21.287  54.112  1.00  0.00    -0.031 A 
HETATM   23  N   UNL     1       7.157  23.423  53.229  1.00  0.00    -0.364 N 
HETATM   24  C   UNL     1       7.885  20.603  52.778  1.00  0.00     0.050 C 
HETATM   25  C   UNL     1       8.461  20.556  55.216  1.00  0.00     0.051 A 
HETATM   26  C   UNL     1       8.572  21.155  56.468  1.00  0.00     0.117 A 
HETATM   27  F   UNL     1       9.022  20.435  57.503  1.00  0.00    -0.206 F 
HETATM   28  C   UNL     1       6.769  24.724  53.423  1.00  0.00     0.109 A 
HETATM   29  H   UNL     1       6.916  22.982  52.349  1.00  0.00     0.165 HD
ENDBRANCH  13  16
ENDBRANCH  10  12
ENDBRANCH   1  10
TORSDOF 3
ENDMDL
MODEL 5
REMARK VINA RESULT:     -10.0      2.161      3.057
REMARK  3 active torsions:
REMARK  status: ('A' for Active; 'I' for Inactive)
REMARK    1  A    between atoms: C_7  and  C_8 
REMARK       I    between atoms: C_8  and  N_9 
REMARK    2  A    between atoms: N_9  and  N_10 
REMARK    3  A    between atoms: N_10  and  C_11 
ROOT
HETATM    1  C   UNL     1       7.116  29.247  56.900  1.00  0.00     0.124 A 
HETATM    2  N   UNL     1       6.543  30.056  57.811  1.00  0.00    -0.223 NA
HETATM    3  C   UNL     1       7.353  30.843  58.545  1.00  0.00     0.129 A 
HETATM    4 CL   UNL     1       6.540  31.844  59.675  1.00  0.00    -0.062 Cl
HETATM    5  C   UNL     1       8.727  30.871  58.440  1.00  0.00     0.067 A 
HETATM    6  C   UNL     1       9.306  30.019  57.508  1.00  0.00     0.051 A 
HETATM    7  C   UNL     1      10.728  29.986  57.351  1.00  0.00     0.099 C 
HETATM    8  N   UNL     1      11.881  29.964  57.227  1.00  0.00    -0.191 NA
HETATM    9  C   UNL     1       8.496  29.191  56.731  1.00  0.00     0.068 A 
ENDROOT
BRANCH   1  10
HETATM   10  N   UNL     1       6.252  28.400  56.176  1.00  0.00    -0.186 NA
HETATM   11  H   UNL     1       5.900  28.969  55.393  1.00  0.00     0.154 HD
BRANCH  10  12
HETATM   12  N   UNL     1       6.876  27.223  55.718  1.00  0.00    -0.281 N 
HETATM   13  C   UNL     1       6.122  26.359  54.949  1.00  0.00     0.271 C 
HETATM   14  O   UNL     1       5.033  26.670  54.467  1.00  0.00    -0.266 OA
HETATM   15  H   UNL     1       7.668  26.868  56.263  1.00  0.00     0.184 HD
BRANCH  13  16
HETATM   16  C   UNL     1       6.712  25.004  54.769  1.00  0.00     0.099 A 
HETATM   17  C   UNL     1       7.326  24.208  55.867  1.00  0.00     0.201 A 
HETATM   18  C   UNL     1       7.828  22.845  55.551  1.00  0.00     0.045 A 
HETATM   19  O   UNL     1       7.404  24.657  57.009  1.00  0.00    -0.286 OA
HETATM   20  C   UNL     1       7.715  22.359  54.230  1.00  0.00     0.052 A 
HETATM   21  C   UNL     1       8.387  22.064  56.565  1.00  0.00     0.060 A 
HETATM   22  C   UNL     1       8.209  21.075  53.927  1.00  0.00    -0.031 A 
HETATM   23  N   UNL     1       7.172  23.196  53.243  1.00  0.00    -0.364 N 
HETATM   24  C   UNL     1       8.134  20.500  52.540  1.00  0.00     0.050 C 
HETATM   25  C   UNL     1       8.759  20.296  54.958  1.00  0.00     0.051 A 
HETATM   26  C   UNL     1       8.843  20.793  56.255  1.00  0.00     0.117 A 
HETATM   27  F   UNL     1       9.374  20.030  57.218  1.00  0.00    -0.206 F 
HETATM   28  C   UNL     1       6.676  24.436  53.554  1.00  0.00     0.109 A 
HETATM   29  H   UNL     1       6.953  22.811  52.331  1.00  0.00     0.165 HD
ENDBRANCH  13  16
ENDBRANCH  10  12
ENDBRANCH   1  10
TORSDOF 3
ENDMDL
MODEL 6
REMARK VINA RESULT:     -10.0      4.576      6.341
REMARK  3 active torsions:
REMARK  status: ('A' for Active; 'I' for Inactive)
REMARK    1  A    between atoms: C_7  and  C_8 
REMARK       I    between atoms: C_8  and  N_9 
REMARK    2  A    between atoms: N_9  and  N_10 
REMARK    3  A    between atoms: N_10  and  C_11 
ROOT
HETATM    1  C   UNL     1       5.731  29.024  51.030  1.00  0.00     0.124 A 
HETATM    2  N   UNL     1       5.809  30.250  50.480  1.00  0.00    -0.223 NA
HETATM    3  C   UNL     1       5.469  30.376  49.183  1.00  0.00     0.129 A 
HETATM    4 CL   UNL     1       5.594  31.971  48.566  1.00  0.00    -0.062 Cl
HETATM    5  C   UNL     1       5.057  29.339  48.375  1.00  0.00     0.067 A 
HETATM    6  C   UNL     1       4.996  28.077  48.950  1.00  0.00     0.051 A 
HETATM    7  C   UNL     1       4.587  26.949  48.169  1.00  0.00     0.099 C 
HETATM    8  N   UNL     1       4.254  26.040  47.531  1.00  0.00    -0.191 NA
HETATM    9  C   UNL     1       5.341  27.910  50.292  1.00  0.00     0.068 A 
ENDROOT
BRANCH   1  10
HETATM   10  N   UNL     1       6.136  28.908  52.375  1.00  0.00    -0.186 NA
HETATM   11  H   UNL     1       5.437  29.433  52.921  1.00  0.00     0.154 HD
BRANCH  10  12
HETATM   12  N   UNL     1       6.236  27.573  52.818  1.00  0.00    -0.281 N 
HETATM   13  C   UNL     1       7.324  27.240  53.599  1.00  0.00     0.271 C 
HETATM   14  O   UNL     1       8.068  28.081  54.103  1.00  0.00    -0.266 OA
HETATM   15  H   UNL     1       5.767  26.856  52.255  1.00  0.00     0.184 HD
BRANCH  13  16
HETATM   16  C   UNL     1       7.553  25.778  53.762  1.00  0.00     0.099 A 
HETATM   17  C   UNL     1       7.704  25.098  55.078  1.00  0.00     0.201 A 
HETATM   18  C   UNL     1       7.875  23.621  55.089  1.00  0.00     0.045 A 
HETATM   19  O   UNL     1       7.673  25.735  56.128  1.00  0.00    -0.286 OA
HETATM   20  C   UNL     1       7.898  22.921  53.863  1.00  0.00     0.052 A 
HETATM   21  C   UNL     1       7.994  22.951  56.309  1.00  0.00     0.060 A 
HETATM   22  C   UNL     1       8.081  21.524  53.875  1.00  0.00    -0.031 A 
HETATM   23  N   UNL     1       7.804  23.646  52.666  1.00  0.00    -0.364 N 
HETATM   24  C   UNL     1       8.129  20.718  52.607  1.00  0.00     0.050 C 
HETATM   25  C   UNL     1       8.189  20.861  55.108  1.00  0.00     0.051 A 
HETATM   26  C   UNL     1       8.145  21.575  56.303  1.00  0.00     0.117 A 
HETATM   27  F   UNL     1       8.253  20.918  57.464  1.00  0.00    -0.206 F 
HETATM   28  C   UNL     1       7.606  25.003  52.668  1.00  0.00     0.109 A 
HETATM   29  H   UNL     1       7.673  23.148  51.792  1.00  0.00     0.165 HD
ENDBRANCH  13  16
ENDBRANCH  10  12
ENDBRANCH   1  10
TORSDOF 3
ENDMDL
MODEL 7
REMARK VINA RESULT:      -9.9      4.533      5.830
REMARK  3 active torsions:
REMARK  status: ('A' for Active; 'I' for Inactive)
REMARK    1  A    between atoms: C_7  and  C_8 
REMARK       I    between atoms: C_8  and  N_9 
REMARK    2  A    between atoms: N_9  and  N_10 
REMARK    3  A    between atoms: N_10  and  C_11 
ROOT
HETATM    1  C   UNL     1       5.640  28.969  51.163  1.00  0.00     0.124 A 
HETATM    2  N   UNL     1       5.199  27.770  50.741  1.00  0.00    -0.223 NA
HETATM    3  C   UNL     1       4.697  27.691  49.493  1.00  0.00     0.129 A 
HETATM    4 CL   UNL     1       4.163  26.127  49.037  1.00  0.00    -0.062 Cl
HETATM    5  C   UNL     1       4.593  28.753  48.621  1.00  0.00     0.067 A 
HETATM    6  C   UNL     1       5.037  29.988  49.075  1.00  0.00     0.051 A 
HETATM    7  C   UNL     1       4.950  31.139  48.228  1.00  0.00     0.099 C 
HETATM    8  N   UNL     1       4.878  32.067  47.536  1.00  0.00    -0.191 NA
HETATM    9  C   UNL     1       5.562  30.104  50.362  1.00  0.00     0.068 A 
ENDROOT
BRANCH   1  10
HETATM   10  N   UNL     1       6.117  29.036  52.487  1.00  0.00    -0.186 NA
HETATM   11  H   UNL     1       5.471  29.667  52.983  1.00  0.00     0.154 HD
BRANCH  10  12
HETATM   12  N   UNL     1       6.194  27.779  53.120  1.00  0.00    -0.281 N 
HETATM   13  C   UNL     1       7.360  27.474  53.794  1.00  0.00     0.271 C 
HETATM   14  O   UNL     1       8.221  28.314  54.055  1.00  0.00    -0.266 OA
HETATM   15  H   UNL     1       5.605  27.028  52.746  1.00  0.00     0.184 HD
BRANCH  13  16
HETATM   16  C   UNL     1       7.516  26.038  54.157  1.00  0.00     0.099 A 
HETATM   17  C   UNL     1       7.595  24.930  53.166  1.00  0.00     0.201 A 
HETATM   18  C   UNL     1       7.805  23.548  53.673  1.00  0.00     0.045 A 
HETATM   19  O   UNL     1       7.506  25.150  51.960  1.00  0.00    -0.286 OA
HETATM   20  C   UNL     1       7.911  23.334  55.064  1.00  0.00     0.052 A 
HETATM   21  C   UNL     1       7.909  22.491  52.766  1.00  0.00     0.060 A 
HETATM   22  C   UNL     1       8.090  22.022  55.545  1.00  0.00    -0.031 A 
HETATM   23  N   UNL     1       7.771  24.428  55.932  1.00  0.00    -0.364 N 
HETATM   24  C   UNL     1       8.197  21.720  57.013  1.00  0.00     0.050 C 
HETATM   25  C   UNL     1       8.203  20.968  54.623  1.00  0.00     0.051 A 
HETATM   26  C   UNL     1       8.112  21.211  53.255  1.00  0.00     0.117 A 
HETATM   27  F   UNL     1       8.221  20.188  52.398  1.00  0.00    -0.206 F 
HETATM   28  C   UNL     1       7.618  25.703  55.452  1.00  0.00     0.109 A 
HETATM   29  H   UNL     1       7.988  24.314  56.916  1.00  0.00     0.165 HD
ENDBRANCH  13  16
ENDBRANCH  10  12
ENDBRANCH   1  10
TORSDOF 3
ENDMDL
MODEL 8
REMARK VINA RESULT:      -9.7      2.636      3.354
REMARK  3 active torsions:
REMARK  status: ('A' for Active; 'I' for Inactive)
REMARK    1  A    between atoms: C_7  and  C_8 
REMARK       I    between atoms: C_8  and  N_9 
REMARK    2  A    between atoms: N_9  and  N_10 
REMARK    3  A    between atoms: N_10  and  C_11 
ROOT
HETATM    1  C   UNL     1       6.067  29.289  55.067  1.00  0.00     0.124 A 
HETATM    2  N   UNL     1       4.789  29.611  55.341  1.00  0.00    -0.223 NA
HETATM    3  C   UNL     1       4.493  29.976  56.603  1.00  0.00     0.129 A 
HETATM    4 CL   UNL     1       2.845  30.374  56.861  1.00  0.00    -0.062 Cl
HETATM    5  C   UNL     1       5.401  30.031  57.638  1.00  0.00     0.067 A 
HETATM    6  C   UNL     1       6.712  29.679  57.346  1.00  0.00     0.051 A 
HETATM    7  C   UNL     1       7.709  29.703  58.373  1.00  0.00     0.099 C 
HETATM    8  N   UNL     1       8.512  29.724  59.210  1.00  0.00    -0.191 NA
HETATM    9  C   UNL     1       7.053  29.298  56.048  1.00  0.00     0.068 A 
ENDROOT
BRANCH   1  10
HETATM   10  N   UNL     1       6.343  28.866  53.751  1.00  0.00    -0.186 NA
HETATM   11  H   UNL     1       6.978  29.577  53.360  1.00  0.00     0.154 HD
BRANCH  10  12
HETATM   12  N   UNL     1       6.911  27.578  53.684  1.00  0.00    -0.281 N 
HETATM   13  C   UNL     1       6.065  26.521  53.417  1.00  0.00     0.271 C 
HETATM   14  O   UNL     1       4.910  26.672  53.020  1.00  0.00    -0.266 OA
HETATM   15  H   UNL     1       7.783  27.422  54.199  1.00  0.00     0.184 HD
BRANCH  13  16
HETATM   16  C   UNL     1       6.644  25.174  53.677  1.00  0.00     0.099 A 
HETATM   17  C   UNL     1       6.987  24.660  55.031  1.00  0.00     0.201 A 
HETATM   18  C   UNL     1       7.510  23.272  55.143  1.00  0.00     0.045 A 
HETATM   19  O   UNL     1       6.829  25.354  56.033  1.00  0.00    -0.286 OA
HETATM   20  C   UNL     1       7.671  22.500  53.972  1.00  0.00     0.052 A 
HETATM   21  C   UNL     1       7.818  22.752  56.403  1.00  0.00     0.060 A 
HETATM   22  C   UNL     1       8.186  21.193  54.078  1.00  0.00    -0.031 A 
HETATM   23  N   UNL     1       7.375  23.081  52.730  1.00  0.00    -0.364 N 
HETATM   24  C   UNL     1       8.396  20.320  52.872  1.00  0.00     0.050 C 
HETATM   25  C   UNL     1       8.481  20.678  55.350  1.00  0.00     0.051 A 
HETATM   26  C   UNL     1       8.297  21.455  56.490  1.00  0.00     0.117 A 
HETATM   27  F   UNL     1       8.589  20.940  57.691  1.00  0.00    -0.206 F 
HETATM   28  C   UNL     1       6.856  24.347  52.641  1.00  0.00     0.109 A 
HETATM   29  H   UNL     1       7.347  22.497  51.901  1.00  0.00     0.165 HD
ENDBRANCH  13  16
ENDBRANCH  10  12
ENDBRANCH   1  10
TORSDOF 3
ENDMDL
MODEL 9
REMARK VINA RESULT:      -9.4      2.038      2.313
REMARK  3 active torsions:
REMARK  status: ('A' for Active; 'I' for Inactive)
REMARK    1  A    between atoms: C_7  and  C_8 
REMARK       I    between atoms: C_8  and  N_9 
REMARK    2  A    between atoms: N_9  and  N_10 
REMARK    3  A    between atoms: N_10  and  C_11 
ROOT
HETATM    1  C   UNL     1       4.641  28.996  56.792  1.00  0.00     0.124 A 
HETATM    2  N   UNL     1       5.890  28.908  57.286  1.00  0.00    -0.223 NA
HETATM    3  C   UNL     1       6.390  29.988  57.916  1.00  0.00     0.129 A 
HETATM    4 CL   UNL     1       7.984  29.786  58.518  1.00  0.00    -0.062 Cl
HETATM    5  C   UNL     1       5.721  31.181  58.082  1.00  0.00     0.067 A 
HETATM    6  C   UNL     1       4.440  31.264  57.553  1.00  0.00     0.051 A 
HETATM    7  C   UNL     1       3.688  32.475  57.677  1.00  0.00     0.099 C 
HETATM    8  N   UNL     1       3.083  33.460  57.781  1.00  0.00    -0.191 NA
HETATM    9  C   UNL     1       3.891  30.163  56.894  1.00  0.00     0.068 A 
ENDROOT
BRANCH   1  10
HETATM   10  N   UNL     1       4.156  27.870  56.097  1.00  0.00    -0.186 NA
HETATM   11  H   UNL     1       4.048  28.173  55.119  1.00  0.00     0.154 HD
BRANCH  10  12
HETATM   12  N   UNL     1       4.999  26.744  56.196  1.00  0.00    -0.281 N 
HETATM   13  C   UNL     1       5.781  26.434  55.102  1.00  0.00     0.271 C 
HETATM   14  O   UNL     1       5.943  27.205  54.156  1.00  0.00    -0.266 OA
HETATM   15  H   UNL     1       4.726  26.010  56.857  1.00  0.00     0.184 HD
BRANCH  13  16
HETATM   16  C   UNL     1       6.394  25.078  55.134  1.00  0.00     0.099 A 
HETATM   17  C   UNL     1       6.644  24.246  53.925  1.00  0.00     0.201 A 
HETATM   18  C   UNL     1       7.314  22.930  54.105  1.00  0.00     0.045 A 
HETATM   19  O   UNL     1       6.323  24.639  52.806  1.00  0.00    -0.286 OA
HETATM   20  C   UNL     1       7.676  22.514  55.404  1.00  0.00     0.052 A 
HETATM   21  C   UNL     1       7.585  22.138  52.987  1.00  0.00     0.060 A 
HETATM   22  C   UNL     1       8.292  21.258  55.576  1.00  0.00    -0.031 A 
HETATM   23  N   UNL     1       7.354  23.336  56.495  1.00  0.00    -0.364 N 
HETATM   24  C   UNL     1       8.692  20.746  56.931  1.00  0.00     0.050 C 
HETATM   25  C   UNL     1       8.569  20.475  54.443  1.00  0.00     0.051 A 
HETATM   26  C   UNL     1       8.216  20.918  53.171  1.00  0.00     0.117 A 
HETATM   27  F   UNL     1       8.489  20.151  52.109  1.00  0.00    -0.206 F 
HETATM   28  C   UNL     1       6.773  24.565  56.314  1.00  0.00     0.109 A 
HETATM   29  H   UNL     1       7.734  23.120  57.410  1.00  0.00     0.165 HD
ENDBRANCH  13  16
ENDBRANCH  10  12
ENDBRANCH   1  10
TORSDOF 3
ENDMDL
MODEL 10
REMARK VINA RESULT:      -9.2      3.529      8.447
REMARK  3 active torsions:
REMARK  status: ('A' for Active; 'I' for Inactive)
REMARK    1  A    between atoms: C_7  and  C_8 
REMARK       I    between atoms: C_8  and  N_9 
REMARK    2  A    between atoms: N_9  and  N_10 
REMARK    3  A    between atoms: N_10  and  C_11 
ROOT
HETATM    1  C   UNL     1       7.250  24.812  54.316  1.00  0.00     0.124 A 
HETATM    2  N   UNL     1       7.752  24.991  55.552  1.00  0.00    -0.223 NA
HETATM    3  C   UNL     1       8.367  23.944  56.135  1.00  0.00     0.129 A 
HETATM    4 CL   UNL     1       8.980  24.262  57.704  1.00  0.00    -0.062 Cl
HETATM    5  C   UNL     1       8.510  22.699  55.562  1.00  0.00     0.067 A 
HETATM    6  C   UNL     1       7.972  22.524  54.293  1.00  0.00     0.051 A 
HETATM    7  C   UNL     1       8.073  21.254  53.639  1.00  0.00     0.099 C 
HETATM    8  N   UNL     1       8.159  20.224  53.114  1.00  0.00    -0.191 NA
HETATM    9  C   UNL     1       7.329  23.588  53.661  1.00  0.00     0.068 A 
ENDROOT
BRANCH   1  10
HETATM   10  N   UNL     1       6.570  25.908  53.746  1.00  0.00    -0.186 NA
HETATM   11  H   UNL     1       5.701  25.520  53.352  1.00  0.00     0.154 HD
BRANCH  10  12
HETATM   12  N   UNL     1       6.301  26.941  54.666  1.00  0.00    -0.281 N 
HETATM   13  C   UNL     1       7.134  28.042  54.651  1.00  0.00     0.271 C 
HETATM   14  O   UNL     1       7.938  28.260  53.745  1.00  0.00    -0.266 OA
HETATM   15  H   UNL     1       5.798  26.688  55.522  1.00  0.00     0.184 HD
BRANCH  13  16
HETATM   16  C   UNL     1       7.011  28.936  55.836  1.00  0.00     0.099 A 
HETATM   17  C   UNL     1       7.946  28.920  56.994  1.00  0.00     0.201 A 
HETATM   18  C   UNL     1       7.730  29.909  58.084  1.00  0.00     0.045 A 
HETATM   19  O   UNL     1       8.881  28.124  57.045  1.00  0.00    -0.286 OA
HETATM   20  C   UNL     1       6.650  30.814  57.989  1.00  0.00     0.052 A 
HETATM   21  C   UNL     1       8.606  29.936  59.172  1.00  0.00     0.060 A 
HETATM   22  C   UNL     1       6.435  31.737  59.032  1.00  0.00    -0.031 A 
HETATM   23  N   UNL     1       5.785  30.724  56.888  1.00  0.00    -0.364 N 
HETATM   24  C   UNL     1       5.298  32.719  59.002  1.00  0.00     0.050 C 
HETATM   25  C   UNL     1       7.328  31.761  60.115  1.00  0.00     0.051 A 
HETATM   26  C   UNL     1       8.395  30.868  60.175  1.00  0.00     0.117 A 
HETATM   27  F   UNL     1       9.229  30.911  61.220  1.00  0.00    -0.206 F 
HETATM   28  C   UNL     1       6.016  29.836  55.870  1.00  0.00     0.109 A 
HETATM   29  H   UNL     1       5.098  31.454  56.734  1.00  0.00     0.165 HD
ENDBRANCH  13  16
ENDBRANCH  10  12
ENDBRANCH   1  10
TORSDOF 3
ENDMDL
