MODEL 1
REMARK VINA RESULT:      -9.9      0.000      0.000
REMARK  9 active torsions:
REMARK  status: ('A' for Active; 'I' for Inactive)
REMARK    1  A    between atoms: O_2  and  C_3 
REMARK    2  A    between atoms: C_4  and  O_5 
REMARK    3  A    between atoms: C_6  and  C_7 
REMARK    4  A    between atoms: N_8  and  N_9 
REMARK       I    between atoms: N_9  and  C_10 
REMARK    5  A    between atoms: C_10  and  C_11 
REMARK    6  A    between atoms: C_11  and  N_12 
REMARK       I    between atoms: N_12  and  C_13 
REMARK    7  A    between atoms: C_13  and  C_14 
REMARK    8  A    between atoms: C_15  and  C_16 
REMARK    9  A    between atoms: C_15  and  C_22 
ROOT
HETATM    1  N   UNL     1       4.078  29.386  57.034  1.00  0.00    -0.352 N 
HETATM    2  C   UNL     1       4.632  29.063  55.821  1.00  0.00     0.223 C 
HETATM    3  O   UNL     1       4.801  29.882  54.925  1.00  0.00    -0.273 OA
HETATM    4  H   UNL     1       4.092  28.716  57.792  1.00  0.00     0.162 HD
ENDROOT
BRANCH   1   5
HETATM    5  C   UNL     1       3.577  30.719  57.304  1.00  0.00     0.227 C 
BRANCH   5   6
HETATM    6  C   UNL     1       3.659  31.099  58.783  1.00  0.00     0.255 C 
HETATM    7  N   UNL     1       4.796  31.839  59.074  1.00  0.00    -0.246 N 
HETATM    8  H   UNL     1       5.534  31.920  58.369  1.00  0.00     0.192 HD
HETATM    9  O   UNL     1       2.784  30.768  59.582  1.00  0.00    -0.270 OA
BRANCH   7  10
HETATM   10  N   UNL     1       4.965  32.392  60.307  1.00  0.00    -0.184 NA
HETATM   11  C   UNL     1       5.938  31.885  61.000  1.00  0.00     0.153 C 
BRANCH  11  12
HETATM   12  C   UNL     1       6.280  32.399  62.342  1.00  0.00     0.019 A 
HETATM   13  C   UNL     1       5.275  32.645  63.278  1.00  0.00     0.110 A 
HETATM   14  C   UNL     1       5.587  33.112  64.565  1.00  0.00     0.102 A 
HETATM   15  C   UNL     1       6.922  33.335  64.905  1.00  0.00     0.040 A 
HETATM   16  C   UNL     1       7.932  33.092  63.968  1.00  0.00     0.004 A 
HETATM   17  C   UNL     1       7.614  32.625  62.691  1.00  0.00     0.016 A 
BRANCH  13  18
HETATM   18  O   UNL     1       3.957  32.424  62.961  1.00  0.00    -0.357 OA
HETATM   19  H   UNL     1       3.599  33.304  62.728  1.00  0.00     0.218 HD
ENDBRANCH  13  18
BRANCH  14  20
HETATM   20  O   UNL     1       4.503  33.301  65.387  1.00  0.00    -0.353 OA
HETATM   21  C   UNL     1       4.740  33.999  66.605  1.00  0.00     0.210 C 
ENDBRANCH  14  20
ENDBRANCH  11  12
ENDBRANCH   7  10
ENDBRANCH   5   6
ENDBRANCH   1   5
BRANCH   2  22
HETATM   22  C   UNL     1       5.037  27.642  55.702  1.00  0.00     0.097 A 
HETATM   23  C   UNL     1       6.483  27.179  55.928  1.00  0.00     0.027 A 
HETATM   24  C   UNL     1       5.369  26.824  56.913  1.00  0.00     0.035 A 
BRANCH  23  25
HETATM   25  C   UNL     1       6.991  26.104  54.957  1.00  0.00    -0.044 A 
HETATM   26  C   UNL     1       7.140  24.768  55.377  1.00  0.00     0.008 A 
HETATM   27  C   UNL     1       7.583  23.772  54.504  1.00  0.00     0.001 A 
HETATM   28  C   UNL     1       7.892  24.090  53.185  1.00  0.00     0.000 A 
HETATM   29  C   UNL     1       7.751  25.402  52.740  1.00  0.00     0.001 A 
HETATM   30  C   UNL     1       7.300  26.394  53.616  1.00  0.00     0.008 A 
ENDBRANCH  23  25
BRANCH  23  31
HETATM   31  C   UNL     1       7.574  28.116  56.459  1.00  0.00    -0.044 A 
HETATM   32  C   UNL     1       8.511  28.695  55.581  1.00  0.00     0.008 A 
HETATM   33  C   UNL     1       9.494  29.579  56.033  1.00  0.00     0.001 A 
HETATM   34  C   UNL     1       9.562  29.909  57.383  1.00  0.00     0.000 A 
HETATM   35  C   UNL     1       8.645  29.360  58.273  1.00  0.00     0.001 A 
HETATM   36  C   UNL     1       7.660  28.482  57.814  1.00  0.00     0.008 A 
ENDBRANCH  23  31
ENDBRANCH   2  22
TORSDOF 9
ENDMDL
MODEL 2
REMARK VINA RESULT:      -9.6      2.369      4.304
REMARK  9 active torsions:
REMARK  status: ('A' for Active; 'I' for Inactive)
REMARK    1  A    between atoms: O_2  and  C_3 
REMARK    2  A    between atoms: C_4  and  O_5 
REMARK    3  A    between atoms: C_6  and  C_7 
REMARK    4  A    between atoms: N_8  and  N_9 
REMARK       I    between atoms: N_9  and  C_10 
REMARK    5  A    between atoms: C_10  and  C_11 
REMARK    6  A    between atoms: C_11  and  N_12 
REMARK       I    between atoms: N_12  and  C_13 
REMARK    7  A    between atoms: C_13  and  C_14 
REMARK    8  A    between atoms: C_15  and  C_16 
REMARK    9  A    between atoms: C_15  and  C_22 
ROOT
HETATM    1  N   UNL     1       5.956  26.864  56.598  1.00  0.00    -0.352 N 
HETATM    2  C   UNL     1       5.707  25.570  56.985  1.00  0.00     0.223 C 
HETATM    3  O   UNL     1       4.610  25.191  57.378  1.00  0.00    -0.273 OA
HETATM    4  H   UNL     1       6.830  27.097  56.145  1.00  0.00     0.162 HD
ENDROOT
BRANCH   1   5
HETATM    5  C   UNL     1       4.942  27.893  56.707  1.00  0.00     0.227 C 
BRANCH   5   6
HETATM    6  C   UNL     1       5.444  29.153  57.413  1.00  0.00     0.255 C 
HETATM    7  N   UNL     1       4.407  29.995  57.789  1.00  0.00    -0.246 N 
HETATM    8  H   UNL     1       3.463  29.814  57.435  1.00  0.00     0.192 HD
HETATM    9  O   UNL     1       6.643  29.345  57.609  1.00  0.00    -0.270 OA
BRANCH   7  10
HETATM   10  N   UNL     1       4.651  31.092  58.558  1.00  0.00    -0.184 NA
HETATM   11  C   UNL     1       3.648  31.478  59.285  1.00  0.00     0.153 C 
BRANCH  11  12
HETATM   12  C   UNL     1       3.759  32.627  60.206  1.00  0.00     0.019 A 
HETATM   13  C   UNL     1       3.702  32.430  61.587  1.00  0.00     0.110 A 
HETATM   14  C   UNL     1       3.829  33.510  62.475  1.00  0.00     0.102 A 
HETATM   15  C   UNL     1       4.011  34.797  61.964  1.00  0.00     0.040 A 
HETATM   16  C   UNL     1       4.066  34.998  60.581  1.00  0.00     0.004 A 
HETATM   17  C   UNL     1       3.942  33.919  59.704  1.00  0.00     0.016 A 
BRANCH  13  18
HETATM   18  O   UNL     1       3.530  31.170  62.105  1.00  0.00    -0.357 OA
HETATM   19  H   UNL     1       4.434  30.825  62.245  1.00  0.00     0.218 HD
ENDBRANCH  13  18
BRANCH  14  20
HETATM   20  O   UNL     1       3.764  33.173  63.804  1.00  0.00    -0.353 OA
HETATM   21  C   UNL     1       4.953  33.349  64.567  1.00  0.00     0.210 C 
ENDBRANCH  14  20
ENDBRANCH  11  12
ENDBRANCH   7  10
ENDBRANCH   5   6
ENDBRANCH   1   5
BRANCH   2  22
HETATM   22  C   UNL     1       6.875  24.667  56.857  1.00  0.00     0.097 A 
HETATM   23  C   UNL     1       7.379  24.165  55.496  1.00  0.00     0.027 A 
HETATM   24  C   UNL     1       8.187  25.162  56.329  1.00  0.00     0.035 A 
BRANCH  23  25
HETATM   25  C   UNL     1       7.821  22.696  55.457  1.00  0.00    -0.044 A 
HETATM   26  C   UNL     1       7.745  21.953  54.264  1.00  0.00     0.008 A 
HETATM   27  C   UNL     1       8.160  20.620  54.204  1.00  0.00     0.001 A 
HETATM   28  C   UNL     1       8.661  19.997  55.342  1.00  0.00     0.000 A 
HETATM   29  C   UNL     1       8.753  20.707  56.535  1.00  0.00     0.001 A 
HETATM   30  C   UNL     1       8.343  22.043  56.588  1.00  0.00     0.008 A 
ENDBRANCH  23  25
BRANCH  23  31
HETATM   31  C   UNL     1       6.826  24.694  54.167  1.00  0.00    -0.044 A 
HETATM   32  C   UNL     1       7.665  25.376  53.264  1.00  0.00     0.008 A 
HETATM   33  C   UNL     1       7.196  25.838  52.031  1.00  0.00     0.001 A 
HETATM   34  C   UNL     1       5.869  25.625  51.670  1.00  0.00     0.000 A 
HETATM   35  C   UNL     1       5.019  24.947  52.538  1.00  0.00     0.001 A 
HETATM   36  C   UNL     1       5.495  24.481  53.767  1.00  0.00     0.008 A 
ENDBRANCH  23  31
ENDBRANCH   2  22
TORSDOF 9
ENDMDL
MODEL 3
REMARK VINA RESULT:      -9.4      5.437      8.996
REMARK  9 active torsions:
REMARK  status: ('A' for Active; 'I' for Inactive)
REMARK    1  A    between atoms: O_2  and  C_3 
REMARK    2  A    between atoms: C_4  and  O_5 
REMARK    3  A    between atoms: C_6  and  C_7 
REMARK    4  A    between atoms: N_8  and  N_9 
REMARK       I    between atoms: N_9  and  C_10 
REMARK    5  A    between atoms: C_10  and  C_11 
REMARK    6  A    between atoms: C_11  and  N_12 
REMARK       I    between atoms: N_12  and  C_13 
REMARK    7  A    between atoms: C_13  and  C_14 
REMARK    8  A    between atoms: C_15  and  C_16 
REMARK    9  A    between atoms: C_15  and  C_22 
ROOT
HETATM    1  N   UNL     1       6.217  26.879  56.932  1.00  0.00    -0.352 N 
HETATM    2  C   UNL     1       5.865  25.556  57.034  1.00  0.00     0.223 C 
HETATM    3  O   UNL     1       4.709  25.185  57.206  1.00  0.00    -0.273 OA
HETATM    4  H   UNL     1       7.154  27.133  56.646  1.00  0.00     0.162 HD
ENDROOT
BRANCH   1   5
HETATM    5  C   UNL     1       5.240  27.936  57.104  1.00  0.00     0.227 C 
BRANCH   5   6
HETATM    6  C   UNL     1       5.032  28.767  55.837  1.00  0.00     0.255 C 
HETATM    7  N   UNL     1       4.252  28.108  54.898  1.00  0.00    -0.246 N 
HETATM    8  H   UNL     1       4.037  27.116  55.034  1.00  0.00     0.192 HD
HETATM    9  O   UNL     1       5.515  29.892  55.720  1.00  0.00    -0.270 OA
BRANCH   7  10
HETATM   10  N   UNL     1       3.838  28.749  53.770  1.00  0.00    -0.184 NA
HETATM   11  C   UNL     1       4.588  28.556  52.730  1.00  0.00     0.153 C 
BRANCH  11  12
HETATM   12  C   UNL     1       4.255  29.148  51.417  1.00  0.00     0.019 A 
HETATM   13  C   UNL     1       2.937  29.145  50.959  1.00  0.00     0.110 A 
HETATM   14  C   UNL     1       2.603  29.724  49.724  1.00  0.00     0.102 A 
HETATM   15  C   UNL     1       3.607  30.305  48.947  1.00  0.00     0.040 A 
HETATM   16  C   UNL     1       4.930  30.306  49.403  1.00  0.00     0.004 A 
HETATM   17  C   UNL     1       5.254  29.732  50.633  1.00  0.00     0.016 A 
BRANCH  13  18
HETATM   18  O   UNL     1       1.937  28.584  51.714  1.00  0.00    -0.357 OA
HETATM   19  H   UNL     1       2.040  27.619  51.598  1.00  0.00     0.218 HD
ENDBRANCH  13  18
BRANCH  14  20
HETATM   20  O   UNL     1       1.270  29.660  49.401  1.00  0.00    -0.353 OA
HETATM   21  C   UNL     1       0.846  30.436  48.285  1.00  0.00     0.210 C 
ENDBRANCH  14  20
ENDBRANCH  11  12
ENDBRANCH   7  10
ENDBRANCH   5   6
ENDBRANCH   1   5
BRANCH   2  22
HETATM   22  C   UNL     1       7.001  24.617  56.888  1.00  0.00     0.097 A 
HETATM   23  C   UNL     1       7.451  24.080  55.522  1.00  0.00     0.027 A 
HETATM   24  C   UNL     1       8.312  25.064  56.315  1.00  0.00     0.035 A 
BRANCH  23  25
HETATM   25  C   UNL     1       7.849  22.597  55.493  1.00  0.00    -0.044 A 
HETATM   26  C   UNL     1       7.709  21.837  54.317  1.00  0.00     0.008 A 
HETATM   27  C   UNL     1       8.083  20.491  54.266  1.00  0.00     0.001 A 
HETATM   28  C   UNL     1       8.604  19.872  55.398  1.00  0.00     0.000 A 
HETATM   29  C   UNL     1       8.758  20.600  56.575  1.00  0.00     0.001 A 
HETATM   30  C   UNL     1       8.389  21.948  56.618  1.00  0.00     0.008 A 
ENDBRANCH  23  25
BRANCH  23  31
HETATM   31  C   UNL     1       6.877  24.605  54.201  1.00  0.00    -0.044 A 
HETATM   32  C   UNL     1       7.722  25.175  53.229  1.00  0.00     0.008 A 
HETATM   33  C   UNL     1       7.231  25.630  52.003  1.00  0.00     0.001 A 
HETATM   34  C   UNL     1       5.874  25.522  51.717  1.00  0.00     0.000 A 
HETATM   35  C   UNL     1       5.015  24.955  52.653  1.00  0.00     0.001 A 
HETATM   36  C   UNL     1       5.514  24.495  53.875  1.00  0.00     0.008 A 
ENDBRANCH  23  31
ENDBRANCH   2  22
TORSDOF 9
ENDMDL
MODEL 4
REMARK VINA RESULT:      -9.2      5.385      8.946
REMARK  9 active torsions:
REMARK  status: ('A' for Active; 'I' for Inactive)
REMARK    1  A    between atoms: O_2  and  C_3 
REMARK    2  A    between atoms: C_4  and  O_5 
REMARK    3  A    between atoms: C_6  and  C_7 
REMARK    4  A    between atoms: N_8  and  N_9 
REMARK       I    between atoms: N_9  and  C_10 
REMARK    5  A    between atoms: C_10  and  C_11 
REMARK    6  A    between atoms: C_11  and  N_12 
REMARK       I    between atoms: N_12  and  C_13 
REMARK    7  A    between atoms: C_13  and  C_14 
REMARK    8  A    between atoms: C_15  and  C_16 
REMARK    9  A    between atoms: C_15  and  C_22 
ROOT
HETATM    1  N   UNL     1       6.275  26.878  56.858  1.00  0.00    -0.352 N 
HETATM    2  C   UNL     1       5.906  25.556  56.870  1.00  0.00     0.223 C 
HETATM    3  O   UNL     1       4.756  25.185  57.072  1.00  0.00    -0.273 OA
HETATM    4  H   UNL     1       7.199  27.144  56.544  1.00  0.00     0.162 HD
ENDROOT
BRANCH   1   5
HETATM    5  C   UNL     1       5.326  27.929  57.169  1.00  0.00     0.227 C 
BRANCH   5   6
HETATM    6  C   UNL     1       4.773  28.621  55.922  1.00  0.00     0.255 C 
HETATM    7  N   UNL     1       4.415  27.716  54.933  1.00  0.00    -0.246 N 
HETATM    8  H   UNL     1       4.691  26.735  55.029  1.00  0.00     0.192 HD
HETATM    9  O   UNL     1       4.670  29.845  55.859  1.00  0.00    -0.270 OA
BRANCH   7  10
HETATM   10  N   UNL     1       3.767  28.138  53.812  1.00  0.00    -0.184 NA
HETATM   11  C   UNL     1       4.515  28.766  52.958  1.00  0.00     0.153 C 
BRANCH  11  12
HETATM   12  C   UNL     1       3.976  29.254  51.671  1.00  0.00     0.019 A 
HETATM   13  C   UNL     1       4.816  29.882  50.750  1.00  0.00     0.110 A 
HETATM   14  C   UNL     1       4.323  30.330  49.515  1.00  0.00     0.102 A 
HETATM   15  C   UNL     1       2.973  30.145  49.210  1.00  0.00     0.040 A 
HETATM   16  C   UNL     1       2.128  29.517  50.132  1.00  0.00     0.004 A 
HETATM   17  C   UNL     1       2.626  29.072  51.358  1.00  0.00     0.016 A 
BRANCH  13  18
HETATM   18  O   UNL     1       6.147  30.066  51.033  1.00  0.00    -0.357 OA
HETATM   19  H   UNL     1       6.226  31.006  51.293  1.00  0.00     0.218 HD
ENDBRANCH  13  18
BRANCH  14  20
HETATM   20  O   UNL     1       5.258  30.921  48.702  1.00  0.00    -0.353 OA
HETATM   21  C   UNL     1       5.184  32.336  48.568  1.00  0.00     0.210 C 
ENDBRANCH  14  20
ENDBRANCH  11  12
ENDBRANCH   7  10
ENDBRANCH   5   6
ENDBRANCH   1   5
BRANCH   2  22
HETATM   22  C   UNL     1       7.018  24.618  56.586  1.00  0.00     0.097 A 
HETATM   23  C   UNL     1       7.353  24.150  55.162  1.00  0.00     0.027 A 
HETATM   24  C   UNL     1       8.284  25.087  55.935  1.00  0.00     0.035 A 
BRANCH  23  25
HETATM   25  C   UNL     1       7.732  22.669  55.025  1.00  0.00    -0.044 A 
HETATM   26  C   UNL     1       7.892  22.081  53.757  1.00  0.00     0.008 A 
HETATM   27  C   UNL     1       8.254  20.739  53.612  1.00  0.00     0.001 A 
HETATM   28  C   UNL     1       8.463  19.951  54.739  1.00  0.00     0.000 A 
HETATM   29  C   UNL     1       8.316  20.505  56.007  1.00  0.00     0.001 A 
HETATM   30  C   UNL     1       7.960  21.851  56.146  1.00  0.00     0.008 A 
ENDBRANCH  23  25
BRANCH  23  31
HETATM   31  C   UNL     1       6.682  24.748  53.920  1.00  0.00    -0.044 A 
HETATM   32  C   UNL     1       7.398  25.607  53.063  1.00  0.00     0.008 A 
HETATM   33  C   UNL     1       6.822  26.138  51.906  1.00  0.00     0.001 A 
HETATM   34  C   UNL     1       5.509  25.818  51.575  1.00  0.00     0.000 A 
HETATM   35  C   UNL     1       4.779  24.965  52.397  1.00  0.00     0.001 A 
HETATM   36  C   UNL     1       5.363  24.431  53.549  1.00  0.00     0.008 A 
ENDBRANCH  23  31
ENDBRANCH   2  22
TORSDOF 9
ENDMDL
MODEL 5
REMARK VINA RESULT:      -9.2      2.018      3.314
REMARK  9 active torsions:
REMARK  status: ('A' for Active; 'I' for Inactive)
REMARK    1  A    between atoms: O_2  and  C_3 
REMARK    2  A    between atoms: C_4  and  O_5 
REMARK    3  A    between atoms: C_6  and  C_7 
REMARK    4  A    between atoms: N_8  and  N_9 
REMARK       I    between atoms: N_9  and  C_10 
REMARK    5  A    between atoms: C_10  and  C_11 
REMARK    6  A    between atoms: C_11  and  N_12 
REMARK       I    between atoms: N_12  and  C_13 
REMARK    7  A    between atoms: C_13  and  C_14 
REMARK    8  A    between atoms: C_15  and  C_16 
REMARK    9  A    between atoms: C_15  and  C_22 
ROOT
HETATM    1  N   UNL     1       6.830  29.754  56.435  1.00  0.00    -0.352 N 
HETATM    2  C   UNL     1       6.414  28.446  56.433  1.00  0.00     0.223 C 
HETATM    3  O   UNL     1       5.418  28.062  57.035  1.00  0.00    -0.273 OA
HETATM    4  H   UNL     1       7.568  30.051  55.809  1.00  0.00     0.162 HD
ENDROOT
BRANCH   1   5
HETATM    5  C   UNL     1       6.153  30.761  57.227  1.00  0.00     0.227 C 
BRANCH   5   6
HETATM    6  C   UNL     1       6.869  31.066  58.543  1.00  0.00     0.255 C 
HETATM    7  N   UNL     1       6.335  32.172  59.188  1.00  0.00    -0.246 N 
HETATM    8  H   UNL     1       5.667  32.768  58.690  1.00  0.00     0.192 HD
HETATM    9  O   UNL     1       7.803  30.373  58.943  1.00  0.00    -0.270 OA
BRANCH   7  10
HETATM   10  N   UNL     1       6.746  32.507  60.442  1.00  0.00    -0.184 NA
HETATM   11  C   UNL     1       5.787  32.703  61.294  1.00  0.00     0.153 C 
BRANCH  11  12
HETATM   12  C   UNL     1       6.064  33.033  62.707  1.00  0.00     0.019 A 
HETATM   13  C   UNL     1       5.012  33.219  63.605  1.00  0.00     0.110 A 
HETATM   14  C   UNL     1       5.260  33.511  64.955  1.00  0.00     0.102 A 
HETATM   15  C   UNL     1       6.579  33.619  65.399  1.00  0.00     0.040 A 
HETATM   16  C   UNL     1       7.636  33.436  64.502  1.00  0.00     0.004 A 
HETATM   17  C   UNL     1       7.382  33.143  63.160  1.00  0.00     0.016 A 
BRANCH  13  18
HETATM   18  O   UNL     1       3.709  33.110  63.185  1.00  0.00    -0.357 OA
HETATM   19  H   UNL     1       3.215  33.770  63.710  1.00  0.00     0.218 HD
ENDBRANCH  13  18
BRANCH  14  20
HETATM   20  O   UNL     1       4.135  33.660  65.728  1.00  0.00    -0.353 OA
HETATM   21  C   UNL     1       4.176  34.673  66.727  1.00  0.00     0.210 C 
ENDBRANCH  14  20
ENDBRANCH  11  12
ENDBRANCH   7  10
ENDBRANCH   5   6
ENDBRANCH   1   5
BRANCH   2  22
HETATM   22  C   UNL     1       7.258  27.545  55.613  1.00  0.00     0.097 A 
HETATM   23  C   UNL     1       6.897  27.174  54.167  1.00  0.00     0.027 A 
HETATM   24  C   UNL     1       8.092  28.074  54.486  1.00  0.00     0.035 A 
BRANCH  23  25
HETATM   25  C   UNL     1       7.150  25.710  53.779  1.00  0.00    -0.044 A 
HETATM   26  C   UNL     1       7.690  25.382  52.522  1.00  0.00     0.008 A 
HETATM   27  C   UNL     1       7.944  24.057  52.157  1.00  0.00     0.001 A 
HETATM   28  C   UNL     1       7.659  23.025  53.046  1.00  0.00     0.000 A 
HETATM   29  C   UNL     1       7.128  23.319  54.299  1.00  0.00     0.001 A 
HETATM   30  C   UNL     1       6.883  24.648  54.661  1.00  0.00     0.008 A 
ENDBRANCH  23  25
BRANCH  23  31
HETATM   31  C   UNL     1       5.741  27.837  53.410  1.00  0.00    -0.044 A 
HETATM   32  C   UNL     1       4.405  27.509  53.713  1.00  0.00     0.008 A 
HETATM   33  C   UNL     1       3.332  28.123  53.063  1.00  0.00     0.001 A 
HETATM   34  C   UNL     1       3.570  29.089  52.091  1.00  0.00     0.000 A 
HETATM   35  C   UNL     1       4.879  29.442  51.776  1.00  0.00     0.001 A 
HETATM   36  C   UNL     1       5.949  28.828  52.435  1.00  0.00     0.008 A 
ENDBRANCH  23  31
ENDBRANCH   2  22
TORSDOF 9
ENDMDL
MODEL 6
REMARK VINA RESULT:      -9.1      6.887     12.024
REMARK  9 active torsions:
REMARK  status: ('A' for Active; 'I' for Inactive)
REMARK    1  A    between atoms: O_2  and  C_3 
REMARK    2  A    between atoms: C_4  and  O_5 
REMARK    3  A    between atoms: C_6  and  C_7 
REMARK    4  A    between atoms: N_8  and  N_9 
REMARK       I    between atoms: N_9  and  C_10 
REMARK    5  A    between atoms: C_10  and  C_11 
REMARK    6  A    between atoms: C_11  and  N_12 
REMARK       I    between atoms: N_12  and  C_13 
REMARK    7  A    between atoms: C_13  and  C_14 
REMARK    8  A    between atoms: C_15  and  C_16 
REMARK    9  A    between atoms: C_15  and  C_22 
ROOT
HETATM    1  N   UNL     1       5.643  26.375  50.785  1.00  0.00    -0.352 N 
HETATM    2  C   UNL     1       5.068  26.336  52.031  1.00  0.00     0.223 C 
HETATM    3  O   UNL     1       4.304  27.203  52.441  1.00  0.00    -0.273 OA
HETATM    4  H   UNL     1       6.147  25.571  50.435  1.00  0.00     0.162 HD
ENDROOT
BRANCH   1   5
HETATM    5  C   UNL     1       5.442  27.502  49.896  1.00  0.00     0.227 C 
BRANCH   5   6
HETATM    6  C   UNL     1       4.315  27.273  48.888  1.00  0.00     0.255 C 
HETATM    7  N   UNL     1       3.072  27.618  49.401  1.00  0.00    -0.246 N 
HETATM    8  H   UNL     1       2.982  27.816  50.402  1.00  0.00     0.192 HD
HETATM    9  O   UNL     1       4.539  26.839  47.760  1.00  0.00    -0.270 OA
BRANCH   7  10
HETATM   10  N   UNL     1       1.971  27.621  48.601  1.00  0.00    -0.184 NA
HETATM   11  C   UNL     1       1.771  28.731  47.959  1.00  0.00     0.153 C 
BRANCH  11  12
HETATM   12  C   UNL     1       0.642  28.886  47.018  1.00  0.00     0.019 A 
HETATM   13  C   UNL     1       0.338  27.870  46.110  1.00  0.00     0.110 A 
HETATM   14  C   UNL     1      -0.745  27.994  45.226  1.00  0.00     0.102 A 
HETATM   15  C   UNL     1      -1.523  29.152  45.257  1.00  0.00     0.040 A 
HETATM   16  C   UNL     1      -1.220  30.173  46.164  1.00  0.00     0.004 A 
HETATM   17  C   UNL     1      -0.143  30.042  47.042  1.00  0.00     0.016 A 
BRANCH  13  18
HETATM   18  O   UNL     1       1.090  26.722  46.072  1.00  0.00    -0.357 OA
HETATM   19  H   UNL     1       1.114  26.400  46.995  1.00  0.00     0.218 HD
ENDBRANCH  13  18
BRANCH  14  20
HETATM   20  O   UNL     1      -0.936  26.917  44.395  1.00  0.00    -0.353 OA
HETATM   21  C   UNL     1      -0.958  27.185  42.998  1.00  0.00     0.210 C 
ENDBRANCH  14  20
ENDBRANCH  11  12
ENDBRANCH   7  10
ENDBRANCH   5   6
ENDBRANCH   1   5
BRANCH   2  22
HETATM   22  C   UNL     1       5.428  25.138  52.824  1.00  0.00     0.097 A 
HETATM   23  C   UNL     1       6.368  25.208  54.037  1.00  0.00     0.027 A 
HETATM   24  C   UNL     1       4.875  24.920  54.200  1.00  0.00     0.035 A 
BRANCH  23  25
HETATM   25  C   UNL     1       7.368  24.051  54.165  1.00  0.00    -0.044 A 
HETATM   26  C   UNL     1       7.959  23.744  55.405  1.00  0.00     0.008 A 
HETATM   27  C   UNL     1       8.858  22.683  55.545  1.00  0.00     0.001 A 
HETATM   28  C   UNL     1       9.190  21.904  54.442  1.00  0.00     0.000 A 
HETATM   29  C   UNL     1       8.619  22.181  53.203  1.00  0.00     0.001 A 
HETATM   30  C   UNL     1       7.714  23.239  53.070  1.00  0.00     0.008 A 
ENDBRANCH  23  25
BRANCH  23  31
HETATM   31  C   UNL     1       6.862  26.537  54.620  1.00  0.00    -0.044 A 
HETATM   32  C   UNL     1       6.345  27.021  55.838  1.00  0.00     0.008 A 
HETATM   33  C   UNL     1       6.802  28.211  56.409  1.00  0.00     0.001 A 
HETATM   34  C   UNL     1       7.794  28.950  55.772  1.00  0.00     0.000 A 
HETATM   35  C   UNL     1       8.331  28.493  54.572  1.00  0.00     0.001 A 
HETATM   36  C   UNL     1       7.875  27.298  54.010  1.00  0.00     0.008 A 
ENDBRANCH  23  31
ENDBRANCH   2  22
TORSDOF 9
ENDMDL
MODEL 7
REMARK VINA RESULT:      -8.8      1.986      3.234
REMARK  9 active torsions:
REMARK  status: ('A' for Active; 'I' for Inactive)
REMARK    1  A    between atoms: O_2  and  C_3 
REMARK    2  A    between atoms: C_4  and  O_5 
REMARK    3  A    between atoms: C_6  and  C_7 
REMARK    4  A    between atoms: N_8  and  N_9 
REMARK       I    between atoms: N_9  and  C_10 
REMARK    5  A    between atoms: C_10  and  C_11 
REMARK    6  A    between atoms: C_11  and  N_12 
REMARK       I    between atoms: N_12  and  C_13 
REMARK    7  A    between atoms: C_13  and  C_14 
REMARK    8  A    between atoms: C_15  and  C_16 
REMARK    9  A    between atoms: C_15  and  C_22 
ROOT
HETATM    1  N   UNL     1       4.168  28.177  54.597  1.00  0.00    -0.352 N 
HETATM    2  C   UNL     1       4.734  27.353  53.656  1.00  0.00     0.223 C 
HETATM    3  O   UNL     1       4.945  27.705  52.501  1.00  0.00    -0.273 OA
HETATM    4  H   UNL     1       4.148  27.897  55.568  1.00  0.00     0.162 HD
ENDROOT
BRANCH   1   5
HETATM    5  C   UNL     1       3.706  29.508  54.254  1.00  0.00     0.227 C 
BRANCH   5   6
HETATM    6  C   UNL     1       4.038  30.549  55.324  1.00  0.00     0.255 C 
HETATM    7  N   UNL     1       4.945  30.071  56.260  1.00  0.00    -0.246 N 
HETATM    8  H   UNL     1       5.173  29.072  56.271  1.00  0.00     0.192 HD
HETATM    9  O   UNL     1       3.538  31.672  55.306  1.00  0.00    -0.270 OA
BRANCH   7  10
HETATM   10  N   UNL     1       5.471  30.902  57.201  1.00  0.00    -0.184 NA
HETATM   11  C   UNL     1       6.483  30.415  57.849  1.00  0.00     0.153 C 
BRANCH  11  12
HETATM   12  C   UNL     1       7.195  31.205  58.876  1.00  0.00     0.019 A 
HETATM   13  C   UNL     1       6.481  31.856  59.883  1.00  0.00     0.110 A 
HETATM   14  C   UNL     1       7.145  32.590  60.878  1.00  0.00     0.102 A 
HETATM   15  C   UNL     1       8.538  32.670  60.853  1.00  0.00     0.040 A 
HETATM   16  C   UNL     1       9.257  32.022  59.844  1.00  0.00     0.004 A 
HETATM   17  C   UNL     1       8.590  31.290  58.859  1.00  0.00     0.016 A 
BRANCH  13  18
HETATM   18  O   UNL     1       5.110  31.781  59.925  1.00  0.00    -0.357 OA
HETATM   19  H   UNL     1       4.803  32.709  59.914  1.00  0.00     0.218 HD
ENDBRANCH  13  18
BRANCH  14  20
HETATM   20  O   UNL     1       6.321  33.170  61.811  1.00  0.00    -0.353 OA
HETATM   21  C   UNL     1       6.883  33.411  63.096  1.00  0.00     0.210 C 
ENDBRANCH  14  20
ENDBRANCH  11  12
ENDBRANCH   7  10
ENDBRANCH   5   6
ENDBRANCH   1   5
BRANCH   2  22
HETATM   22  C   UNL     1       5.095  26.011  54.169  1.00  0.00     0.097 A 
HETATM   23  C   UNL     1       6.414  25.742  54.907  1.00  0.00     0.027 A 
HETATM   24  C   UNL     1       5.070  25.706  55.636  1.00  0.00     0.035 A 
BRANCH  23  25
HETATM   25  C   UNL     1       7.107  24.418  54.559  1.00  0.00    -0.044 A 
HETATM   26  C   UNL     1       7.626  24.194  53.270  1.00  0.00     0.008 A 
HETATM   27  C   UNL     1       8.277  23.003  52.938  1.00  0.00     0.001 A 
HETATM   28  C   UNL     1       8.422  22.002  53.893  1.00  0.00     0.000 A 
HETATM   29  C   UNL     1       7.923  22.195  55.178  1.00  0.00     0.001 A 
HETATM   30  C   UNL     1       7.279  23.393  55.506  1.00  0.00     0.008 A 
ENDBRANCH  23  25
BRANCH  23  31
HETATM   31  C   UNL     1       7.371  26.866  55.320  1.00  0.00    -0.044 A 
HETATM   32  C   UNL     1       7.832  26.963  56.647  1.00  0.00     0.008 A 
HETATM   33  C   UNL     1       8.731  27.957  57.042  1.00  0.00     0.001 A 
HETATM   34  C   UNL     1       9.195  28.882  56.113  1.00  0.00     0.000 A 
HETATM   35  C   UNL     1       8.764  28.807  54.792  1.00  0.00     0.001 A 
HETATM   36  C   UNL     1       7.870  27.806  54.401  1.00  0.00     0.008 A 
ENDBRANCH  23  31
ENDBRANCH   2  22
TORSDOF 9
ENDMDL
MODEL 8
REMARK VINA RESULT:      -8.8      2.226      3.660
REMARK  9 active torsions:
REMARK  status: ('A' for Active; 'I' for Inactive)
REMARK    1  A    between atoms: O_2  and  C_3 
REMARK    2  A    between atoms: C_4  and  O_5 
REMARK    3  A    between atoms: C_6  and  C_7 
REMARK    4  A    between atoms: N_8  and  N_9 
REMARK       I    between atoms: N_9  and  C_10 
REMARK    5  A    between atoms: C_10  and  C_11 
REMARK    6  A    between atoms: C_11  and  N_12 
REMARK       I    between atoms: N_12  and  C_13 
REMARK    7  A    between atoms: C_13  and  C_14 
REMARK    8  A    between atoms: C_15  and  C_16 
REMARK    9  A    between atoms: C_15  and  C_22 
ROOT
HETATM    1  N   UNL     1       7.515  28.804  57.119  1.00  0.00    -0.352 N 
HETATM    2  C   UNL     1       7.286  27.455  57.009  1.00  0.00     0.223 C 
HETATM    3  O   UNL     1       7.875  26.621  57.687  1.00  0.00    -0.273 OA
HETATM    4  H   UNL     1       6.907  29.461  56.648  1.00  0.00     0.162 HD
ENDROOT
BRANCH   1   5
HETATM    5  C   UNL     1       8.540  29.326  58.001  1.00  0.00     0.227 C 
BRANCH   5   6
HETATM    6  C   UNL     1       8.048  30.487  58.866  1.00  0.00     0.255 C 
HETATM    7  N   UNL     1       8.454  30.367  60.188  1.00  0.00    -0.246 N 
HETATM    8  H   UNL     1       8.871  29.486  60.505  1.00  0.00     0.192 HD
HETATM    9  O   UNL     1       7.378  31.403  58.394  1.00  0.00    -0.270 OA
BRANCH   7  10
HETATM   10  N   UNL     1       8.237  31.378  61.073  1.00  0.00    -0.184 NA
HETATM   11  C   UNL     1       7.307  31.143  61.947  1.00  0.00     0.153 C 
BRANCH  11  12
HETATM   12  C   UNL     1       6.975  32.121  63.003  1.00  0.00     0.019 A 
HETATM   13  C   UNL     1       5.646  32.333  63.372  1.00  0.00     0.110 A 
HETATM   14  C   UNL     1       5.317  33.243  64.390  1.00  0.00     0.102 A 
HETATM   15  C   UNL     1       6.337  33.944  65.035  1.00  0.00     0.040 A 
HETATM   16  C   UNL     1       7.670  33.736  64.666  1.00  0.00     0.004 A 
HETATM   17  C   UNL     1       7.990  32.828  63.655  1.00  0.00     0.016 A 
BRANCH  13  18
HETATM   18  O   UNL     1       4.632  31.646  62.752  1.00  0.00    -0.357 OA
HETATM   19  H   UNL     1       4.936  30.717  62.716  1.00  0.00     0.218 HD
ENDBRANCH  13  18
BRANCH  14  20
HETATM   20  O   UNL     1       3.974  33.346  64.658  1.00  0.00    -0.353 OA
HETATM   21  C   UNL     1       3.560  34.473  65.420  1.00  0.00     0.210 C 
ENDBRANCH  14  20
ENDBRANCH  11  12
ENDBRANCH   7  10
ENDBRANCH   5   6
ENDBRANCH   1   5
BRANCH   2  22
HETATM   22  C   UNL     1       6.242  27.099  56.019  1.00  0.00     0.097 A 
HETATM   23  C   UNL     1       6.270  25.779  55.236  1.00  0.00     0.027 A 
HETATM   24  C   UNL     1       5.218  26.045  56.314  1.00  0.00     0.035 A 
BRANCH  23  25
HETATM   25  C   UNL     1       5.865  25.880  53.758  1.00  0.00    -0.044 A 
HETATM   26  C   UNL     1       5.076  24.881  53.159  1.00  0.00     0.008 A 
HETATM   27  C   UNL     1       4.682  24.963  51.821  1.00  0.00     0.001 A 
HETATM   28  C   UNL     1       5.073  26.052  51.047  1.00  0.00     0.000 A 
HETATM   29  C   UNL     1       5.851  27.058  51.614  1.00  0.00     0.001 A 
HETATM   30  C   UNL     1       6.236  26.973  52.956  1.00  0.00     0.008 A 
ENDBRANCH  23  25
BRANCH  23  31
HETATM   31  C   UNL     1       7.275  24.662  55.540  1.00  0.00    -0.044 A 
HETATM   32  C   UNL     1       7.222  23.966  56.764  1.00  0.00     0.008 A 
HETATM   33  C   UNL     1       8.103  22.920  57.053  1.00  0.00     0.001 A 
HETATM   34  C   UNL     1       9.061  22.542  56.119  1.00  0.00     0.000 A 
HETATM   35  C   UNL     1       9.132  23.205  54.898  1.00  0.00     0.001 A 
HETATM   36  C   UNL     1       8.244  24.245  54.611  1.00  0.00     0.008 A 
ENDBRANCH  23  31
ENDBRANCH   2  22
TORSDOF 9
ENDMDL
MODEL 9
REMARK VINA RESULT:      -8.6      2.204      4.107
REMARK  9 active torsions:
REMARK  status: ('A' for Active; 'I' for Inactive)
REMARK    1  A    between atoms: O_2  and  C_3 
REMARK    2  A    between atoms: C_4  and  O_5 
REMARK    3  A    between atoms: C_6  and  C_7 
REMARK    4  A    between atoms: N_8  and  N_9 
REMARK       I    between atoms: N_9  and  C_10 
REMARK    5  A    between atoms: C_10  and  C_11 
REMARK    6  A    between atoms: C_11  and  N_12 
REMARK       I    between atoms: N_12  and  C_13 
REMARK    7  A    between atoms: C_13  and  C_14 
REMARK    8  A    between atoms: C_15  and  C_16 
REMARK    9  A    between atoms: C_15  and  C_22 
ROOT
HETATM    1  N   UNL     1       6.347  27.737  55.786  1.00  0.00    -0.352 N 
HETATM    2  C   UNL     1       5.976  26.578  56.422  1.00  0.00     0.223 C 
HETATM    3  O   UNL     1       4.858  26.403  56.893  1.00  0.00    -0.273 OA
HETATM    4  H   UNL     1       7.226  27.782  55.288  1.00  0.00     0.162 HD
ENDROOT
BRANCH   1   5
HETATM    5  C   UNL     1       5.450  28.872  55.704  1.00  0.00     0.227 C 
BRANCH   5   6
HETATM    6  C   UNL     1       5.380  29.674  57.004  1.00  0.00     0.255 C 
HETATM    7  N   UNL     1       6.635  30.068  57.447  1.00  0.00    -0.246 N 
HETATM    8  H   UNL     1       7.469  29.672  57.003  1.00  0.00     0.192 HD
HETATM    9  O   UNL     1       4.307  29.922  57.550  1.00  0.00    -0.270 OA
BRANCH   7  10
HETATM   10  N   UNL     1       6.761  30.914  58.506  1.00  0.00    -0.184 NA
HETATM   11  C   UNL     1       7.529  30.481  59.458  1.00  0.00     0.153 C 
BRANCH  11  12
HETATM   12  C   UNL     1       7.803  31.295  60.660  1.00  0.00     0.019 A 
HETATM   13  C   UNL     1       6.767  31.979  61.297  1.00  0.00     0.110 A 
HETATM   14  C   UNL     1       7.008  32.738  62.453  1.00  0.00     0.102 A 
HETATM   15  C   UNL     1       8.305  32.808  62.966  1.00  0.00     0.040 A 
HETATM   16  C   UNL     1       9.346  32.126  62.328  1.00  0.00     0.004 A 
HETATM   17  C   UNL     1       9.098  31.371  61.180  1.00  0.00     0.016 A 
BRANCH  13  18
HETATM   18  O   UNL     1       5.485  31.915  60.809  1.00  0.00    -0.357 OA
HETATM   19  H   UNL     1       4.976  31.431  61.489  1.00  0.00     0.218 HD
ENDBRANCH  13  18
BRANCH  14  20
HETATM   20  O   UNL     1       5.899  33.350  62.982  1.00  0.00    -0.353 OA
HETATM   21  C   UNL     1       6.098  34.626  63.580  1.00  0.00     0.210 C 
ENDBRANCH  14  20
ENDBRANCH  11  12
ENDBRANCH   7  10
ENDBRANCH   5   6
ENDBRANCH   1   5
BRANCH   2  22
HETATM   22  C   UNL     1       7.038  25.545  56.461  1.00  0.00     0.097 A 
HETATM   23  C   UNL     1       7.368  24.660  55.249  1.00  0.00     0.027 A 
HETATM   24  C   UNL     1       8.337  25.738  55.738  1.00  0.00     0.035 A 
BRANCH  23  25
HETATM   25  C   UNL     1       7.667  23.189  55.569  1.00  0.00    -0.044 A 
HETATM   26  C   UNL     1       7.561  22.201  54.573  1.00  0.00     0.008 A 
HETATM   27  C   UNL     1       7.846  20.859  54.839  1.00  0.00     0.001 A 
HETATM   28  C   UNL     1       8.244  20.474  56.115  1.00  0.00     0.000 A 
HETATM   29  C   UNL     1       8.361  21.429  57.120  1.00  0.00     0.001 A 
HETATM   30  C   UNL     1       8.081  22.772  56.846  1.00  0.00     0.008 A 
ENDBRANCH  23  25
BRANCH  23  31
HETATM   31  C   UNL     1       6.747  24.893  53.867  1.00  0.00    -0.044 A 
HETATM   32  C   UNL     1       5.364  24.721  53.665  1.00  0.00     0.008 A 
HETATM   33  C   UNL     1       4.767  24.960  52.424  1.00  0.00     0.001 A 
HETATM   34  C   UNL     1       5.544  25.382  51.350  1.00  0.00     0.000 A 
HETATM   35  C   UNL     1       6.912  25.569  51.521  1.00  0.00     0.001 A 
HETATM   36  C   UNL     1       7.503  25.336  52.767  1.00  0.00     0.008 A 
ENDBRANCH  23  31
ENDBRANCH   2  22
TORSDOF 9
ENDMDL
MODEL 10
REMARK VINA RESULT:      -8.5      3.496      5.181
REMARK  9 active torsions:
REMARK  status: ('A' for Active; 'I' for Inactive)
REMARK    1  A    between atoms: O_2  and  C_3 
REMARK    2  A    between atoms: C_4  and  O_5 
REMARK    3  A    between atoms: C_6  and  C_7 
REMARK    4  A    between atoms: N_8  and  N_9 
REMARK       I    between atoms: N_9  and  C_10 
REMARK    5  A    between atoms: C_10  and  C_11 
REMARK    6  A    between atoms: C_11  and  N_12 
REMARK       I    between atoms: N_12  and  C_13 
REMARK    7  A    between atoms: C_13  and  C_14 
REMARK    8  A    between atoms: C_15  and  C_16 
REMARK    9  A    between atoms: C_15  and  C_22 
ROOT
HETATM    1  N   UNL     1       4.235  27.070  52.141  1.00  0.00    -0.352 N 
HETATM    2  C   UNL     1       5.207  26.204  51.706  1.00  0.00     0.223 C 
HETATM    3  O   UNL     1       5.915  26.431  50.732  1.00  0.00    -0.273 OA
HETATM    4  H   UNL     1       3.776  26.912  53.029  1.00  0.00     0.162 HD
ENDROOT
BRANCH   1   5
HETATM    5  C   UNL     1       3.928  28.287  51.416  1.00  0.00     0.227 C 
BRANCH   5   6
HETATM    6  C   UNL     1       4.092  29.547  52.267  1.00  0.00     0.255 C 
HETATM    7  N   UNL     1       3.739  29.336  53.593  1.00  0.00    -0.246 N 
HETATM    8  H   UNL     1       3.260  28.468  53.851  1.00  0.00     0.192 HD
HETATM    9  O   UNL     1       4.503  30.600  51.784  1.00  0.00    -0.270 OA
BRANCH   7  10
HETATM   10  N   UNL     1       3.960  30.299  54.529  1.00  0.00    -0.184 NA
HETATM   11  C   UNL     1       4.417  29.861  55.661  1.00  0.00     0.153 C 
BRANCH  11  12
HETATM   12  C   UNL     1       4.747  30.781  56.769  1.00  0.00     0.019 A 
HETATM   13  C   UNL     1       3.804  31.706  57.220  1.00  0.00     0.110 A 
HETATM   14  C   UNL     1       4.096  32.571  58.286  1.00  0.00     0.102 A 
HETATM   15  C   UNL     1       5.349  32.503  58.898  1.00  0.00     0.040 A 
HETATM   16  C   UNL     1       6.298  31.579  58.447  1.00  0.00     0.004 A 
HETATM   17  C   UNL     1       6.000  30.720  57.387  1.00  0.00     0.016 A 
BRANCH  13  18
HETATM   18  O   UNL     1       2.565  31.781  56.633  1.00  0.00    -0.357 OA
HETATM   19  H   UNL     1       2.733  31.720  55.672  1.00  0.00     0.218 HD
ENDBRANCH  13  18
BRANCH  14  20
HETATM   20  O   UNL     1       3.076  33.422  58.633  1.00  0.00    -0.353 OA
HETATM   21  C   UNL     1       2.847  33.611  60.025  1.00  0.00     0.210 C 
ENDBRANCH  14  20
ENDBRANCH  11  12
ENDBRANCH   7  10
ENDBRANCH   5   6
ENDBRANCH   1   5
BRANCH   2  22
HETATM   22  C   UNL     1       5.345  24.985  52.537  1.00  0.00     0.097 A 
HETATM   23  C   UNL     1       6.217  24.948  53.801  1.00  0.00     0.027 A 
HETATM   24  C   UNL     1       4.691  24.883  53.882  1.00  0.00     0.035 A 
BRANCH  23  25
HETATM   25  C   UNL     1       7.029  23.661  54.004  1.00  0.00    -0.044 A 
HETATM   26  C   UNL     1       7.622  23.004  52.910  1.00  0.00     0.008 A 
HETATM   27  C   UNL     1       8.380  21.842  53.077  1.00  0.00     0.001 A 
HETATM   28  C   UNL     1       8.561  21.308  54.348  1.00  0.00     0.000 A 
HETATM   29  C   UNL     1       7.991  21.938  55.450  1.00  0.00     0.001 A 
HETATM   30  C   UNL     1       7.239  23.104  55.278  1.00  0.00     0.008 A 
ENDBRANCH  23  25
BRANCH  23  31
HETATM   31  C   UNL     1       6.866  26.205  54.390  1.00  0.00    -0.044 A 
HETATM   32  C   UNL     1       6.745  26.497  55.763  1.00  0.00     0.008 A 
HETATM   33  C   UNL     1       7.356  27.617  56.333  1.00  0.00     0.001 A 
HETATM   34  C   UNL     1       8.109  28.475  55.539  1.00  0.00     0.000 A 
HETATM   35  C   UNL     1       8.255  28.208  54.181  1.00  0.00     0.001 A 
HETATM   36  C   UNL     1       7.647  27.082  53.618  1.00  0.00     0.008 A 
ENDBRANCH  23  31
ENDBRANCH   2  22
TORSDOF 9
ENDMDL
