MODEL 1
REMARK VINA RESULT:      -9.5      0.000      0.000
REMARK  4 active torsions:
REMARK  status: ('A' for Active; 'I' for Inactive)
REMARK    1  A    between atoms: O_2  and  C_3 
REMARK    2  A    between atoms: C_7  and  N_8 
REMARK       I    between atoms: N_8  and  C_9 
REMARK    3  A    between atoms: C_9  and  C_10 
REMARK    4  A    between atoms: C_12  and  C_13 
ROOT
HETATM    1  N   UNL     1       8.023  27.863  56.400  1.00  0.00    -0.320 N 
HETATM    2  C   UNL     1       7.838  26.561  56.825  1.00  0.00     0.256 C 
HETATM    3  O   UNL     1       7.914  26.169  57.984  1.00  0.00    -0.267 OA
HETATM    4  H   UNL     1       8.039  28.051  55.405  1.00  0.00     0.169 HD
ENDROOT
BRANCH   2   5
HETATM    5  C   UNL     1       7.532  25.557  55.757  1.00  0.00     0.033 A 
HETATM    6  C   UNL     1       7.916  24.210  55.849  1.00  0.00     0.029 A 
HETATM    7  C   UNL     1       7.624  23.306  54.814  1.00  0.00    -0.023 A 
HETATM    8  C   UNL     1       6.961  23.780  53.673  1.00  0.00     0.012 A 
HETATM    9  C   UNL     1       6.592  25.122  53.567  1.00  0.00     0.002 A 
HETATM   10  C   UNL     1       6.876  26.007  54.604  1.00  0.00     0.017 A 
BRANCH   7  11
HETATM   11  C   UNL     1       8.020  21.907  54.936  1.00  0.00    -0.002 A 
HETATM   12  C   UNL     1       8.211  21.049  53.869  1.00  0.00     0.153 A 
HETATM   13  O   UNL     1       8.557  19.808  54.298  1.00  0.00    -0.334 OA
HETATM   14  C   UNL     1       8.589  19.854  55.652  1.00  0.00     0.142 A 
HETATM   15  C   UNL     1       8.265  21.115  56.095  1.00  0.00     0.038 A 
ENDBRANCH   7  11
ENDBRANCH   2   5
BRANCH   1  16
HETATM   16  C   UNL     1       8.222  29.007  57.208  1.00  0.00     0.077 A 
HETATM   17  C   UNL     1       7.204  29.723  57.833  1.00  0.00     0.077 A 
HETATM   18  C   UNL     1       7.507  30.861  58.587  1.00  0.00     0.152 A 
HETATM   19  C   UNL     1       8.824  31.310  58.728  1.00  0.00     0.109 A 
HETATM   20  F   UNL     1       6.486  31.503  59.172  1.00  0.00    -0.203 F 
HETATM   21  C   UNL     1       9.846  30.587  58.113  1.00  0.00     0.084 A 
HETATM   22  C   UNL     1       9.540  29.452  57.366  1.00  0.00     0.145 A 
HETATM   23  F   UNL     1      10.537  28.780  56.768  1.00  0.00    -0.204 F 
BRANCH  19  24
HETATM   24  O   UNL     1       9.256  32.410  59.418  1.00  0.00    -0.353 OA
HETATM   25  C   UNL     1       9.265  32.320  60.839  1.00  0.00     0.210 C 
ENDBRANCH  19  24
ENDBRANCH   1  16
TORSDOF 4
ENDMDL
MODEL 2
REMARK VINA RESULT:      -9.4      1.032      2.005
REMARK  4 active torsions:
REMARK  status: ('A' for Active; 'I' for Inactive)
REMARK    1  A    between atoms: O_2  and  C_3 
REMARK    2  A    between atoms: C_7  and  N_8 
REMARK       I    between atoms: N_8  and  C_9 
REMARK    3  A    between atoms: C_9  and  C_10 
REMARK    4  A    between atoms: C_12  and  C_13 
ROOT
HETATM    1  N   UNL     1       8.216  27.997  56.203  1.00  0.00    -0.320 N 
HETATM    2  C   UNL     1       7.947  26.711  56.633  1.00  0.00     0.256 C 
HETATM    3  O   UNL     1       8.193  26.265  57.748  1.00  0.00    -0.267 OA
HETATM    4  H   UNL     1       8.065  28.223  55.226  1.00  0.00     0.169 HD
ENDROOT
BRANCH   2   5
HETATM    5  C   UNL     1       7.311  25.801  55.629  1.00  0.00     0.033 A 
HETATM    6  C   UNL     1       7.781  24.501  55.379  1.00  0.00     0.029 A 
HETATM    7  C   UNL     1       7.164  23.687  54.414  1.00  0.00    -0.023 A 
HETATM    8  C   UNL     1       6.083  24.206  53.685  1.00  0.00     0.012 A 
HETATM    9  C   UNL     1       5.623  25.503  53.917  1.00  0.00     0.002 A 
HETATM   10  C   UNL     1       6.234  26.297  54.884  1.00  0.00     0.017 A 
BRANCH   7  11
HETATM   11  C   UNL     1       7.659  22.335  54.179  1.00  0.00    -0.002 A 
HETATM   12  C   UNL     1       7.976  21.429  55.174  1.00  0.00     0.153 A 
HETATM   13  O   UNL     1       8.426  20.262  54.645  1.00  0.00    -0.334 OA
HETATM   14  C   UNL     1       8.407  20.406  53.298  1.00  0.00     0.142 A 
HETATM   15  C   UNL     1       7.948  21.658  52.959  1.00  0.00     0.038 A 
ENDBRANCH   7  11
ENDBRANCH   2   5
BRANCH   1  16
HETATM   16  C   UNL     1       8.717  29.071  56.975  1.00  0.00     0.077 A 
HETATM   17  C   UNL     1      10.046  29.486  56.987  1.00  0.00     0.077 A 
HETATM   18  C   UNL     1      10.444  30.542  57.813  1.00  0.00     0.152 A 
HETATM   19  C   UNL     1       9.532  31.199  58.645  1.00  0.00     0.109 A 
HETATM   20  F   UNL     1      11.735  30.902  57.775  1.00  0.00    -0.203 F 
HETATM   21  C   UNL     1       8.197  30.791  58.625  1.00  0.00     0.084 A 
HETATM   22  C   UNL     1       7.805  29.742  57.798  1.00  0.00     0.145 A 
HETATM   23  F   UNL     1       6.518  29.355  57.806  1.00  0.00    -0.204 F 
BRANCH  19  24
HETATM   24  O   UNL     1       9.788  32.228  59.509  1.00  0.00    -0.353 OA
HETATM   25  C   UNL     1       9.522  31.996  60.888  1.00  0.00     0.210 C 
ENDBRANCH  19  24
ENDBRANCH   1  16
TORSDOF 4
ENDMDL
MODEL 3
REMARK VINA RESULT:      -9.1      1.912      2.414
REMARK  4 active torsions:
REMARK  status: ('A' for Active; 'I' for Inactive)
REMARK    1  A    between atoms: O_2  and  C_3 
REMARK    2  A    between atoms: C_7  and  N_8 
REMARK       I    between atoms: N_8  and  C_9 
REMARK    3  A    between atoms: C_9  and  C_10 
REMARK    4  A    between atoms: C_12  and  C_13 
ROOT
HETATM    1  N   UNL     1       7.408  27.360  55.999  1.00  0.00    -0.320 N 
HETATM    2  C   UNL     1       7.665  27.228  54.647  1.00  0.00     0.256 C 
HETATM    3  O   UNL     1       7.901  28.148  53.871  1.00  0.00    -0.267 OA
HETATM    4  H   UNL     1       7.123  26.540  56.521  1.00  0.00     0.169 HD
ENDROOT
BRANCH   2   5
HETATM    5  C   UNL     1       7.635  25.834  54.105  1.00  0.00     0.033 A 
HETATM    6  C   UNL     1       7.795  24.700  54.918  1.00  0.00     0.029 A 
HETATM    7  C   UNL     1       7.779  23.409  54.363  1.00  0.00    -0.023 A 
HETATM    8  C   UNL     1       7.626  23.273  52.975  1.00  0.00     0.012 A 
HETATM    9  C   UNL     1       7.485  24.397  52.159  1.00  0.00     0.002 A 
HETATM   10  C   UNL     1       7.489  25.671  52.721  1.00  0.00     0.017 A 
BRANCH   7  11
HETATM   11  C   UNL     1       7.932  22.243  55.227  1.00  0.00    -0.002 A 
HETATM   12  C   UNL     1       8.286  22.295  56.562  1.00  0.00     0.153 A 
HETATM   13  O   UNL     1       8.367  21.048  57.094  1.00  0.00    -0.334 OA
HETATM   14  C   UNL     1       8.068  20.176  56.101  1.00  0.00     0.142 A 
HETATM   15  C   UNL     1       7.796  20.855  54.935  1.00  0.00     0.038 A 
ENDBRANCH   7  11
ENDBRANCH   2   5
BRANCH   1  16
HETATM   16  C   UNL     1       7.473  28.544  56.771  1.00  0.00     0.077 A 
HETATM   17  C   UNL     1       8.533  28.888  57.606  1.00  0.00     0.077 A 
HETATM   18  C   UNL     1       8.483  30.070  58.352  1.00  0.00     0.152 A 
HETATM   19  C   UNL     1       7.379  30.926  58.286  1.00  0.00     0.109 A 
HETATM   20  F   UNL     1       9.537  30.352  59.131  1.00  0.00    -0.203 F 
HETATM   21  C   UNL     1       6.321  30.588  57.440  1.00  0.00     0.084 A 
HETATM   22  C   UNL     1       6.377  29.412  56.697  1.00  0.00     0.145 A 
HETATM   23  F   UNL     1       5.341  29.097  55.901  1.00  0.00    -0.204 F 
BRANCH  19  24
HETATM   24  O   UNL     1       7.194  32.096  58.970  1.00  0.00    -0.353 OA
HETATM   25  C   UNL     1       6.933  31.995  60.366  1.00  0.00     0.210 C 
ENDBRANCH  19  24
ENDBRANCH   1  16
TORSDOF 4
ENDMDL
MODEL 4
REMARK VINA RESULT:      -8.8      3.591      6.139
REMARK  4 active torsions:
REMARK  status: ('A' for Active; 'I' for Inactive)
REMARK    1  A    between atoms: O_2  and  C_3 
REMARK    2  A    between atoms: C_7  and  N_8 
REMARK       I    between atoms: N_8  and  C_9 
REMARK    3  A    between atoms: C_9  and  C_10 
REMARK    4  A    between atoms: C_12  and  C_13 
ROOT
HETATM    1  N   UNL     1       7.589  31.291  60.468  1.00  0.00    -0.320 N 
HETATM    2  C   UNL     1       8.594  31.659  59.593  1.00  0.00     0.256 C 
HETATM    3  O   UNL     1       9.159  32.747  59.571  1.00  0.00    -0.267 OA
HETATM    4  H   UNL     1       7.123  30.403  60.324  1.00  0.00     0.169 HD
ENDROOT
BRANCH   2   5
HETATM    5  C   UNL     1       9.002  30.628  58.587  1.00  0.00     0.033 A 
HETATM    6  C   UNL     1       8.224  29.493  58.306  1.00  0.00     0.029 A 
HETATM    7  C   UNL     1       8.655  28.541  57.367  1.00  0.00    -0.023 A 
HETATM    8  C   UNL     1       9.891  28.731  56.733  1.00  0.00     0.012 A 
HETATM    9  C   UNL     1      10.678  29.847  57.021  1.00  0.00     0.002 A 
HETATM   10  C   UNL     1      10.235  30.792  57.944  1.00  0.00     0.017 A 
BRANCH   7  11
HETATM   11  C   UNL     1       7.825  27.376  57.079  1.00  0.00    -0.002 A 
HETATM   12  C   UNL     1       6.979  27.263  55.991  1.00  0.00     0.153 A 
HETATM   13  O   UNL     1       6.328  26.072  56.003  1.00  0.00    -0.334 OA
HETATM   14  C   UNL     1       6.746  25.404  57.105  1.00  0.00     0.142 A 
HETATM   15  C   UNL     1       7.662  26.158  57.801  1.00  0.00     0.038 A 
ENDBRANCH   7  11
ENDBRANCH   2   5
BRANCH   1  16
HETATM   16  C   UNL     1       7.093  32.034  61.564  1.00  0.00     0.077 A 
HETATM   17  C   UNL     1       5.949  32.827  61.531  1.00  0.00     0.077 A 
HETATM   18  C   UNL     1       5.562  33.549  62.665  1.00  0.00     0.152 A 
HETATM   19  C   UNL     1       6.308  33.501  63.847  1.00  0.00     0.109 A 
HETATM   20  F   UNL     1       4.447  34.287  62.575  1.00  0.00    -0.203 F 
HETATM   21  C   UNL     1       7.448  32.697  63.885  1.00  0.00     0.084 A 
HETATM   22  C   UNL     1       7.827  31.977  62.755  1.00  0.00     0.145 A 
HETATM   23  F   UNL     1       8.938  31.223  62.807  1.00  0.00    -0.204 F 
BRANCH  19  24
HETATM   24  O   UNL     1       6.054  34.165  65.016  1.00  0.00    -0.353 OA
HETATM   25  C   UNL     1       4.897  33.770  65.746  1.00  0.00     0.210 C 
ENDBRANCH  19  24
ENDBRANCH   1  16
TORSDOF 4
ENDMDL
MODEL 5
REMARK VINA RESULT:      -8.6      5.205      7.406
REMARK  4 active torsions:
REMARK  status: ('A' for Active; 'I' for Inactive)
REMARK    1  A    between atoms: O_2  and  C_3 
REMARK    2  A    between atoms: C_7  and  N_8 
REMARK       I    between atoms: N_8  and  C_9 
REMARK    3  A    between atoms: C_9  and  C_10 
REMARK    4  A    between atoms: C_12  and  C_13 
ROOT
HETATM    1  N   UNL     1       5.796  26.283  51.688  1.00  0.00    -0.320 N 
HETATM    2  C   UNL     1       5.242  26.212  52.953  1.00  0.00     0.256 C 
HETATM    3  O   UNL     1       4.240  26.812  53.328  1.00  0.00    -0.267 OA
HETATM    4  H   UNL     1       6.685  25.826  51.522  1.00  0.00     0.169 HD
ENDROOT
BRANCH   2   5
HETATM    5  C   UNL     1       5.949  25.331  53.933  1.00  0.00     0.033 A 
HETATM    6  C   UNL     1       6.504  24.090  53.576  1.00  0.00     0.029 A 
HETATM    7  C   UNL     1       7.143  23.286  54.534  1.00  0.00    -0.023 A 
HETATM    8  C   UNL     1       7.197  23.734  55.863  1.00  0.00     0.012 A 
HETATM    9  C   UNL     1       6.633  24.957  56.228  1.00  0.00     0.002 A 
HETATM   10  C   UNL     1       6.012  25.752  55.267  1.00  0.00     0.017 A 
BRANCH   7  11
HETATM   11  C   UNL     1       7.725  22.007  54.140  1.00  0.00    -0.002 A 
HETATM   12  C   UNL     1       7.950  20.949  54.999  1.00  0.00     0.153 A 
HETATM   13  O   UNL     1       8.518  19.903  54.345  1.00  0.00    -0.334 OA
HETATM   14  C   UNL     1       8.669  20.281  53.052  1.00  0.00     0.142 A 
HETATM   15  C   UNL     1       8.201  21.563  52.873  1.00  0.00     0.038 A 
ENDBRANCH   7  11
ENDBRANCH   2   5
BRANCH   1  16
HETATM   16  C   UNL     1       5.273  26.957  50.560  1.00  0.00     0.077 A 
HETATM   17  C   UNL     1       4.626  26.336  49.495  1.00  0.00     0.077 A 
HETATM   18  C   UNL     1       4.172  27.094  48.411  1.00  0.00     0.152 A 
HETATM   19  C   UNL     1       4.358  28.479  48.363  1.00  0.00     0.109 A 
HETATM   20  F   UNL     1       3.549  26.441  47.420  1.00  0.00    -0.203 F 
HETATM   21  C   UNL     1       4.996  29.104  49.436  1.00  0.00     0.084 A 
HETATM   22  C   UNL     1       5.442  28.346  50.515  1.00  0.00     0.145 A 
HETATM   23  F   UNL     1       6.068  28.966  51.529  1.00  0.00    -0.204 F 
BRANCH  19  24
HETATM   24  O   UNL     1       3.982  29.333  47.362  1.00  0.00    -0.353 OA
HETATM   25  C   UNL     1       4.502  30.657  47.413  1.00  0.00     0.210 C 
ENDBRANCH  19  24
ENDBRANCH   1  16
TORSDOF 4
ENDMDL
MODEL 6
REMARK VINA RESULT:      -8.6      5.190      7.497
REMARK  4 active torsions:
REMARK  status: ('A' for Active; 'I' for Inactive)
REMARK    1  A    between atoms: O_2  and  C_3 
REMARK    2  A    between atoms: C_7  and  N_8 
REMARK       I    between atoms: N_8  and  C_9 
REMARK    3  A    between atoms: C_9  and  C_10 
REMARK    4  A    between atoms: C_12  and  C_13 
ROOT
HETATM    1  N   UNL     1       5.862  26.337  51.755  1.00  0.00    -0.320 N 
HETATM    2  C   UNL     1       5.356  26.340  53.042  1.00  0.00     0.256 C 
HETATM    3  O   UNL     1       4.436  27.043  53.446  1.00  0.00    -0.267 OA
HETATM    4  H   UNL     1       6.693  25.790  51.563  1.00  0.00     0.169 HD
ENDROOT
BRANCH   2   5
HETATM    5  C   UNL     1       6.011  25.404  54.009  1.00  0.00     0.033 A 
HETATM    6  C   UNL     1       6.545  24.165  53.622  1.00  0.00     0.029 A 
HETATM    7  C   UNL     1       7.135  23.309  54.567  1.00  0.00    -0.023 A 
HETATM    8  C   UNL     1       7.158  23.705  55.913  1.00  0.00     0.012 A 
HETATM    9  C   UNL     1       6.613  24.928  56.307  1.00  0.00     0.002 A 
HETATM   10  C   UNL     1       6.042  25.774  55.360  1.00  0.00     0.017 A 
BRANCH   7  11
HETATM   11  C   UNL     1       7.697  22.031  54.143  1.00  0.00    -0.002 A 
HETATM   12  C   UNL     1       7.948  20.964  54.985  1.00  0.00     0.153 A 
HETATM   13  O   UNL     1       8.488  19.922  54.303  1.00  0.00    -0.334 OA
HETATM   14  C   UNL     1       8.595  20.311  53.009  1.00  0.00     0.142 A 
HETATM   15  C   UNL     1       8.127  21.595  52.857  1.00  0.00     0.038 A 
ENDBRANCH   7  11
ENDBRANCH   2   5
BRANCH   1  16
HETATM   16  C   UNL     1       5.363  27.046  50.638  1.00  0.00     0.077 A 
HETATM   17  C   UNL     1       5.647  28.379  50.354  1.00  0.00     0.077 A 
HETATM   18  C   UNL     1       5.076  28.996  49.237  1.00  0.00     0.152 A 
HETATM   19  C   UNL     1       4.209  28.302  48.386  1.00  0.00     0.109 A 
HETATM   20  F   UNL     1       5.393  30.279  49.011  1.00  0.00    -0.203 F 
HETATM   21  C   UNL     1       3.934  26.962  48.663  1.00  0.00     0.084 A 
HETATM   22  C   UNL     1       4.508  26.351  49.774  1.00  0.00     0.145 A 
HETATM   23  F   UNL     1       4.216  25.065  50.031  1.00  0.00    -0.204 F 
BRANCH  19  24
HETATM   24  O   UNL     1       3.572  28.786  47.276  1.00  0.00    -0.353 OA
HETATM   25  C   UNL     1       2.170  29.011  47.382  1.00  0.00     0.210 C 
ENDBRANCH  19  24
ENDBRANCH   1  16
TORSDOF 4
ENDMDL
MODEL 7
REMARK VINA RESULT:      -8.6      7.077     13.044
REMARK  4 active torsions:
REMARK  status: ('A' for Active; 'I' for Inactive)
REMARK    1  A    between atoms: O_2  and  C_3 
REMARK    2  A    between atoms: C_7  and  N_8 
REMARK       I    between atoms: N_8  and  C_9 
REMARK    3  A    between atoms: C_9  and  C_10 
REMARK    4  A    between atoms: C_12  and  C_13 
ROOT
HETATM    1  N   UNL     1       6.759  33.221  63.507  1.00  0.00    -0.320 N 
HETATM    2  C   UNL     1       5.561  32.972  64.149  1.00  0.00     0.256 C 
HETATM    3  O   UNL     1       4.770  32.079  63.866  1.00  0.00    -0.267 OA
HETATM    4  H   UNL     1       7.282  34.051  63.760  1.00  0.00     0.169 HD
ENDROOT
BRANCH   2   5
HETATM    5  C   UNL     1       5.216  33.892  65.278  1.00  0.00     0.033 A 
HETATM    6  C   UNL     1       5.955  33.940  66.471  1.00  0.00     0.029 A 
HETATM    7  C   UNL     1       5.585  34.806  67.513  1.00  0.00    -0.023 A 
HETATM    8  C   UNL     1       4.445  35.608  67.350  1.00  0.00     0.012 A 
HETATM    9  C   UNL     1       3.695  35.553  66.174  1.00  0.00     0.002 A 
HETATM   10  C   UNL     1       4.079  34.699  65.142  1.00  0.00     0.017 A 
BRANCH   7  11
HETATM   11  C   UNL     1       6.374  34.851  68.739  1.00  0.00    -0.002 A 
HETATM   12  C   UNL     1       5.844  34.864  70.015  1.00  0.00     0.153 A 
HETATM   13  O   UNL     1       6.827  34.926  70.950  1.00  0.00    -0.334 OA
HETATM   14  C   UNL     1       8.005  34.958  70.282  1.00  0.00     0.142 A 
HETATM   15  C   UNL     1       7.785  34.917  68.925  1.00  0.00     0.038 A 
ENDBRANCH   7  11
ENDBRANCH   2   5
BRANCH   1  16
HETATM   16  C   UNL     1       7.360  32.447  62.486  1.00  0.00     0.077 A 
HETATM   17  C   UNL     1       8.371  31.512  62.691  1.00  0.00     0.077 A 
HETATM   18  C   UNL     1       8.919  30.821  61.606  1.00  0.00     0.152 A 
HETATM   19  C   UNL     1       8.478  31.052  60.299  1.00  0.00     0.109 A 
HETATM   20  F   UNL     1       9.883  29.927  61.867  1.00  0.00    -0.203 F 
HETATM   21  C   UNL     1       7.456  31.981  60.093  1.00  0.00     0.084 A 
HETATM   22  C   UNL     1       6.911  32.663  61.177  1.00  0.00     0.145 A 
HETATM   23  F   UNL     1       5.940  33.565  60.955  1.00  0.00    -0.204 F 
BRANCH  19  24
HETATM   24  O   UNL     1       8.936  30.463  59.152  1.00  0.00    -0.353 OA
HETATM   25  C   UNL     1       9.925  31.171  58.411  1.00  0.00     0.210 C 
ENDBRANCH  19  24
ENDBRANCH   1  16
TORSDOF 4
ENDMDL
MODEL 8
REMARK VINA RESULT:      -8.6      2.264      2.949
REMARK  4 active torsions:
REMARK  status: ('A' for Active; 'I' for Inactive)
REMARK    1  A    between atoms: O_2  and  C_3 
REMARK    2  A    between atoms: C_7  and  N_8 
REMARK       I    between atoms: N_8  and  C_9 
REMARK    3  A    between atoms: C_9  and  C_10 
REMARK    4  A    between atoms: C_12  and  C_13 
ROOT
HETATM    1  N   UNL     1       6.570  27.817  55.279  1.00  0.00    -0.320 N 
HETATM    2  C   UNL     1       7.086  26.591  55.656  1.00  0.00     0.256 C 
HETATM    3  O   UNL     1       7.343  26.246  56.804  1.00  0.00    -0.267 OA
HETATM    4  H   UNL     1       6.496  28.029  54.291  1.00  0.00     0.169 HD
ENDROOT
BRANCH   2   5
HETATM    5  C   UNL     1       7.357  25.622  54.547  1.00  0.00     0.033 A 
HETATM    6  C   UNL     1       7.675  24.274  54.779  1.00  0.00     0.029 A 
HETATM    7  C   UNL     1       7.940  23.404  53.709  1.00  0.00    -0.023 A 
HETATM    8  C   UNL     1       7.907  23.912  52.402  1.00  0.00     0.012 A 
HETATM    9  C   UNL     1       7.610  25.255  52.166  1.00  0.00     0.002 A 
HETATM   10  C   UNL     1       7.336  26.107  53.234  1.00  0.00     0.017 A 
BRANCH   7  11
HETATM   11  C   UNL     1       8.254  22.003  53.970  1.00  0.00    -0.002 A 
HETATM   12  C   UNL     1       8.190  20.994  53.027  1.00  0.00     0.153 A 
HETATM   13  O   UNL     1       8.522  19.796  53.572  1.00  0.00    -0.334 OA
HETATM   14  C   UNL     1       8.800  20.021  54.879  1.00  0.00     0.142 A 
HETATM   15  C   UNL     1       8.649  21.356  55.176  1.00  0.00     0.038 A 
ENDBRANCH   7  11
ENDBRANCH   2   5
BRANCH   1  16
HETATM   16  C   UNL     1       6.137  28.861  56.130  1.00  0.00     0.077 A 
HETATM   17  C   UNL     1       6.985  29.730  56.812  1.00  0.00     0.077 A 
HETATM   18  C   UNL     1       6.453  30.711  57.654  1.00  0.00     0.152 A 
HETATM   19  C   UNL     1       5.073  30.842  57.840  1.00  0.00     0.109 A 
HETATM   20  F   UNL     1       7.319  31.524  58.277  1.00  0.00    -0.203 F 
HETATM   21  C   UNL     1       4.222  29.979  57.147  1.00  0.00     0.084 A 
HETATM   22  C   UNL     1       4.756  29.006  56.306  1.00  0.00     0.145 A 
HETATM   23  F   UNL     1       3.919  28.175  55.662  1.00  0.00    -0.204 F 
BRANCH  19  24
HETATM   24  O   UNL     1       4.425  31.740  58.642  1.00  0.00    -0.353 OA
HETATM   25  C   UNL     1       4.171  33.030  58.095  1.00  0.00     0.210 C 
ENDBRANCH  19  24
ENDBRANCH   1  16
TORSDOF 4
ENDMDL
MODEL 9
REMARK VINA RESULT:      -8.5      2.417      8.709
REMARK  4 active torsions:
REMARK  status: ('A' for Active; 'I' for Inactive)
REMARK    1  A    between atoms: O_2  and  C_3 
REMARK    2  A    between atoms: C_7  and  N_8 
REMARK       I    between atoms: N_8  and  C_9 
REMARK    3  A    between atoms: C_9  and  C_10 
REMARK    4  A    between atoms: C_12  and  C_13 
ROOT
HETATM    1  N   UNL     1       7.360  25.633  56.023  1.00  0.00    -0.320 N 
HETATM    2  C   UNL     1       7.696  26.238  57.220  1.00  0.00     0.256 C 
HETATM    3  O   UNL     1       8.259  25.693  58.163  1.00  0.00    -0.267 OA
HETATM    4  H   UNL     1       6.803  26.154  55.357  1.00  0.00     0.169 HD
ENDROOT
BRANCH   2   5
HETATM    5  C   UNL     1       7.319  27.680  57.357  1.00  0.00     0.033 A 
HETATM    6  C   UNL     1       8.031  28.576  58.172  1.00  0.00     0.029 A 
HETATM    7  C   UNL     1       7.631  29.918  58.286  1.00  0.00    -0.023 A 
HETATM    8  C   UNL     1       6.490  30.343  57.589  1.00  0.00     0.012 A 
HETATM    9  C   UNL     1       5.767  29.453  56.792  1.00  0.00     0.002 A 
HETATM   10  C   UNL     1       6.180  28.128  56.676  1.00  0.00     0.017 A 
BRANCH   7  11
HETATM   11  C   UNL     1       8.392  30.836  59.126  1.00  0.00    -0.002 A 
HETATM   12  C   UNL     1       9.480  31.574  58.699  1.00  0.00     0.153 A 
HETATM   13  O   UNL     1       9.989  32.322  59.711  1.00  0.00    -0.334 OA
HETATM   14  C   UNL     1       9.233  32.069  60.807  1.00  0.00     0.142 A 
HETATM   15  C   UNL     1       8.243  31.163  60.505  1.00  0.00     0.038 A 
ENDBRANCH   7  11
ENDBRANCH   2   5
BRANCH   1  16
HETATM   16  C   UNL     1       7.688  24.322  55.606  1.00  0.00     0.077 A 
HETATM   17  C   UNL     1       7.694  23.204  56.436  1.00  0.00     0.077 A 
HETATM   18  C   UNL     1       8.065  21.955  55.928  1.00  0.00     0.152 A 
HETATM   19  C   UNL     1       8.441  21.796  54.591  1.00  0.00     0.109 A 
HETATM   20  F   UNL     1       8.044  20.915  56.774  1.00  0.00    -0.203 F 
HETATM   21  C   UNL     1       8.423  22.913  53.755  1.00  0.00     0.084 A 
HETATM   22  C   UNL     1       8.050  24.154  54.264  1.00  0.00     0.145 A 
HETATM   23  F   UNL     1       8.056  25.220  53.446  1.00  0.00    -0.204 F 
BRANCH  19  24
HETATM   24  O   UNL     1       8.840  20.642  53.973  1.00  0.00    -0.353 OA
HETATM   25  C   UNL     1       8.405  20.444  52.631  1.00  0.00     0.210 C 
ENDBRANCH  19  24
ENDBRANCH   1  16
TORSDOF 4
ENDMDL
MODEL 10
REMARK VINA RESULT:      -8.3      5.251      8.831
REMARK  4 active torsions:
REMARK  status: ('A' for Active; 'I' for Inactive)
REMARK    1  A    between atoms: O_2  and  C_3 
REMARK    2  A    between atoms: C_7  and  N_8 
REMARK       I    between atoms: N_8  and  C_9 
REMARK    3  A    between atoms: C_9  and  C_10 
REMARK    4  A    between atoms: C_12  and  C_13 
ROOT
HETATM    1  N   UNL     1       6.394  24.442  52.969  1.00  0.00    -0.320 N 
HETATM    2  C   UNL     1       6.974  25.584  52.449  1.00  0.00     0.256 C 
HETATM    3  O   UNL     1       8.172  25.844  52.456  1.00  0.00    -0.267 OA
HETATM    4  H   UNL     1       5.383  24.383  53.000  1.00  0.00     0.169 HD
ENDROOT
BRANCH   2   5
HETATM    5  C   UNL     1       6.037  26.580  51.840  1.00  0.00     0.033 A 
HETATM    6  C   UNL     1       5.344  26.337  50.643  1.00  0.00     0.029 A 
HETATM    7  C   UNL     1       4.488  27.307  50.097  1.00  0.00    -0.023 A 
HETATM    8  C   UNL     1       4.356  28.538  50.758  1.00  0.00     0.012 A 
HETATM    9  C   UNL     1       5.055  28.793  51.939  1.00  0.00     0.002 A 
HETATM   10  C   UNL     1       5.892  27.819  52.478  1.00  0.00     0.017 A 
BRANCH   7  11
HETATM   11  C   UNL     1       3.766  27.030  48.860  1.00  0.00    -0.002 A 
HETATM   12  C   UNL     1       4.240  26.232  47.836  1.00  0.00     0.153 A 
HETATM   13  O   UNL     1       3.352  26.178  46.809  1.00  0.00    -0.334 OA
HETATM   14  C   UNL     1       2.294  26.947  47.163  1.00  0.00     0.142 A 
HETATM   15  C   UNL     1       2.497  27.495  48.409  1.00  0.00     0.038 A 
ENDBRANCH   7  11
ENDBRANCH   2   5
BRANCH   1  16
HETATM   16  C   UNL     1       7.057  23.313  53.504  1.00  0.00     0.077 A 
HETATM   17  C   UNL     1       7.658  22.313  52.743  1.00  0.00     0.077 A 
HETATM   18  C   UNL     1       8.261  21.220  53.372  1.00  0.00     0.152 A 
HETATM   19  C   UNL     1       8.273  21.097  54.766  1.00  0.00     0.109 A 
HETATM   20  F   UNL     1       8.831  20.294  52.588  1.00  0.00    -0.203 F 
HETATM   21  C   UNL     1       7.681  22.105  55.529  1.00  0.00     0.084 A 
HETATM   22  C   UNL     1       7.085  23.194  54.898  1.00  0.00     0.145 A 
HETATM   23  F   UNL     1       6.507  24.144  55.651  1.00  0.00    -0.204 F 
BRANCH  19  24
HETATM   24  O   UNL     1       8.809  20.079  55.505  1.00  0.00    -0.353 OA
HETATM   25  C   UNL     1       9.031  20.332  56.889  1.00  0.00     0.210 C 
ENDBRANCH  19  24
ENDBRANCH   1  16
TORSDOF 4
ENDMDL
