MODEL 1
REMARK VINA RESULT:     -11.7      0.000      0.000
REMARK  5 active torsions:
REMARK  status: ('A' for Active; 'I' for Inactive)
REMARK    1  A    between atoms: C_4  and  N_5 
REMARK       I    between atoms: N_5  and  C_6 
REMARK    2  A    between atoms: C_6  and  C_7 
REMARK    3  A    between atoms: C_8  and  N_9 
REMARK    4  A    between atoms: N_10  and  N_11 
REMARK    5  A    between atoms: C_12  and  C_13 
ROOT
HETATM    1  C   UNL     1       7.522  30.187  57.761  1.00  0.00     0.110 A 
HETATM    2  C   UNL     1       8.021  29.067  57.125  1.00  0.00     0.143 A 
HETATM    3  N   UNL     1       7.255  28.807  55.993  1.00  0.00    -0.197 N 
HETATM    4  C   UNL     1       6.199  29.710  55.973  1.00  0.00     0.183 A 
HETATM    5  C   UNL     1       6.362  30.572  57.058  1.00  0.00     0.125 A 
HETATM    6  N   UNL     1       5.512  31.606  57.277  1.00  0.00    -0.242 NA
HETATM    7  C   UNL     1       4.493  31.690  56.408  1.00  0.00     0.086 A 
HETATM    8  C   UNL     1       4.336  30.794  55.319  1.00  0.00     0.088 A 
HETATM    9  N   UNL     1       5.193  29.789  55.070  1.00  0.00    -0.225 NA
HETATM   10  C   UNL     1       3.557  32.703  56.588  1.00  0.00     0.034 A 
HETATM   11  C   UNL     1       2.473  32.858  55.723  1.00  0.00     0.002 A 
HETATM   12  C   UNL     1       2.321  31.987  54.655  1.00  0.00     0.002 A 
HETATM   13  C   UNL     1       3.253  30.965  54.464  1.00  0.00     0.034 A 
ENDROOT
BRANCH   1  14
HETATM   14  C   UNL     1       8.195  30.846  58.858  1.00  0.00     0.262 C 
HETATM   15  N   UNL     1       7.390  30.839  59.982  1.00  0.00    -0.322 N 
HETATM   16  H   UNL     1       6.588  30.227  59.923  1.00  0.00     0.169 HD
HETATM   17  O   UNL     1       9.271  31.409  58.712  1.00  0.00    -0.267 OA
BRANCH  15  18
HETATM   18  C   UNL     1       7.399  31.735  61.070  1.00  0.00     0.041 A 
HETATM   19  C   UNL     1       6.544  32.842  61.137  1.00  0.00     0.037 A 
HETATM   20  C   UNL     1       6.483  33.645  62.286  1.00  0.00    -0.060 A 
HETATM   21  C   UNL     1       5.502  34.778  62.356  1.00  0.00     0.048 C 
HETATM   22  C   UNL     1       7.290  33.333  63.381  1.00  0.00     0.007 A 
HETATM   23  C   UNL     1       8.165  32.250  63.320  1.00  0.00     0.009 A 
HETATM   24  C   UNL     1       8.235  31.445  62.171  1.00  0.00    -0.035 A 
HETATM   25  C   UNL     1       9.181  30.272  62.178  1.00  0.00     0.050 C 
ENDBRANCH  15  18
ENDBRANCH   1  14
BRANCH   2  26
HETATM   26  N   UNL     1       9.119  28.314  57.402  1.00  0.00    -0.383 N 
HETATM   27  H   UNL     1       9.957  28.391  56.828  1.00  0.00     0.157 HD
HETATM   28  H   UNL     1       9.315  28.102  58.383  1.00  0.00     0.157 HD
ENDBRANCH   2  26
BRANCH   3  29
HETATM   29  N   UNL     1       7.645  27.826  55.122  1.00  0.00    -0.176 NA
HETATM   30  C   UNL     1       7.065  26.679  55.209  1.00  0.00     0.153 C 
BRANCH  30  31
HETATM   31  C   UNL     1       7.392  25.695  54.191  1.00  0.00     0.011 A 
HETATM   32  C   UNL     1       7.562  24.283  54.357  1.00  0.00     0.004 A 
HETATM   33  C   UNL     1       7.784  23.739  53.090  1.00  0.00     0.043 A 
HETATM   34  C   UNL     1       7.523  23.408  55.463  1.00  0.00     0.014 A 
HETATM   35  C   UNL     1       7.964  22.368  52.872  1.00  0.00     0.030 A 
HETATM   36  N   UNL     1       7.773  24.779  52.192  1.00  0.00    -0.364 N 
HETATM   37  C   UNL     1       7.919  21.524  53.985  1.00  0.00     0.002 A 
HETATM   38  C   UNL     1       7.705  22.034  55.262  1.00  0.00     0.001 A 
HETATM   39  H   UNL     1       7.903  24.678  51.194  1.00  0.00     0.165 HD
HETATM   40  C   UNL     1       7.537  25.958  52.839  1.00  0.00     0.102 A 
ENDBRANCH  30  31
ENDBRANCH   3  29
TORSDOF 5
ENDMDL
MODEL 2
REMARK VINA RESULT:     -11.4      4.463      8.852
REMARK  5 active torsions:
REMARK  status: ('A' for Active; 'I' for Inactive)
REMARK    1  A    between atoms: C_4  and  N_5 
REMARK       I    between atoms: N_5  and  C_6 
REMARK    2  A    between atoms: C_6  and  C_7 
REMARK    3  A    between atoms: C_8  and  N_9 
REMARK    4  A    between atoms: N_10  and  N_11 
REMARK    5  A    between atoms: C_12  and  C_13 
ROOT
HETATM    1  C   UNL     1       4.917  27.796  51.610  1.00  0.00     0.110 A 
HETATM    2  C   UNL     1       5.606  26.636  51.903  1.00  0.00     0.143 A 
HETATM    3  N   UNL     1       5.636  26.461  53.284  1.00  0.00    -0.197 N 
HETATM    4  C   UNL     1       5.053  27.578  53.870  1.00  0.00     0.183 A 
HETATM    5  C   UNL     1       4.598  28.404  52.842  1.00  0.00     0.125 A 
HETATM    6  N   UNL     1       3.927  29.554  53.100  1.00  0.00    -0.242 NA
HETATM    7  C   UNL     1       3.793  29.848  54.402  1.00  0.00     0.086 A 
HETATM    8  C   UNL     1       4.277  29.002  55.434  1.00  0.00     0.088 A 
HETATM    9  N   UNL     1       4.909  27.840  55.191  1.00  0.00    -0.225 NA
HETATM   10  C   UNL     1       3.149  31.031  54.747  1.00  0.00     0.034 A 
HETATM   11  C   UNL     1       2.967  31.402  56.080  1.00  0.00     0.002 A 
HETATM   12  C   UNL     1       3.434  30.573  57.090  1.00  0.00     0.002 A 
HETATM   13  C   UNL     1       4.083  29.383  56.757  1.00  0.00     0.034 A 
ENDROOT
BRANCH   1  14
HETATM   14  C   UNL     1       4.532  28.177  50.268  1.00  0.00     0.262 C 
HETATM   15  N   UNL     1       3.155  28.168  50.150  1.00  0.00    -0.322 N 
HETATM   16  H   UNL     1       2.655  28.103  51.026  1.00  0.00     0.169 HD
HETATM   17  O   UNL     1       5.358  28.353  49.385  1.00  0.00    -0.267 OA
BRANCH  15  18
HETATM   18  C   UNL     1       2.378  27.990  48.986  1.00  0.00     0.041 A 
HETATM   19  C   UNL     1       1.521  28.984  48.497  1.00  0.00     0.037 A 
HETATM   20  C   UNL     1       0.857  28.831  47.271  1.00  0.00    -0.060 A 
HETATM   21  C   UNL     1       0.005  29.945  46.737  1.00  0.00     0.048 C 
HETATM   22  C   UNL     1       1.055  27.666  46.528  1.00  0.00     0.007 A 
HETATM   23  C   UNL     1       1.884  26.658  47.014  1.00  0.00     0.009 A 
HETATM   24  C   UNL     1       2.548  26.801  48.242  1.00  0.00    -0.035 A 
HETATM   25  C   UNL     1       3.453  25.687  48.699  1.00  0.00     0.050 C 
ENDBRANCH  15  18
ENDBRANCH   1  14
BRANCH   2  26
HETATM   26  N   UNL     1       6.129  25.691  51.078  1.00  0.00    -0.383 N 
HETATM   27  H   UNL     1       6.431  24.791  51.446  1.00  0.00     0.157 HD
HETATM   28  H   UNL     1       5.764  25.640  50.124  1.00  0.00     0.157 HD
ENDBRANCH   2  26
BRANCH   3  29
HETATM   29  N   UNL     1       6.145  25.304  53.808  1.00  0.00    -0.176 NA
HETATM   30  C   UNL     1       7.301  25.356  54.372  1.00  0.00     0.153 C 
BRANCH  30  31
HETATM   31  C   UNL     1       7.763  24.153  55.044  1.00  0.00     0.011 A 
HETATM   32  C   UNL     1       7.976  22.856  54.476  1.00  0.00     0.004 A 
HETATM   33  C   UNL     1       8.501  22.041  55.481  1.00  0.00     0.043 A 
HETATM   34  C   UNL     1       7.796  22.301  53.191  1.00  0.00     0.014 A 
HETATM   35  C   UNL     1       8.859  20.706  55.268  1.00  0.00     0.030 A 
HETATM   36  N   UNL     1       8.583  22.804  56.622  1.00  0.00    -0.364 N 
HETATM   37  C   UNL     1       8.672  20.182  53.986  1.00  0.00     0.002 A 
HETATM   38  C   UNL     1       8.146  20.964  52.962  1.00  0.00     0.001 A 
HETATM   39  H   UNL     1       8.936  22.473  57.510  1.00  0.00     0.165 HD
HETATM   40  C   UNL     1       8.145  24.073  56.372  1.00  0.00     0.102 A 
ENDBRANCH  30  31
ENDBRANCH   3  29
TORSDOF 5
ENDMDL
MODEL 3
REMARK VINA RESULT:     -11.3      3.392     10.099
REMARK  5 active torsions:
REMARK  status: ('A' for Active; 'I' for Inactive)
REMARK    1  A    between atoms: C_4  and  N_5 
REMARK       I    between atoms: N_5  and  C_6 
REMARK    2  A    between atoms: C_6  and  C_7 
REMARK    3  A    between atoms: C_8  and  N_9 
REMARK    4  A    between atoms: N_10  and  N_11 
REMARK    5  A    between atoms: C_12  and  C_13 
ROOT
HETATM    1  C   UNL     1       5.574  26.711  53.758  1.00  0.00     0.110 A 
HETATM    2  C   UNL     1       5.961  27.654  54.689  1.00  0.00     0.143 A 
HETATM    3  N   UNL     1       7.051  27.167  55.405  1.00  0.00    -0.197 N 
HETATM    4  C   UNL     1       7.285  25.861  54.993  1.00  0.00     0.183 A 
HETATM    5  C   UNL     1       6.382  25.575  53.969  1.00  0.00     0.125 A 
HETATM    6  N   UNL     1       6.401  24.384  53.318  1.00  0.00    -0.242 NA
HETATM    7  C   UNL     1       7.307  23.507  53.776  1.00  0.00     0.086 A 
HETATM    8  C   UNL     1       8.208  23.812  54.830  1.00  0.00     0.088 A 
HETATM    9  N   UNL     1       8.224  25.002  55.455  1.00  0.00    -0.225 NA
HETATM   10  C   UNL     1       7.363  22.250  53.185  1.00  0.00     0.034 A 
HETATM   11  C   UNL     1       8.282  21.286  53.602  1.00  0.00     0.002 A 
HETATM   12  C   UNL     1       9.167  21.585  54.628  1.00  0.00     0.002 A 
HETATM   13  C   UNL     1       9.120  22.843  55.230  1.00  0.00     0.034 A 
ENDROOT
BRANCH   1  14
HETATM   14  C   UNL     1       4.600  26.968  52.720  1.00  0.00     0.262 C 
HETATM   15  N   UNL     1       5.066  26.501  51.506  1.00  0.00    -0.322 N 
HETATM   16  H   UNL     1       5.877  25.901  51.566  1.00  0.00     0.169 HD
HETATM   17  O   UNL     1       3.585  27.615  52.933  1.00  0.00    -0.267 OA
BRANCH  15  18
HETATM   18  C   UNL     1       4.723  26.939  50.210  1.00  0.00     0.041 A 
HETATM   19  C   UNL     1       4.071  26.112  49.287  1.00  0.00     0.037 A 
HETATM   20  C   UNL     1       3.627  26.609  48.052  1.00  0.00    -0.060 A 
HETATM   21  C   UNL     1       2.864  25.718  47.117  1.00  0.00     0.048 C 
HETATM   22  C   UNL     1       3.843  27.953  47.740  1.00  0.00     0.007 A 
HETATM   23  C   UNL     1       4.513  28.781  48.637  1.00  0.00     0.009 A 
HETATM   24  C   UNL     1       4.964  28.289  49.873  1.00  0.00    -0.035 A 
HETATM   25  C   UNL     1       5.658  29.243  50.811  1.00  0.00     0.050 C 
ENDBRANCH  15  18
ENDBRANCH   1  14
BRANCH   2  26
HETATM   26  N   UNL     1       5.503  28.916  54.906  1.00  0.00    -0.383 N 
HETATM   27  H   UNL     1       6.131  29.644  55.240  1.00  0.00     0.157 HD
HETATM   28  H   UNL     1       4.763  29.264  54.292  1.00  0.00     0.157 HD
ENDBRANCH   2  26
BRANCH   3  29
HETATM   29  N   UNL     1       7.699  27.985  56.290  1.00  0.00    -0.176 NA
HETATM   30  C   UNL     1       8.723  28.640  55.866  1.00  0.00     0.153 C 
BRANCH  30  31
HETATM   31  C   UNL     1       9.314  29.605  56.777  1.00  0.00     0.011 A 
HETATM   32  C   UNL     1       8.650  30.400  57.767  1.00  0.00     0.004 A 
HETATM   33  C   UNL     1       9.633  31.115  58.455  1.00  0.00     0.043 A 
HETATM   34  C   UNL     1       7.306  30.561  58.163  1.00  0.00     0.014 A 
HETATM   35  C   UNL     1       9.342  31.977  59.518  1.00  0.00     0.030 A 
HETATM   36  N   UNL     1      10.844  30.788  57.892  1.00  0.00    -0.364 N 
HETATM   37  C   UNL     1       8.003  32.117  59.890  1.00  0.00     0.002 A 
HETATM   38  C   UNL     1       6.998  31.423  59.223  1.00  0.00     0.001 A 
HETATM   39  H   UNL     1      11.736  31.154  58.196  1.00  0.00     0.165 HD
HETATM   40  C   UNL     1      10.666  29.882  56.886  1.00  0.00     0.102 A 
ENDBRANCH  30  31
ENDBRANCH   3  29
TORSDOF 5
ENDMDL
MODEL 4
REMARK VINA RESULT:     -11.2      2.968      6.944
REMARK  5 active torsions:
REMARK  status: ('A' for Active; 'I' for Inactive)
REMARK    1  A    between atoms: C_4  and  N_5 
REMARK       I    between atoms: N_5  and  C_6 
REMARK    2  A    between atoms: C_6  and  C_7 
REMARK    3  A    between atoms: C_8  and  N_9 
REMARK    4  A    between atoms: N_10  and  N_11 
REMARK    5  A    between atoms: C_12  and  C_13 
ROOT
HETATM    1  C   UNL     1       7.681  26.684  55.878  1.00  0.00     0.110 A 
HETATM    2  C   UNL     1       7.421  27.251  54.646  1.00  0.00     0.143 A 
HETATM    3  N   UNL     1       7.254  26.239  53.705  1.00  0.00    -0.197 N 
HETATM    4  C   UNL     1       7.517  25.027  54.330  1.00  0.00     0.183 A 
HETATM    5  C   UNL     1       7.773  25.292  55.675  1.00  0.00     0.125 A 
HETATM    6  N   UNL     1       8.010  24.294  56.563  1.00  0.00    -0.242 NA
HETATM    7  C   UNL     1       8.032  23.062  56.033  1.00  0.00     0.086 A 
HETATM    8  C   UNL     1       7.783  22.813  54.657  1.00  0.00     0.088 A 
HETATM    9  N   UNL     1       7.509  23.790  53.776  1.00  0.00    -0.225 NA
HETATM   10  C   UNL     1       8.305  21.989  56.873  1.00  0.00     0.034 A 
HETATM   11  C   UNL     1       8.339  20.677  56.396  1.00  0.00     0.002 A 
HETATM   12  C   UNL     1       8.091  20.432  55.053  1.00  0.00     0.002 A 
HETATM   13  C   UNL     1       7.816  21.501  54.199  1.00  0.00     0.034 A 
ENDROOT
BRANCH   1  14
HETATM   14  C   UNL     1       7.714  27.439  57.112  1.00  0.00     0.262 C 
HETATM   15  N   UNL     1       7.798  28.791  56.839  1.00  0.00    -0.322 N 
HETATM   16  H   UNL     1       7.623  29.040  55.875  1.00  0.00     0.169 HD
HETATM   17  O   UNL     1       7.776  26.891  58.203  1.00  0.00    -0.267 OA
BRANCH  15  18
HETATM   18  C   UNL     1       8.327  29.817  57.649  1.00  0.00     0.041 A 
HETATM   19  C   UNL     1       7.620  30.357  58.731  1.00  0.00     0.037 A 
HETATM   20  C   UNL     1       8.218  31.284  59.598  1.00  0.00    -0.060 A 
HETATM   21  C   UNL     1       7.461  31.788  60.792  1.00  0.00     0.048 C 
HETATM   22  C   UNL     1       9.539  31.675  59.375  1.00  0.00     0.007 A 
HETATM   23  C   UNL     1      10.246  31.166  58.288  1.00  0.00     0.009 A 
HETATM   24  C   UNL     1       9.654  30.241  57.414  1.00  0.00    -0.035 A 
HETATM   25  C   UNL     1      10.480  29.706  56.273  1.00  0.00     0.050 C 
ENDBRANCH  15  18
ENDBRANCH   1  14
BRANCH   2  26
HETATM   26  N   UNL     1       7.239  28.553  54.297  1.00  0.00    -0.383 N 
HETATM   27  H   UNL     1       6.846  29.217  54.962  1.00  0.00     0.157 HD
HETATM   28  H   UNL     1       7.916  28.971  53.654  1.00  0.00     0.157 HD
ENDBRANCH   2  26
BRANCH   3  29
HETATM   29  N   UNL     1       6.848  26.555  52.437  1.00  0.00    -0.176 NA
HETATM   30  C   UNL     1       5.593  26.455  52.165  1.00  0.00     0.153 C 
BRANCH  30  31
HETATM   31  C   UNL     1       5.161  26.925  50.860  1.00  0.00     0.011 A 
HETATM   32  C   UNL     1       5.203  28.261  50.349  1.00  0.00     0.004 A 
HETATM   33  C   UNL     1       4.762  28.215  49.024  1.00  0.00     0.043 A 
HETATM   34  C   UNL     1       5.599  29.508  50.879  1.00  0.00     0.014 A 
HETATM   35  C   UNL     1       4.702  29.347  48.203  1.00  0.00     0.030 A 
HETATM   36  N   UNL     1       4.442  26.908  48.747  1.00  0.00    -0.364 N 
HETATM   37  C   UNL     1       5.101  30.568  48.753  1.00  0.00     0.002 A 
HETATM   38  C   UNL     1       5.541  30.651  50.071  1.00  0.00     0.001 A 
HETATM   39  H   UNL     1       4.099  26.577  47.854  1.00  0.00     0.165 HD
HETATM   40  C   UNL     1       4.678  26.123  49.839  1.00  0.00     0.102 A 
ENDBRANCH  30  31
ENDBRANCH   3  29
TORSDOF 5
ENDMDL
MODEL 5
REMARK VINA RESULT:     -11.2      3.301      6.921
REMARK  5 active torsions:
REMARK  status: ('A' for Active; 'I' for Inactive)
REMARK    1  A    between atoms: C_4  and  N_5 
REMARK       I    between atoms: N_5  and  C_6 
REMARK    2  A    between atoms: C_6  and  C_7 
REMARK    3  A    between atoms: C_8  and  N_9 
REMARK    4  A    between atoms: N_10  and  N_11 
REMARK    5  A    between atoms: C_12  and  C_13 
ROOT
HETATM    1  C   UNL     1       7.558  26.704  55.433  1.00  0.00     0.110 A 
HETATM    2  C   UNL     1       7.310  27.342  54.234  1.00  0.00     0.143 A 
HETATM    3  N   UNL     1       7.147  26.387  53.235  1.00  0.00    -0.197 N 
HETATM    4  C   UNL     1       7.401  25.139  53.789  1.00  0.00     0.183 A 
HETATM    5  C   UNL     1       7.647  25.325  55.150  1.00  0.00     0.125 A 
HETATM    6  N   UNL     1       7.874  24.277  55.980  1.00  0.00    -0.242 NA
HETATM    7  C   UNL     1       7.895  23.077  55.379  1.00  0.00     0.086 A 
HETATM    8  C   UNL     1       7.657  22.909  53.990  1.00  0.00     0.088 A 
HETATM    9  N   UNL     1       7.393  23.937  53.165  1.00  0.00    -0.225 NA
HETATM   10  C   UNL     1       8.159  21.956  56.158  1.00  0.00     0.034 A 
HETATM   11  C   UNL     1       8.192  20.674  55.606  1.00  0.00     0.002 A 
HETATM   12  C   UNL     1       7.954  20.509  54.249  1.00  0.00     0.002 A 
HETATM   13  C   UNL     1       7.689  21.626  53.456  1.00  0.00     0.034 A 
ENDROOT
BRANCH   1  14
HETATM   14  C   UNL     1       7.584  27.385  56.708  1.00  0.00     0.262 C 
HETATM   15  N   UNL     1       7.667  28.751  56.515  1.00  0.00    -0.322 N 
HETATM   16  H   UNL     1       7.497  29.055  55.567  1.00  0.00     0.169 HD
HETATM   17  O   UNL     1       7.640  26.775  57.766  1.00  0.00    -0.267 OA
BRANCH  15  18
HETATM   18  C   UNL     1       8.190  29.728  57.387  1.00  0.00     0.041 A 
HETATM   19  C   UNL     1       7.442  30.272  58.439  1.00  0.00     0.037 A 
HETATM   20  C   UNL     1       8.026  31.147  59.368  1.00  0.00    -0.060 A 
HETATM   21  C   UNL     1       7.219  31.653  60.528  1.00  0.00     0.048 C 
HETATM   22  C   UNL     1       9.375  31.480  59.239  1.00  0.00     0.007 A 
HETATM   23  C   UNL     1      10.125  30.967  58.183  1.00  0.00     0.009 A 
HETATM   24  C   UNL     1       9.547  30.095  57.246  1.00  0.00    -0.035 A 
HETATM   25  C   UNL     1      10.418  29.552  56.143  1.00  0.00     0.050 C 
ENDBRANCH  15  18
ENDBRANCH   1  14
BRANCH   2  26
HETATM   26  N   UNL     1       7.135  28.662  53.960  1.00  0.00    -0.383 N 
HETATM   27  H   UNL     1       6.877  29.315  54.699  1.00  0.00     0.157 HD
HETATM   28  H   UNL     1       7.724  29.079  53.235  1.00  0.00     0.157 HD
ENDBRANCH   2  26
BRANCH   3  29
HETATM   29  N   UNL     1       6.752  26.778  51.984  1.00  0.00    -0.176 NA
HETATM   30  C   UNL     1       5.498  26.700  51.697  1.00  0.00     0.153 C 
BRANCH  30  31
HETATM   31  C   UNL     1       5.078  27.246  50.419  1.00  0.00     0.011 A 
HETATM   32  C   UNL     1       4.344  26.589  49.380  1.00  0.00     0.004 A 
HETATM   33  C   UNL     1       4.100  27.532  48.380  1.00  0.00     0.043 A 
HETATM   34  C   UNL     1       3.839  25.283  49.206  1.00  0.00     0.014 A 
HETATM   35  C   UNL     1       3.375  27.240  47.220  1.00  0.00     0.030 A 
HETATM   36  N   UNL     1       4.682  28.711  48.781  1.00  0.00    -0.364 N 
HETATM   37  C   UNL     1       2.885  25.939  47.072  1.00  0.00     0.002 A 
HETATM   38  C   UNL     1       3.114  24.973  48.047  1.00  0.00     0.001 A 
HETATM   39  H   UNL     1       4.658  29.573  48.252  1.00  0.00     0.165 HD
HETATM   40  C   UNL     1       5.271  28.553  50.003  1.00  0.00     0.102 A 
ENDBRANCH  30  31
ENDBRANCH   3  29
TORSDOF 5
ENDMDL
MODEL 6
REMARK VINA RESULT:     -10.9      3.800      8.131
REMARK  5 active torsions:
REMARK  status: ('A' for Active; 'I' for Inactive)
REMARK    1  A    between atoms: C_4  and  N_5 
REMARK       I    between atoms: N_5  and  C_6 
REMARK    2  A    between atoms: C_6  and  C_7 
REMARK    3  A    between atoms: C_8  and  N_9 
REMARK    4  A    between atoms: N_10  and  N_11 
REMARK    5  A    between atoms: C_12  and  C_13 
ROOT
HETATM    1  C   UNL     1       5.342  26.718  55.164  1.00  0.00     0.110 A 
HETATM    2  C   UNL     1       4.618  26.700  53.989  1.00  0.00     0.143 A 
HETATM    3  N   UNL     1       4.242  28.000  53.666  1.00  0.00    -0.197 N 
HETATM    4  C   UNL     1       4.643  28.832  54.703  1.00  0.00     0.183 A 
HETATM    5  C   UNL     1       5.331  28.049  55.629  1.00  0.00     0.125 A 
HETATM    6  N   UNL     1       5.899  28.591  56.735  1.00  0.00    -0.242 NA
HETATM    7  C   UNL     1       5.696  29.910  56.884  1.00  0.00     0.086 A 
HETATM    8  C   UNL     1       4.980  30.688  55.937  1.00  0.00     0.088 A 
HETATM    9  N   UNL     1       4.446  30.168  54.818  1.00  0.00    -0.225 NA
HETATM   10  C   UNL     1       6.216  30.532  58.013  1.00  0.00     0.034 A 
HETATM   11  C   UNL     1       6.051  31.901  58.234  1.00  0.00     0.002 A 
HETATM   12  C   UNL     1       5.356  32.663  57.306  1.00  0.00     0.002 A 
HETATM   13  C   UNL     1       4.828  32.049  56.169  1.00  0.00     0.034 A 
ENDROOT
BRANCH   1  14
HETATM   14  C   UNL     1       6.048  25.567  55.683  1.00  0.00     0.262 C 
HETATM   15  N   UNL     1       7.084  25.223  54.835  1.00  0.00    -0.322 N 
HETATM   16  H   UNL     1       7.303  25.916  54.133  1.00  0.00     0.169 HD
HETATM   17  O   UNL     1       5.659  24.962  56.672  1.00  0.00    -0.267 OA
BRANCH  15  18
HETATM   18  C   UNL     1       7.694  23.963  54.664  1.00  0.00     0.041 A 
HETATM   19  C   UNL     1       7.909  23.083  55.732  1.00  0.00     0.037 A 
HETATM   20  C   UNL     1       8.400  21.787  55.516  1.00  0.00    -0.060 A 
HETATM   21  C   UNL     1       8.549  20.841  56.672  1.00  0.00     0.048 C 
HETATM   22  C   UNL     1       8.678  21.369  54.214  1.00  0.00     0.007 A 
HETATM   23  C   UNL     1       8.493  22.242  53.144  1.00  0.00     0.009 A 
HETATM   24  C   UNL     1       8.007  23.543  53.352  1.00  0.00    -0.035 A 
HETATM   25  C   UNL     1       7.802  24.429  52.151  1.00  0.00     0.050 C 
ENDBRANCH  15  18
ENDBRANCH   1  14
BRANCH   2  26
HETATM   26  N   UNL     1       4.332  25.671  53.147  1.00  0.00    -0.383 N 
HETATM   27  H   UNL     1       4.607  25.712  52.167  1.00  0.00     0.157 HD
HETATM   28  H   UNL     1       4.343  24.724  53.534  1.00  0.00     0.157 HD
ENDBRANCH   2  26
BRANCH   3  29
HETATM   29  N   UNL     1       3.634  28.250  52.465  1.00  0.00    -0.176 NA
HETATM   30  C   UNL     1       4.379  28.604  51.476  1.00  0.00     0.153 C 
BRANCH  30  31
HETATM   31  C   UNL     1       3.737  28.730  50.179  1.00  0.00     0.011 A 
HETATM   32  C   UNL     1       3.518  27.706  49.202  1.00  0.00     0.004 A 
HETATM   33  C   UNL     1       2.792  28.276  48.154  1.00  0.00     0.043 A 
HETATM   34  C   UNL     1       3.847  26.336  49.120  1.00  0.00     0.014 A 
HETATM   35  C   UNL     1       2.375  27.549  47.034  1.00  0.00     0.030 A 
HETATM   36  N   UNL     1       2.596  29.600  48.468  1.00  0.00    -0.364 N 
HETATM   37  C   UNL     1       2.713  26.194  46.979  1.00  0.00     0.002 A 
HETATM   38  C   UNL     1       3.440  25.595  48.003  1.00  0.00     0.001 A 
HETATM   39  H   UNL     1       2.092  30.259  47.889  1.00  0.00     0.165 HD
HETATM   40  C   UNL     1       3.156  29.885  49.680  1.00  0.00     0.102 A 
ENDBRANCH  30  31
ENDBRANCH   3  29
TORSDOF 5
ENDMDL
MODEL 7
REMARK VINA RESULT:     -10.8      2.915      4.818
REMARK  5 active torsions:
REMARK  status: ('A' for Active; 'I' for Inactive)
REMARK    1  A    between atoms: C_4  and  N_5 
REMARK       I    between atoms: N_5  and  C_6 
REMARK    2  A    between atoms: C_6  and  C_7 
REMARK    3  A    between atoms: C_8  and  N_9 
REMARK    4  A    between atoms: N_10  and  N_11 
REMARK    5  A    between atoms: C_12  and  C_13 
ROOT
HETATM    1  C   UNL     1       5.007  27.799  54.565  1.00  0.00     0.110 A 
HETATM    2  C   UNL     1       5.309  26.485  54.858  1.00  0.00     0.143 A 
HETATM    3  N   UNL     1       5.492  25.783  53.670  1.00  0.00    -0.197 N 
HETATM    4  C   UNL     1       5.197  26.640  52.618  1.00  0.00     0.183 A 
HETATM    5  C   UNL     1       4.905  27.891  53.162  1.00  0.00     0.125 A 
HETATM    6  N   UNL     1       4.630  28.961  52.375  1.00  0.00    -0.242 NA
HETATM    7  C   UNL     1       4.610  28.701  51.058  1.00  0.00     0.086 A 
HETATM    8  C   UNL     1       4.896  27.418  50.524  1.00  0.00     0.088 A 
HETATM    9  N   UNL     1       5.207  26.360  51.292  1.00  0.00    -0.225 NA
HETATM   10  C   UNL     1       4.299  29.740  50.188  1.00  0.00     0.034 A 
HETATM   11  C   UNL     1       4.263  29.549  48.806  1.00  0.00     0.002 A 
HETATM   12  C   UNL     1       4.548  28.296  48.282  1.00  0.00     0.002 A 
HETATM   13  C   UNL     1       4.861  27.245  49.146  1.00  0.00     0.034 A 
ENDROOT
BRANCH   1  14
HETATM   14  C   UNL     1       4.946  28.845  55.563  1.00  0.00     0.262 C 
HETATM   15  N   UNL     1       6.212  29.339  55.810  1.00  0.00    -0.322 N 
HETATM   16  H   UNL     1       6.916  29.053  55.144  1.00  0.00     0.169 HD
HETATM   17  O   UNL     1       3.908  29.120  56.148  1.00  0.00    -0.267 OA
BRANCH  15  18
HETATM   18  C   UNL     1       6.694  29.967  56.978  1.00  0.00     0.041 A 
HETATM   19  C   UNL     1       6.080  31.098  57.529  1.00  0.00     0.037 A 
HETATM   20  C   UNL     1       6.501  31.627  58.758  1.00  0.00    -0.060 A 
HETATM   21  C   UNL     1       5.774  32.794  59.359  1.00  0.00     0.048 C 
HETATM   22  C   UNL     1       7.552  31.013  59.441  1.00  0.00     0.007 A 
HETATM   23  C   UNL     1       8.190  29.903  58.893  1.00  0.00     0.009 A 
HETATM   24  C   UNL     1       7.777  29.371  57.661  1.00  0.00    -0.035 A 
HETATM   25  C   UNL     1       8.489  28.151  57.136  1.00  0.00     0.050 C 
ENDBRANCH  15  18
ENDBRANCH   1  14
BRANCH   2  26
HETATM   26  N   UNL     1       5.516  25.876  56.056  1.00  0.00    -0.383 N 
HETATM   27  H   UNL     1       4.805  25.909  56.784  1.00  0.00     0.157 HD
HETATM   28  H   UNL     1       6.065  25.012  56.062  1.00  0.00     0.157 HD
ENDBRANCH   2  26
BRANCH   3  29
HETATM   29  N   UNL     1       5.939  24.490  53.710  1.00  0.00    -0.176 NA
HETATM   30  C   UNL     1       7.171  24.270  53.405  1.00  0.00     0.153 C 
BRANCH  30  31
HETATM   31  C   UNL     1       7.664  22.916  53.585  1.00  0.00     0.011 A 
HETATM   32  C   UNL     1       7.998  22.257  54.813  1.00  0.00     0.004 A 
HETATM   33  C   UNL     1       8.345  20.941  54.499  1.00  0.00     0.043 A 
HETATM   34  C   UNL     1       8.013  22.649  56.168  1.00  0.00     0.014 A 
HETATM   35  C   UNL     1       8.701  19.998  55.469  1.00  0.00     0.030 A 
HETATM   36  N   UNL     1       8.250  20.809  53.134  1.00  0.00    -0.364 N 
HETATM   37  C   UNL     1       8.708  20.411  56.804  1.00  0.00     0.002 A 
HETATM   38  C   UNL     1       8.372  21.716  57.151  1.00  0.00     0.001 A 
HETATM   39  H   UNL     1       8.438  19.956  52.625  1.00  0.00     0.165 HD
HETATM   40  C   UNL     1       7.841  21.986  52.575  1.00  0.00     0.102 A 
ENDBRANCH  30  31
ENDBRANCH   3  29
TORSDOF 5
ENDMDL
MODEL 8
REMARK VINA RESULT:     -10.8      2.131      5.397
REMARK  5 active torsions:
REMARK  status: ('A' for Active; 'I' for Inactive)
REMARK    1  A    between atoms: C_4  and  N_5 
REMARK       I    between atoms: N_5  and  C_6 
REMARK    2  A    between atoms: C_6  and  C_7 
REMARK    3  A    between atoms: C_8  and  N_9 
REMARK    4  A    between atoms: N_10  and  N_11 
REMARK    5  A    between atoms: C_12  and  C_13 
ROOT
HETATM    1  C   UNL     1       5.927  30.714  56.567  1.00  0.00     0.110 A 
HETATM    2  C   UNL     1       6.431  29.582  55.959  1.00  0.00     0.143 A 
HETATM    3  N   UNL     1       7.359  28.984  56.806  1.00  0.00    -0.197 N 
HETATM    4  C   UNL     1       7.520  29.807  57.914  1.00  0.00     0.183 A 
HETATM    5  C   UNL     1       6.632  30.874  57.778  1.00  0.00     0.125 A 
HETATM    6  N   UNL     1       6.512  31.825  58.738  1.00  0.00    -0.242 NA
HETATM    7  C   UNL     1       7.346  31.682  59.779  1.00  0.00     0.086 A 
HETATM    8  C   UNL     1       8.254  30.596  59.892  1.00  0.00     0.088 A 
HETATM    9  N   UNL     1       8.354  29.628  58.966  1.00  0.00    -0.225 NA
HETATM   10  C   UNL     1       7.310  32.638  60.788  1.00  0.00     0.034 A 
HETATM   11  C   UNL     1       8.143  32.554  61.905  1.00  0.00     0.002 A 
HETATM   12  C   UNL     1       9.026  31.491  62.019  1.00  0.00     0.002 A 
HETATM   13  C   UNL     1       9.073  30.525  61.013  1.00  0.00     0.034 A 
ENDROOT
BRANCH   1  14
HETATM   14  C   UNL     1       4.804  31.464  56.049  1.00  0.00     0.262 C 
HETATM   15  N   UNL     1       4.966  32.810  56.321  1.00  0.00    -0.322 N 
HETATM   16  H   UNL     1       5.890  33.069  56.638  1.00  0.00     0.169 HD
HETATM   17  O   UNL     1       3.831  30.913  55.556  1.00  0.00    -0.267 OA
BRANCH  15  18
HETATM   18  C   UNL     1       3.973  33.802  56.453  1.00  0.00     0.041 A 
HETATM   19  C   UNL     1       3.310  34.043  57.662  1.00  0.00     0.037 A 
HETATM   20  C   UNL     1       2.419  35.118  57.800  1.00  0.00    -0.060 A 
HETATM   21  C   UNL     1       1.783  35.396  59.131  1.00  0.00     0.048 C 
HETATM   22  C   UNL     1       2.190  35.960  56.711  1.00  0.00     0.007 A 
HETATM   23  C   UNL     1       2.822  35.717  55.493  1.00  0.00     0.009 A 
HETATM   24  C   UNL     1       3.712  34.640  55.346  1.00  0.00    -0.035 A 
HETATM   25  C   UNL     1       4.385  34.448  54.012  1.00  0.00     0.050 C 
ENDBRANCH  15  18
ENDBRANCH   1  14
BRANCH   2  26
HETATM   26  N   UNL     1       6.094  28.992  54.781  1.00  0.00    -0.383 N 
HETATM   27  H   UNL     1       6.272  29.463  53.896  1.00  0.00     0.157 HD
HETATM   28  H   UNL     1       6.166  27.973  54.723  1.00  0.00     0.157 HD
ENDBRANCH   2  26
BRANCH   3  29
HETATM   29  N   UNL     1       7.891  27.767  56.477  1.00  0.00    -0.176 NA
HETATM   30  C   UNL     1       7.332  26.714  56.965  1.00  0.00     0.153 C 
BRANCH  30  31
HETATM   31  C   UNL     1       7.821  25.429  56.497  1.00  0.00     0.011 A 
HETATM   32  C   UNL     1       7.647  24.841  55.203  1.00  0.00     0.004 A 
HETATM   33  C   UNL     1       8.362  23.641  55.190  1.00  0.00     0.043 A 
HETATM   34  C   UNL     1       6.969  25.227  54.027  1.00  0.00     0.014 A 
HETATM   35  C   UNL     1       8.438  22.813  54.066  1.00  0.00     0.030 A 
HETATM   36  N   UNL     1       8.930  23.492  56.434  1.00  0.00    -0.364 N 
HETATM   37  C   UNL     1       7.757  23.219  52.915  1.00  0.00     0.002 A 
HETATM   38  C   UNL     1       7.031  24.407  52.894  1.00  0.00     0.001 A 
HETATM   39  H   UNL     1       9.512  22.713  56.710  1.00  0.00     0.165 HD
HETATM   40  C   UNL     1       8.614  24.559  57.226  1.00  0.00     0.102 A 
ENDBRANCH  30  31
ENDBRANCH   3  29
TORSDOF 5
ENDMDL
MODEL 9
REMARK VINA RESULT:     -10.7      2.914      9.482
REMARK  5 active torsions:
REMARK  status: ('A' for Active; 'I' for Inactive)
REMARK    1  A    between atoms: C_4  and  N_5 
REMARK       I    between atoms: N_5  and  C_6 
REMARK    2  A    between atoms: C_6  and  C_7 
REMARK    3  A    between atoms: C_8  and  N_9 
REMARK    4  A    between atoms: N_10  and  N_11 
REMARK    5  A    between atoms: C_12  and  C_13 
ROOT
HETATM    1  C   UNL     1       5.439  26.841  55.140  1.00  0.00     0.110 A 
HETATM    2  C   UNL     1       5.120  27.871  56.003  1.00  0.00     0.143 A 
HETATM    3  N   UNL     1       4.490  28.885  55.288  1.00  0.00    -0.197 N 
HETATM    4  C   UNL     1       4.508  28.537  53.944  1.00  0.00     0.183 A 
HETATM    5  C   UNL     1       5.085  27.271  53.844  1.00  0.00     0.125 A 
HETATM    6  N   UNL     1       5.192  26.631  52.653  1.00  0.00    -0.242 NA
HETATM    7  C   UNL     1       4.755  27.332  51.596  1.00  0.00     0.086 A 
HETATM    8  C   UNL     1       4.184  28.626  51.716  1.00  0.00     0.088 A 
HETATM    9  N   UNL     1       4.038  29.254  52.895  1.00  0.00    -0.225 NA
HETATM   10  C   UNL     1       4.865  26.758  50.334  1.00  0.00     0.034 A 
HETATM   11  C   UNL     1       4.427  27.424  49.188  1.00  0.00     0.002 A 
HETATM   12  C   UNL     1       3.864  28.686  49.305  1.00  0.00     0.002 A 
HETATM   13  C   UNL     1       3.748  29.273  50.565  1.00  0.00     0.034 A 
ENDROOT
BRANCH   1  14
HETATM   14  C   UNL     1       5.926  25.553  55.582  1.00  0.00     0.262 C 
HETATM   15  N   UNL     1       6.994  25.155  54.799  1.00  0.00    -0.322 N 
HETATM   16  H   UNL     1       7.377  25.879  54.207  1.00  0.00     0.169 HD
HETATM   17  O   UNL     1       5.356  24.910  56.451  1.00  0.00    -0.267 OA
BRANCH  15  18
HETATM   18  C   UNL     1       7.447  23.846  54.536  1.00  0.00     0.041 A 
HETATM   19  C   UNL     1       7.483  22.853  55.523  1.00  0.00     0.037 A 
HETATM   20  C   UNL     1       7.816  21.527  55.207  1.00  0.00    -0.060 A 
HETATM   21  C   UNL     1       7.772  20.471  56.272  1.00  0.00     0.048 C 
HETATM   22  C   UNL     1       8.117  21.195  53.886  1.00  0.00     0.007 A 
HETATM   23  C   UNL     1       8.110  22.177  52.898  1.00  0.00     0.009 A 
HETATM   24  C   UNL     1       7.783  23.507  53.207  1.00  0.00    -0.035 A 
HETATM   25  C   UNL     1       7.766  24.516  52.089  1.00  0.00     0.050 C 
ENDBRANCH  15  18
ENDBRANCH   1  14
BRANCH   2  26
HETATM   26  N   UNL     1       5.257  27.961  57.353  1.00  0.00    -0.383 N 
HETATM   27  H   UNL     1       4.478  28.269  57.932  1.00  0.00     0.157 HD
HETATM   28  H   UNL     1       5.866  27.282  57.815  1.00  0.00     0.157 HD
ENDBRANCH   2  26
BRANCH   3  29
HETATM   29  N   UNL     1       3.955  29.952  55.958  1.00  0.00    -0.176 NA
HETATM   30  C   UNL     1       4.594  31.069  55.920  1.00  0.00     0.153 C 
BRANCH  30  31
HETATM   31  C   UNL     1       3.945  32.223  56.518  1.00  0.00     0.011 A 
HETATM   32  C   UNL     1       4.191  32.802  57.804  1.00  0.00     0.004 A 
HETATM   33  C   UNL     1       3.390  33.942  57.908  1.00  0.00     0.043 A 
HETATM   34  C   UNL     1       5.039  32.480  58.884  1.00  0.00     0.014 A 
HETATM   35  C   UNL     1       3.398  34.777  59.031  1.00  0.00     0.030 A 
HETATM   36  N   UNL     1       2.669  34.041  56.742  1.00  0.00    -0.364 N 
HETATM   37  C   UNL     1       4.249  34.435  60.086  1.00  0.00     0.002 A 
HETATM   38  C   UNL     1       5.056  33.303  60.017  1.00  0.00     0.001 A 
HETATM   39  H   UNL     1       2.008  34.778  56.536  1.00  0.00     0.165 HD
HETATM   40  C   UNL     1       2.993  33.017  55.900  1.00  0.00     0.102 A 
ENDBRANCH  30  31
ENDBRANCH   3  29
TORSDOF 5
ENDMDL
MODEL 10
REMARK VINA RESULT:     -10.5      2.321      5.111
REMARK  5 active torsions:
REMARK  status: ('A' for Active; 'I' for Inactive)
REMARK    1  A    between atoms: C_4  and  N_5 
REMARK       I    between atoms: N_5  and  C_6 
REMARK    2  A    between atoms: C_6  and  C_7 
REMARK    3  A    between atoms: C_8  and  N_9 
REMARK    4  A    between atoms: N_10  and  N_11 
REMARK    5  A    between atoms: C_12  and  C_13 
ROOT
HETATM    1  C   UNL     1       5.143  31.518  57.195  1.00  0.00     0.110 A 
HETATM    2  C   UNL     1       5.544  30.712  56.149  1.00  0.00     0.143 A 
HETATM    3  N   UNL     1       6.697  30.026  56.518  1.00  0.00    -0.197 N 
HETATM    4  C   UNL     1       7.087  30.486  57.769  1.00  0.00     0.183 A 
HETATM    5  C   UNL     1       6.126  31.402  58.199  1.00  0.00     0.125 A 
HETATM    6  N   UNL     1       6.199  31.986  59.421  1.00  0.00    -0.242 NA
HETATM    7  C   UNL     1       7.283  31.655  60.140  1.00  0.00     0.086 A 
HETATM    8  C   UNL     1       8.258  30.732  59.679  1.00  0.00     0.088 A 
HETATM    9  N   UNL     1       8.176  30.117  58.486  1.00  0.00    -0.225 NA
HETATM   10  C   UNL     1       7.449  32.243  61.389  1.00  0.00     0.034 A 
HETATM   11  C   UNL     1       8.547  31.944  62.197  1.00  0.00     0.002 A 
HETATM   12  C   UNL     1       9.497  31.037  61.750  1.00  0.00     0.002 A 
HETATM   13  C   UNL     1       9.343  30.442  60.497  1.00  0.00     0.034 A 
ENDROOT
BRANCH   1  14
HETATM   14  C   UNL     1       3.878  32.218  57.223  1.00  0.00     0.262 C 
HETATM   15  N   UNL     1       4.013  33.416  57.898  1.00  0.00    -0.322 N 
HETATM   16  H   UNL     1       4.967  33.696  58.078  1.00  0.00     0.169 HD
HETATM   17  O   UNL     1       2.850  31.713  56.793  1.00  0.00    -0.267 OA
BRANCH  15  18
HETATM   18  C   UNL     1       3.021  34.156  58.575  1.00  0.00     0.041 A 
HETATM   19  C   UNL     1       2.771  33.999  59.944  1.00  0.00     0.037 A 
HETATM   20  C   UNL     1       1.869  34.836  60.618  1.00  0.00    -0.060 A 
HETATM   21  C   UNL     1       1.679  34.692  62.100  1.00  0.00     0.048 C 
HETATM   22  C   UNL     1       1.209  35.841  59.909  1.00  0.00     0.007 A 
HETATM   23  C   UNL     1       1.428  35.993  58.542  1.00  0.00     0.009 A 
HETATM   24  C   UNL     1       2.326  35.156  57.859  1.00  0.00    -0.035 A 
HETATM   25  C   UNL     1       2.540  35.390  56.386  1.00  0.00     0.050 C 
ENDBRANCH  15  18
ENDBRANCH   1  14
BRANCH   2  26
HETATM   26  N   UNL     1       4.951  30.466  54.950  1.00  0.00    -0.383 N 
HETATM   27  H   UNL     1       3.972  30.703  54.799  1.00  0.00     0.157 HD
HETATM   28  H   UNL     1       5.526  30.553  54.109  1.00  0.00     0.157 HD
ENDBRANCH   2  26
BRANCH   3  29
HETATM   29  N   UNL     1       7.203  29.059  55.692  1.00  0.00    -0.176 NA
HETATM   30  C   UNL     1       6.853  27.839  55.911  1.00  0.00     0.153 C 
BRANCH  30  31
HETATM   31  C   UNL     1       7.287  26.844  54.945  1.00  0.00     0.011 A 
HETATM   32  C   UNL     1       7.464  25.438  55.150  1.00  0.00     0.004 A 
HETATM   33  C   UNL     1       7.809  24.877  53.918  1.00  0.00     0.043 A 
HETATM   34  C   UNL     1       7.339  24.581  56.264  1.00  0.00     0.014 A 
HETATM   35  C   UNL     1       8.029  23.507  53.742  1.00  0.00     0.030 A 
HETATM   36  N   UNL     1       7.863  25.903  53.004  1.00  0.00    -0.364 N 
HETATM   37  C   UNL     1       7.898  22.680  54.861  1.00  0.00     0.002 A 
HETATM   38  C   UNL     1       7.560  23.207  56.104  1.00  0.00     0.001 A 
HETATM   39  H   UNL     1       8.084  25.787  52.024  1.00  0.00     0.165 HD
HETATM   40  C   UNL     1       7.550  27.087  53.607  1.00  0.00     0.102 A 
ENDBRANCH  30  31
ENDBRANCH   3  29
TORSDOF 5
ENDMDL
