MODEL 1
REMARK VINA RESULT:      -9.4      0.000      0.000
REMARK  3 active torsions:
REMARK  status: ('A' for Active; 'I' for Inactive)
REMARK    1  A    between atoms: C_6  and  N_7 
REMARK       I    between atoms: N_7  and  C_8 
REMARK    2  A    between atoms: C_8  and  C_9 
REMARK    3  A    between atoms: C_9  and  C_10 
ROOT
HETATM    1  C   UNL     1       7.127  24.851  55.597  1.00  0.00     0.286 C 
HETATM    2  N   UNL     1       8.595  24.508  55.826  1.00  0.00    -0.056 N 
HETATM    3  H   UNL     1       9.127  25.134  55.181  1.00  0.00     0.278 HD
HETATM    4  H   UNL     1       8.896  24.775  56.770  1.00  0.00     0.278 HD
HETATM    5  C   UNL     1       8.970  23.088  55.512  1.00  0.00     0.209 C 
HETATM    6  C   UNL     1       8.483  22.719  54.088  1.00  0.00     0.115 C 
HETATM    7  N   UNL     1       7.098  23.114  53.828  1.00  0.00    -0.353 N 
HETATM    8  C   UNL     1       6.576  24.309  54.267  1.00  0.00     0.249 C 
HETATM    9  O   UNL     1       5.639  24.831  53.674  1.00  0.00    -0.271 OA
HETATM   10  C   UNL     1       8.437  22.161  56.605  1.00  0.00     0.035 C 
HETATM   11  C   UNL     1       8.715  20.699  56.271  1.00  0.00     0.002 C 
HETATM   12  C   UNL     1       8.139  20.328  54.908  1.00  0.00     0.002 C 
HETATM   13  C   UNL     1       8.690  21.226  53.801  1.00  0.00     0.027 C 
HETATM   14  H   UNL     1       6.695  22.834  52.935  1.00  0.00     0.163 HD
ENDROOT
BRANCH   1  15
HETATM   15  C   UNL     1       6.860  26.351  55.756  1.00  0.00     0.146 C 
BRANCH  15  16
HETATM   16  C   UNL     1       7.690  26.968  56.862  1.00  0.00     0.224 C 
HETATM   17  N   UNL     1       8.018  28.277  56.606  1.00  0.00    -0.327 N 
HETATM   18  H   UNL     1       8.074  28.532  55.624  1.00  0.00     0.169 HD
HETATM   19  O   UNL     1       7.923  26.308  57.873  1.00  0.00    -0.273 OA
BRANCH  17  20
HETATM   20  C   UNL     1       8.492  29.279  57.488  1.00  0.00     0.040 A 
HETATM   21  C   UNL     1       9.789  29.819  57.535  1.00  0.00    -0.035 A 
HETATM   22  C   UNL     1      10.081  30.799  58.511  1.00  0.00     0.015 A 
HETATM   23  C   UNL     1      10.934  29.409  56.655  1.00  0.00     0.050 C 
HETATM   24  C   UNL     1       9.137  31.216  59.454  1.00  0.00    -0.061 A 
HETATM   25  C   UNL     1       9.506  32.203  60.522  1.00  0.00     0.048 C 
HETATM   26  C   UNL     1       7.873  30.637  59.431  1.00  0.00     0.009 A 
HETATM   27  C   UNL     1       7.557  29.684  58.460  1.00  0.00     0.030 A 
ENDBRANCH  17  20
ENDBRANCH  15  16
ENDBRANCH   1  15
TORSDOF 3
ENDMDL
MODEL 2
REMARK VINA RESULT:      -9.2      1.835      8.067
REMARK  3 active torsions:
REMARK  status: ('A' for Active; 'I' for Inactive)
REMARK    1  A    between atoms: C_6  and  N_7 
REMARK       I    between atoms: N_7  and  C_8 
REMARK    2  A    between atoms: C_8  and  C_9 
REMARK    3  A    between atoms: C_9  and  C_10 
ROOT
HETATM    1  C   UNL     1       7.115  29.112  56.226  1.00  0.00     0.286 C 
HETATM    2  N   UNL     1       8.395  28.467  56.744  1.00  0.00    -0.056 N 
HETATM    3  H   UNL     1       8.092  27.570  57.184  1.00  0.00     0.278 HD
HETATM    4  H   UNL     1       9.012  28.193  55.971  1.00  0.00     0.278 HD
HETATM    5  C   UNL     1       9.135  29.267  57.778  1.00  0.00     0.209 C 
HETATM    6  C   UNL     1       8.165  29.675  58.916  1.00  0.00     0.115 C 
HETATM    7  N   UNL     1       6.898  30.224  58.431  1.00  0.00    -0.353 N 
HETATM    8  C   UNL     1       6.236  29.704  57.342  1.00  0.00     0.249 C 
HETATM    9  O   UNL     1       5.022  29.828  57.238  1.00  0.00    -0.271 OA
HETATM   10  C   UNL     1       9.833  30.452  57.109  1.00  0.00     0.035 C 
HETATM   11  C   UNL     1      10.514  31.344  58.142  1.00  0.00     0.002 C 
HETATM   12  C   UNL     1       9.522  31.817  59.199  1.00  0.00     0.002 C 
HETATM   13  C   UNL     1       8.840  30.642  59.898  1.00  0.00     0.027 C 
HETATM   14  H   UNL     1       6.248  30.579  59.131  1.00  0.00     0.163 HD
ENDROOT
BRANCH   1  15
HETATM   15  C   UNL     1       6.322  28.161  55.322  1.00  0.00     0.146 C 
BRANCH  15  16
HETATM   16  C   UNL     1       7.213  27.151  54.631  1.00  0.00     0.224 C 
HETATM   17  N   UNL     1       7.015  25.873  55.093  1.00  0.00    -0.327 N 
HETATM   18  H   UNL     1       6.681  25.797  56.049  1.00  0.00     0.169 HD
HETATM   19  O   UNL     1       7.943  27.525  53.715  1.00  0.00    -0.273 OA
BRANCH  17  20
HETATM   20  C   UNL     1       7.394  24.635  54.518  1.00  0.00     0.040 A 
HETATM   21  C   UNL     1       6.878  24.053  53.347  1.00  0.00    -0.035 A 
HETATM   22  C   UNL     1       7.367  22.789  52.945  1.00  0.00     0.015 A 
HETATM   23  C   UNL     1       5.796  24.640  52.488  1.00  0.00     0.050 C 
HETATM   24  C   UNL     1       8.313  22.083  53.694  1.00  0.00    -0.061 A 
HETATM   25  C   UNL     1       8.752  20.711  53.275  1.00  0.00     0.048 C 
HETATM   26  C   UNL     1       8.778  22.645  54.878  1.00  0.00     0.009 A 
HETATM   27  C   UNL     1       8.325  23.903  55.281  1.00  0.00     0.030 A 
ENDBRANCH  17  20
ENDBRANCH  15  16
ENDBRANCH   1  15
TORSDOF 3
ENDMDL
MODEL 3
REMARK VINA RESULT:      -9.1      2.912      8.059
REMARK  3 active torsions:
REMARK  status: ('A' for Active; 'I' for Inactive)
REMARK    1  A    between atoms: C_6  and  N_7 
REMARK       I    between atoms: N_7  and  C_8 
REMARK    2  A    between atoms: C_8  and  C_9 
REMARK    3  A    between atoms: C_9  and  C_10 
ROOT
HETATM    1  C   UNL     1       6.198  28.098  56.971  1.00  0.00     0.286 C 
HETATM    2  N   UNL     1       4.707  27.916  56.714  1.00  0.00    -0.056 N 
HETATM    3  H   UNL     1       4.641  27.138  56.020  1.00  0.00     0.278 HD
HETATM    4  H   UNL     1       4.225  27.571  57.552  1.00  0.00     0.278 HD
HETATM    5  C   UNL     1       4.011  29.115  56.136  1.00  0.00     0.209 C 
HETATM    6  C   UNL     1       4.779  29.614  54.885  1.00  0.00     0.115 C 
HETATM    7  N   UNL     1       6.224  29.719  55.095  1.00  0.00    -0.353 N 
HETATM    8  C   UNL     1       6.937  28.782  55.807  1.00  0.00     0.249 C 
HETATM    9  O   UNL     1       8.129  28.610  55.584  1.00  0.00    -0.271 OA
HETATM   10  C   UNL     1       3.839  30.181  57.219  1.00  0.00     0.035 C 
HETATM   11  C   UNL     1       3.224  31.454  56.646  1.00  0.00     0.002 C 
HETATM   12  C   UNL     1       4.050  31.986  55.480  1.00  0.00     0.002 C 
HETATM   13  C   UNL     1       4.202  30.941  54.375  1.00  0.00     0.027 C 
HETATM   14  H   UNL     1       6.776  30.111  54.334  1.00  0.00     0.163 HD
ENDROOT
BRANCH   1  15
HETATM   15  C   UNL     1       6.872  26.784  57.379  1.00  0.00     0.146 C 
BRANCH  15  16
HETATM   16  C   UNL     1       6.541  25.651  56.430  1.00  0.00     0.224 C 
HETATM   17  N   UNL     1       7.584  25.347  55.589  1.00  0.00    -0.327 N 
HETATM   18  H   UNL     1       8.220  26.112  55.384  1.00  0.00     0.169 HD
HETATM   19  O   UNL     1       5.457  25.080  56.536  1.00  0.00    -0.273 OA
BRANCH  17  20
HETATM   20  C   UNL     1       7.801  24.192  54.800  1.00  0.00     0.040 A 
HETATM   21  C   UNL     1       7.859  24.127  53.396  1.00  0.00    -0.035 A 
HETATM   22  C   UNL     1       8.058  22.869  52.783  1.00  0.00     0.015 A 
HETATM   23  C   UNL     1       7.677  25.288  52.463  1.00  0.00     0.050 C 
HETATM   24  C   UNL     1       8.158  21.686  53.523  1.00  0.00    -0.061 A 
HETATM   25  C   UNL     1       8.293  20.361  52.833  1.00  0.00     0.048 C 
HETATM   26  C   UNL     1       8.047  21.756  54.907  1.00  0.00     0.009 A 
HETATM   27  C   UNL     1       7.873  22.992  55.533  1.00  0.00     0.030 A 
ENDBRANCH  17  20
ENDBRANCH  15  16
ENDBRANCH   1  15
TORSDOF 3
ENDMDL
MODEL 4
REMARK VINA RESULT:      -9.1      5.089      8.782
REMARK  3 active torsions:
REMARK  status: ('A' for Active; 'I' for Inactive)
REMARK    1  A    between atoms: C_6  and  N_7 
REMARK       I    between atoms: N_7  and  C_8 
REMARK    2  A    between atoms: C_8  and  C_9 
REMARK    3  A    between atoms: C_9  and  C_10 
ROOT
HETATM    1  C   UNL     1       4.859  26.570  50.551  1.00  0.00     0.286 C 
HETATM    2  N   UNL     1       5.389  26.592  49.123  1.00  0.00    -0.056 N 
HETATM    3  H   UNL     1       6.146  27.312  49.121  1.00  0.00     0.278 HD
HETATM    4  H   UNL     1       5.857  25.710  48.886  1.00  0.00     0.278 HD
HETATM    5  C   UNL     1       4.380  26.975  48.078  1.00  0.00     0.209 C 
HETATM    6  C   UNL     1       3.686  28.301  48.481  1.00  0.00     0.115 C 
HETATM    7  N   UNL     1       3.242  28.323  49.876  1.00  0.00    -0.353 N 
HETATM    8  C   UNL     1       3.994  27.794  50.899  1.00  0.00     0.249 C 
HETATM    9  O   UNL     1       3.871  28.218  52.042  1.00  0.00    -0.271 OA
HETATM   10  C   UNL     1       3.409  25.816  47.851  1.00  0.00     0.035 C 
HETATM   11  C   UNL     1       2.310  26.204  46.866  1.00  0.00     0.002 C 
HETATM   12  C   UNL     1       1.571  27.454  47.333  1.00  0.00     0.002 C 
HETATM   13  C   UNL     1       2.527  28.630  47.532  1.00  0.00     0.027 C 
HETATM   14  H   UNL     1       2.713  29.138  50.181  1.00  0.00     0.163 HD
ENDROOT
BRANCH   1  15
HETATM   15  C   UNL     1       5.981  26.357  51.573  1.00  0.00     0.146 C 
BRANCH  15  16
HETATM   16  C   UNL     1       5.798  25.082  52.368  1.00  0.00     0.224 C 
HETATM   17  N   UNL     1       6.987  24.436  52.607  1.00  0.00    -0.327 N 
HETATM   18  H   UNL     1       7.720  24.595  51.922  1.00  0.00     0.169 HD
HETATM   19  O   UNL     1       4.676  24.786  52.775  1.00  0.00    -0.273 OA
BRANCH  17  20
HETATM   20  C   UNL     1       7.291  23.421  53.547  1.00  0.00     0.040 A 
HETATM   21  C   UNL     1       7.251  23.527  54.948  1.00  0.00    -0.035 A 
HETATM   22  C   UNL     1       7.619  22.405  55.725  1.00  0.00     0.015 A 
HETATM   23  C   UNL     1       6.890  24.765  55.717  1.00  0.00     0.050 C 
HETATM   24  C   UNL     1       8.060  21.210  55.147  1.00  0.00    -0.061 A 
HETATM   25  C   UNL     1       8.515  20.067  56.005  1.00  0.00     0.048 C 
HETATM   26  C   UNL     1       8.146  21.134  53.761  1.00  0.00     0.009 A 
HETATM   27  C   UNL     1       7.765  22.224  52.976  1.00  0.00     0.030 A 
ENDBRANCH  17  20
ENDBRANCH  15  16
ENDBRANCH   1  15
TORSDOF 3
ENDMDL
MODEL 5
REMARK VINA RESULT:      -9.1      2.034      7.695
REMARK  3 active torsions:
REMARK  status: ('A' for Active; 'I' for Inactive)
REMARK    1  A    between atoms: C_6  and  N_7 
REMARK       I    between atoms: N_7  and  C_8 
REMARK    2  A    between atoms: C_8  and  C_9 
REMARK    3  A    between atoms: C_9  and  C_10 
ROOT
HETATM    1  C   UNL     1       6.354  29.022  56.680  1.00  0.00     0.286 C 
HETATM    2  N   UNL     1       7.403  28.094  57.280  1.00  0.00    -0.056 N 
HETATM    3  H   UNL     1       6.931  27.632  58.089  1.00  0.00     0.278 HD
HETATM    4  H   UNL     1       7.637  27.332  56.634  1.00  0.00     0.278 HD
HETATM    5  C   UNL     1       8.639  28.779  57.790  1.00  0.00     0.209 C 
HETATM    6  C   UNL     1       8.241  29.932  58.747  1.00  0.00     0.115 C 
HETATM    7  N   UNL     1       7.177  30.786  58.215  1.00  0.00    -0.353 N 
HETATM    8  C   UNL     1       6.098  30.281  57.529  1.00  0.00     0.249 C 
HETATM    9  O   UNL     1       5.033  30.887  57.515  1.00  0.00    -0.271 OA
HETATM   10  C   UNL     1       9.503  29.227  56.610  1.00  0.00     0.035 C 
HETATM   11  C   UNL     1      10.720  30.014  57.087  1.00  0.00     0.002 C 
HETATM   12  C   UNL     1      10.302  31.204  57.944  1.00  0.00     0.002 C 
HETATM   13  C   UNL     1       9.465  30.766  59.146  1.00  0.00     0.027 C 
HETATM   14  H   UNL     1       6.923  31.606  58.765  1.00  0.00     0.163 HD
ENDROOT
BRANCH   1  15
HETATM   15  C   UNL     1       5.052  28.280  56.357  1.00  0.00     0.146 C 
BRANCH  15  16
HETATM   16  C   UNL     1       5.280  26.803  56.115  1.00  0.00     0.224 C 
HETATM   17  N   UNL     1       5.884  26.555  54.906  1.00  0.00    -0.327 N 
HETATM   18  H   UNL     1       5.715  27.245  54.180  1.00  0.00     0.169 HD
HETATM   19  O   UNL     1       4.991  26.001  57.000  1.00  0.00    -0.273 OA
BRANCH  17  20
HETATM   20  C   UNL     1       6.540  25.387  54.446  1.00  0.00     0.040 A 
HETATM   21  C   UNL     1       6.184  24.599  53.338  1.00  0.00    -0.035 A 
HETATM   22  C   UNL     1       6.950  23.446  53.050  1.00  0.00     0.015 A 
HETATM   23  C   UNL     1       5.010  24.847  52.436  1.00  0.00     0.050 C 
HETATM   24  C   UNL     1       8.020  23.042  53.855  1.00  0.00    -0.061 A 
HETATM   25  C   UNL     1       8.761  21.772  53.562  1.00  0.00     0.048 C 
HETATM   26  C   UNL     1       8.330  23.800  54.978  1.00  0.00     0.009 A 
HETATM   27  C   UNL     1       7.601  24.956  55.266  1.00  0.00     0.030 A 
ENDBRANCH  17  20
ENDBRANCH  15  16
ENDBRANCH   1  15
TORSDOF 3
ENDMDL
MODEL 6
REMARK VINA RESULT:      -8.9      3.529      8.022
REMARK  3 active torsions:
REMARK  status: ('A' for Active; 'I' for Inactive)
REMARK    1  A    between atoms: C_6  and  N_7 
REMARK       I    between atoms: N_7  and  C_8 
REMARK    2  A    between atoms: C_8  and  C_9 
REMARK    3  A    between atoms: C_9  and  C_10 
ROOT
HETATM    1  C   UNL     1       5.640  27.584  52.870  1.00  0.00     0.286 C 
HETATM    2  N   UNL     1       4.556  27.205  53.873  1.00  0.00    -0.056 N 
HETATM    3  H   UNL     1       3.692  27.063  53.303  1.00  0.00     0.278 HD
HETATM    4  H   UNL     1       4.749  26.293  54.301  1.00  0.00     0.278 HD
HETATM    5  C   UNL     1       4.261  28.248  54.913  1.00  0.00     0.209 C 
HETATM    6  C   UNL     1       3.993  29.611  54.226  1.00  0.00     0.115 C 
HETATM    7  N   UNL     1       4.984  29.952  53.204  1.00  0.00    -0.353 N 
HETATM    8  C   UNL     1       5.497  29.019  52.332  1.00  0.00     0.249 C 
HETATM    9  O   UNL     1       5.920  29.363  51.235  1.00  0.00    -0.271 OA
HETATM   10  C   UNL     1       5.395  28.287  55.938  1.00  0.00     0.035 C 
HETATM   11  C   UNL     1       5.178  29.402  56.956  1.00  0.00     0.002 C 
HETATM   12  C   UNL     1       5.017  30.752  56.265  1.00  0.00     0.002 C 
HETATM   13  C   UNL     1       3.865  30.736  55.261  1.00  0.00     0.027 C 
HETATM   14  H   UNL     1       4.905  30.869  52.768  1.00  0.00     0.163 HD
ENDROOT
BRANCH   1  15
HETATM   15  C   UNL     1       5.753  26.560  51.736  1.00  0.00     0.146 C 
BRANCH  15  16
HETATM   16  C   UNL     1       5.718  25.135  52.246  1.00  0.00     0.224 C 
HETATM   17  N   UNL     1       6.928  24.729  52.755  1.00  0.00    -0.327 N 
HETATM   18  H   UNL     1       7.746  25.189  52.365  1.00  0.00     0.169 HD
HETATM   19  O   UNL     1       4.653  24.520  52.232  1.00  0.00    -0.273 OA
BRANCH  17  20
HETATM   20  C   UNL     1       7.233  23.627  53.591  1.00  0.00     0.040 A 
HETATM   21  C   UNL     1       7.145  23.581  54.994  1.00  0.00    -0.035 A 
HETATM   22  C   UNL     1       7.522  22.391  55.659  1.00  0.00     0.015 A 
HETATM   23  C   UNL     1       6.722  24.719  55.876  1.00  0.00     0.050 C 
HETATM   24  C   UNL     1       8.017  21.278  54.971  1.00  0.00    -0.061 A 
HETATM   25  C   UNL     1       8.479  20.062  55.718  1.00  0.00     0.048 C 
HETATM   26  C   UNL     1       8.149  21.354  53.590  1.00  0.00     0.009 A 
HETATM   27  C   UNL     1       7.760  22.512  52.912  1.00  0.00     0.030 A 
ENDBRANCH  17  20
ENDBRANCH  15  16
ENDBRANCH   1  15
TORSDOF 3
ENDMDL
MODEL 7
REMARK VINA RESULT:      -8.5      2.422      8.520
REMARK  3 active torsions:
REMARK  status: ('A' for Active; 'I' for Inactive)
REMARK    1  A    between atoms: C_6  and  N_7 
REMARK       I    between atoms: N_7  and  C_8 
REMARK    2  A    between atoms: C_8  and  C_9 
REMARK    3  A    between atoms: C_9  and  C_10 
ROOT
HETATM    1  C   UNL     1       6.632  29.100  56.491  1.00  0.00     0.286 C 
HETATM    2  N   UNL     1       6.195  30.416  55.859  1.00  0.00    -0.056 N 
HETATM    3  H   UNL     1       7.078  30.878  55.545  1.00  0.00     0.278 HD
HETATM    4  H   UNL     1       5.656  30.255  55.000  1.00  0.00     0.278 HD
HETATM    5  C   UNL     1       5.481  31.359  56.785  1.00  0.00     0.209 C 
HETATM    6  C   UNL     1       6.319  31.561  58.074  1.00  0.00     0.115 C 
HETATM    7  N   UNL     1       6.812  30.308  58.648  1.00  0.00    -0.353 N 
HETATM    8  C   UNL     1       7.287  29.277  57.873  1.00  0.00     0.249 C 
HETATM    9  O   UNL     1       8.102  28.483  58.328  1.00  0.00    -0.271 OA
HETATM   10  C   UNL     1       4.063  30.848  57.046  1.00  0.00     0.035 C 
HETATM   11  C   UNL     1       3.339  31.728  58.061  1.00  0.00     0.002 C 
HETATM   12  C   UNL     1       4.132  31.833  59.360  1.00  0.00     0.002 C 
HETATM   13  C   UNL     1       5.540  32.374  59.117  1.00  0.00     0.027 C 
HETATM   14  H   UNL     1       7.307  30.369  59.537  1.00  0.00     0.163 HD
ENDROOT
BRANCH   1  15
HETATM   15  C   UNL     1       7.513  28.277  55.545  1.00  0.00     0.146 C 
BRANCH  15  16
HETATM   16  C   UNL     1       6.995  26.866  55.361  1.00  0.00     0.224 C 
HETATM   17  N   UNL     1       7.789  26.118  54.528  1.00  0.00    -0.327 N 
HETATM   18  H   UNL     1       8.312  26.642  53.831  1.00  0.00     0.169 HD
HETATM   19  O   UNL     1       6.006  26.506  55.996  1.00  0.00    -0.273 OA
BRANCH  17  20
HETATM   20  C   UNL     1       7.842  24.714  54.349  1.00  0.00     0.040 A 
HETATM   21  C   UNL     1       8.203  23.753  55.309  1.00  0.00    -0.035 A 
HETATM   22  C   UNL     1       8.223  22.390  54.932  1.00  0.00     0.015 A 
HETATM   23  C   UNL     1       8.623  24.048  56.719  1.00  0.00     0.050 C 
HETATM   24  C   UNL     1       7.938  21.974  53.627  1.00  0.00    -0.061 A 
HETATM   25  C   UNL     1       8.044  20.527  53.245  1.00  0.00     0.048 C 
HETATM   26  C   UNL     1       7.634  22.938  52.673  1.00  0.00     0.009 A 
HETATM   27  C   UNL     1       7.586  24.287  53.031  1.00  0.00     0.030 A 
ENDBRANCH  17  20
ENDBRANCH  15  16
ENDBRANCH   1  15
TORSDOF 3
ENDMDL
MODEL 8
REMARK VINA RESULT:      -8.5      4.601      7.050
REMARK  3 active torsions:
REMARK  status: ('A' for Active; 'I' for Inactive)
REMARK    1  A    between atoms: C_6  and  N_7 
REMARK       I    between atoms: N_7  and  C_8 
REMARK    2  A    between atoms: C_8  and  C_9 
REMARK    3  A    between atoms: C_9  and  C_10 
ROOT
HETATM    1  C   UNL     1       7.284  30.161  57.957  1.00  0.00     0.286 C 
HETATM    2  N   UNL     1       5.786  30.352  58.163  1.00  0.00    -0.056 N 
HETATM    3  H   UNL     1       5.571  29.877  59.068  1.00  0.00     0.278 HD
HETATM    4  H   UNL     1       5.556  31.341  58.316  1.00  0.00     0.278 HD
HETATM    5  C   UNL     1       4.917  29.745  57.099  1.00  0.00     0.209 C 
HETATM    6  C   UNL     1       5.308  28.260  56.888  1.00  0.00     0.115 C 
HETATM    7  N   UNL     1       6.752  28.052  56.766  1.00  0.00    -0.353 N 
HETATM    8  C   UNL     1       7.664  28.727  57.545  1.00  0.00     0.249 C 
HETATM    9  O   UNL     1       8.761  28.236  57.781  1.00  0.00    -0.271 OA
HETATM   10  C   UNL     1       4.994  30.591  55.827  1.00  0.00     0.035 C 
HETATM   11  C   UNL     1       4.200  29.951  54.693  1.00  0.00     0.002 C 
HETATM   12  C   UNL     1       4.669  28.524  54.432  1.00  0.00     0.002 C 
HETATM   13  C   UNL     1       4.565  27.659  55.687  1.00  0.00     0.027 C 
HETATM   14  H   UNL     1       7.068  27.108  56.551  1.00  0.00     0.163 HD
ENDROOT
BRANCH   1  15
HETATM   15  C   UNL     1       8.093  30.637  59.168  1.00  0.00     0.146 C 
BRANCH  15  16
HETATM   16  C   UNL     1       7.316  31.609  60.030  1.00  0.00     0.224 C 
HETATM   17  N   UNL     1       7.174  31.168  61.323  1.00  0.00    -0.327 N 
HETATM   18  H   UNL     1       7.187  30.160  61.448  1.00  0.00     0.169 HD
HETATM   19  O   UNL     1       6.962  32.684  59.550  1.00  0.00    -0.273 OA
BRANCH  17  20
HETATM   20  C   UNL     1       6.809  31.886  62.488  1.00  0.00     0.040 A 
HETATM   21  C   UNL     1       5.509  32.243  62.888  1.00  0.00    -0.035 A 
HETATM   22  C   UNL     1       5.346  32.989  64.078  1.00  0.00     0.015 A 
HETATM   23  C   UNL     1       4.251  31.939  62.128  1.00  0.00     0.050 C 
HETATM   24  C   UNL     1       6.434  33.418  64.844  1.00  0.00    -0.061 A 
HETATM   25  C   UNL     1       6.225  34.272  66.059  1.00  0.00     0.048 C 
HETATM   26  C   UNL     1       7.717  33.104  64.411  1.00  0.00     0.009 A 
HETATM   27  C   UNL     1       7.899  32.347  63.251  1.00  0.00     0.030 A 
ENDBRANCH  17  20
ENDBRANCH  15  16
ENDBRANCH   1  15
TORSDOF 3
ENDMDL
MODEL 9
REMARK VINA RESULT:      -8.3      4.746      7.741
REMARK  3 active torsions:
REMARK  status: ('A' for Active; 'I' for Inactive)
REMARK    1  A    between atoms: C_6  and  N_7 
REMARK       I    between atoms: N_7  and  C_8 
REMARK    2  A    between atoms: C_8  and  C_9 
REMARK    3  A    between atoms: C_9  and  C_10 
ROOT
HETATM    1  C   UNL     1       6.881  26.724  53.736  1.00  0.00     0.286 C 
HETATM    2  N   UNL     1       5.974  25.583  53.292  1.00  0.00    -0.056 N 
HETATM    3  H   UNL     1       5.067  25.745  53.785  1.00  0.00     0.278 HD
HETATM    4  H   UNL     1       5.753  25.652  52.292  1.00  0.00     0.278 HD
HETATM    5  C   UNL     1       6.461  24.208  53.653  1.00  0.00     0.209 C 
HETATM    6  C   UNL     1       6.798  24.153  55.165  1.00  0.00     0.115 C 
HETATM    7  N   UNL     1       7.605  25.286  55.621  1.00  0.00    -0.353 N 
HETATM    8  C   UNL     1       7.390  26.571  55.181  1.00  0.00     0.249 C 
HETATM    9  O   UNL     1       7.707  27.527  55.878  1.00  0.00    -0.271 OA
HETATM   10  C   UNL     1       7.629  23.822  52.745  1.00  0.00     0.035 C 
HETATM   11  C   UNL     1       8.213  22.471  53.147  1.00  0.00     0.002 C 
HETATM   12  C   UNL     1       8.634  22.468  54.613  1.00  0.00     0.002 C 
HETATM   13  C   UNL     1       7.466  22.821  55.533  1.00  0.00     0.027 C 
HETATM   14  H   UNL     1       7.922  25.269  56.589  1.00  0.00     0.163 HD
ENDROOT
BRANCH   1  15
HETATM   15  C   UNL     1       6.234  28.093  53.503  1.00  0.00     0.146 C 
BRANCH  15  16
HETATM   16  C   UNL     1       4.933  27.989  52.734  1.00  0.00     0.224 C 
HETATM   17  N   UNL     1       5.096  28.223  51.391  1.00  0.00    -0.327 N 
HETATM   18  H   UNL     1       5.874  28.827  51.141  1.00  0.00     0.169 HD
HETATM   19  O   UNL     1       3.913  27.648  53.329  1.00  0.00    -0.273 OA
BRANCH  17  20
HETATM   20  C   UNL     1       4.232  27.923  50.310  1.00  0.00     0.040 A 
HETATM   21  C   UNL     1       3.050  28.599  49.959  1.00  0.00    -0.035 A 
HETATM   22  C   UNL     1       2.302  28.131  48.855  1.00  0.00     0.015 A 
HETATM   23  C   UNL     1       2.469  29.772  50.694  1.00  0.00     0.050 C 
HETATM   24  C   UNL     1       2.676  26.995  48.129  1.00  0.00    -0.061 A 
HETATM   25  C   UNL     1       1.816  26.484  47.011  1.00  0.00     0.048 C 
HETATM   26  C   UNL     1       3.818  26.304  48.517  1.00  0.00     0.009 A 
HETATM   27  C   UNL     1       4.583  26.764  49.591  1.00  0.00     0.030 A 
ENDBRANCH  17  20
ENDBRANCH  15  16
ENDBRANCH   1  15
TORSDOF 3
ENDMDL
MODEL 10
REMARK VINA RESULT:      -8.3      3.205      4.255
REMARK  3 active torsions:
REMARK  status: ('A' for Active; 'I' for Inactive)
REMARK    1  A    between atoms: C_6  and  N_7 
REMARK       I    between atoms: N_7  and  C_8 
REMARK    2  A    between atoms: C_8  and  C_9 
REMARK    3  A    between atoms: C_9  and  C_10 
ROOT
HETATM    1  C   UNL     1       6.052  28.751  55.593  1.00  0.00     0.286 C 
HETATM    2  N   UNL     1       6.860  28.722  54.302  1.00  0.00    -0.056 N 
HETATM    3  H   UNL     1       6.485  29.508  53.725  1.00  0.00     0.278 HD
HETATM    4  H   UNL     1       7.844  28.958  54.473  1.00  0.00     0.278 HD
HETATM    5  C   UNL     1       6.732  27.456  53.502  1.00  0.00     0.209 C 
HETATM    6  C   UNL     1       5.234  27.126  53.281  1.00  0.00     0.115 C 
HETATM    7  N   UNL     1       4.431  27.227  54.500  1.00  0.00    -0.353 N 
HETATM    8  C   UNL     1       4.614  28.230  55.424  1.00  0.00     0.249 C 
HETATM    9  O   UNL     1       3.689  28.585  56.145  1.00  0.00    -0.271 OA
HETATM   10  C   UNL     1       7.516  26.335  54.185  1.00  0.00     0.035 C 
HETATM   11  C   UNL     1       7.329  25.009  53.454  1.00  0.00     0.002 C 
HETATM   12  C   UNL     1       5.852  24.651  53.335  1.00  0.00     0.002 C 
HETATM   13  C   UNL     1       5.062  25.750  52.624  1.00  0.00     0.027 C 
HETATM   14  H   UNL     1       3.452  26.951  54.435  1.00  0.00     0.163 HD
ENDROOT
BRANCH   1  15
HETATM   15  C   UNL     1       6.082  30.133  56.255  1.00  0.00     0.146 C 
BRANCH  15  16
HETATM   16  C   UNL     1       6.886  30.137  57.538  1.00  0.00     0.224 C 
HETATM   17  N   UNL     1       6.982  31.390  58.094  1.00  0.00    -0.327 N 
HETATM   18  H   UNL     1       6.921  32.166  57.442  1.00  0.00     0.169 HD
HETATM   19  O   UNL     1       7.298  29.070  57.989  1.00  0.00    -0.273 OA
BRANCH  17  20
HETATM   20  C   UNL     1       7.357  31.769  59.406  1.00  0.00     0.040 A 
HETATM   21  C   UNL     1       8.664  31.898  59.908  1.00  0.00    -0.035 A 
HETATM   22  C   UNL     1       8.839  32.264  61.262  1.00  0.00     0.015 A 
HETATM   23  C   UNL     1       9.923  31.633  59.134  1.00  0.00     0.050 C 
HETATM   24  C   UNL     1       7.756  32.459  62.127  1.00  0.00    -0.061 A 
HETATM   25  C   UNL     1       7.982  32.772  63.576  1.00  0.00     0.048 C 
HETATM   26  C   UNL     1       6.470  32.278  61.633  1.00  0.00     0.009 A 
HETATM   27  C   UNL     1       6.276  31.940  60.292  1.00  0.00     0.030 A 
ENDBRANCH  17  20
ENDBRANCH  15  16
ENDBRANCH   1  15
TORSDOF 3
ENDMDL
