MODEL 1
REMARK VINA RESULT:      -9.5      0.000      0.000
REMARK  5 active torsions:
REMARK  status: ('A' for Active; 'I' for Inactive)
REMARK    1  A    between atoms: O_2  and  C_3 
REMARK    2  A    between atoms: C_7  and  C_9 
REMARK    3  A    between atoms: C_9  and  N_11 
REMARK       I    between atoms: N_11  and  C_12 
REMARK    4  A    between atoms: C_12  and  C_14 
REMARK    5  A    between atoms: C_17  and  C_20 
ROOT
HETATM    1  N   UNL     1       4.590  27.044  51.196  1.00  0.00    -0.349 N 
HETATM    2  C   UNL     1       5.741  27.260  51.918  1.00  0.00     0.252 C 
HETATM    3  O   UNL     1       6.345  28.324  51.957  1.00  0.00    -0.268 OA
HETATM    4  H   UNL     1       4.283  26.091  51.051  1.00  0.00     0.163 HD
ENDROOT
BRANCH   2   5
HETATM    5  C   UNL     1       6.262  26.072  52.639  1.00  0.00     0.032 A 
HETATM    6  C   UNL     1       7.371  25.402  52.121  1.00  0.00     0.018 A 
HETATM    7  C   UNL     1       7.855  24.255  52.760  1.00  0.00     0.013 A 
HETATM    8  C   UNL     1       7.258  23.766  53.938  1.00  0.00    -0.023 A 
HETATM    9  C   UNL     1       6.162  24.479  54.458  1.00  0.00     0.013 A 
HETATM   10  C   UNL     1       5.664  25.619  53.817  1.00  0.00     0.018 A 
BRANCH   8  11
HETATM   11  C   UNL     1       7.764  22.549  54.604  1.00  0.00     0.016 A 
HETATM   12  C   UNL     1       8.078  22.547  55.972  1.00  0.00     0.034 A 
HETATM   13  C   UNL     1       8.557  21.385  56.565  1.00  0.00     0.117 A 
HETATM   14  N   UNL     1       8.744  20.225  55.901  1.00  0.00    -0.270 NA
HETATM   15  C   UNL     1       8.437  20.235  54.584  1.00  0.00     0.159 A 
HETATM   16  C   UNL     1       7.956  21.347  53.911  1.00  0.00     0.144 A 
HETATM   17  F   UNL     1       7.692  21.250  52.600  1.00  0.00    -0.204 F 
ENDBRANCH   8  11
ENDBRANCH   2   5
BRANCH   1  18
HETATM   18  C   UNL     1       3.989  28.082  50.372  1.00  0.00     0.114 C 
HETATM   19  C   UNL     1       3.003  28.930  51.178  1.00  0.00     0.037 C 
BRANCH  18  20
HETATM   20  C   UNL     1       3.326  27.455  49.157  1.00  0.00    -0.033 A 
HETATM   21  C   UNL     1       4.026  26.514  48.389  1.00  0.00     0.009 A 
HETATM   22  C   UNL     1       3.425  25.916  47.283  1.00  0.00     0.003 A 
HETATM   23  C   UNL     1       2.115  26.246  46.939  1.00  0.00     0.037 A 
HETATM   24  C   UNL     1       1.393  27.170  47.696  1.00  0.00     0.068 A 
HETATM   25  C   UNL     1       2.004  27.781  48.793  1.00  0.00     0.046 A 
BRANCH  24  26
HETATM   26  O   UNL     1       0.115  27.391  47.262  1.00  0.00    -0.356 OA
HETATM   27  C   UNL     1      -0.083  27.451  45.854  1.00  0.00     0.210 C 
ENDBRANCH  24  26
ENDBRANCH  18  20
ENDBRANCH   1  18
TORSDOF 5
ENDMDL
MODEL 2
REMARK VINA RESULT:      -9.3      5.401      8.416
REMARK  5 active torsions:
REMARK  status: ('A' for Active; 'I' for Inactive)
REMARK    1  A    between atoms: O_2  and  C_3 
REMARK    2  A    between atoms: C_7  and  C_9 
REMARK    3  A    between atoms: C_9  and  N_11 
REMARK       I    between atoms: N_11  and  C_12 
REMARK    4  A    between atoms: C_12  and  C_14 
REMARK    5  A    between atoms: C_17  and  C_20 
ROOT
HETATM    1  N   UNL     1       6.815  28.208  56.743  1.00  0.00    -0.349 N 
HETATM    2  C   UNL     1       5.821  27.288  56.499  1.00  0.00     0.252 C 
HETATM    3  O   UNL     1       4.629  27.490  56.686  1.00  0.00    -0.268 OA
HETATM    4  H   UNL     1       7.774  27.888  56.764  1.00  0.00     0.163 HD
ENDROOT
BRANCH   2   5
HETATM    5  C   UNL     1       6.295  25.964  56.023  1.00  0.00     0.032 A 
HETATM    6  C   UNL     1       7.232  25.268  56.789  1.00  0.00     0.018 A 
HETATM    7  C   UNL     1       7.724  24.038  56.341  1.00  0.00     0.013 A 
HETATM    8  C   UNL     1       7.278  23.466  55.134  1.00  0.00    -0.023 A 
HETATM    9  C   UNL     1       6.309  24.172  54.397  1.00  0.00     0.013 A 
HETATM   10  C   UNL     1       5.821  25.409  54.832  1.00  0.00     0.018 A 
BRANCH   8  11
HETATM   11  C   UNL     1       7.807  22.173  54.657  1.00  0.00     0.016 A 
HETATM   12  C   UNL     1       8.050  21.115  55.548  1.00  0.00     0.034 A 
HETATM   13  C   UNL     1       8.553  19.913  55.064  1.00  0.00     0.117 A 
HETATM   14  N   UNL     1       8.831  19.683  53.764  1.00  0.00    -0.270 NA
HETATM   15  C   UNL     1       8.592  20.707  52.913  1.00  0.00     0.159 A 
HETATM   16  C   UNL     1       8.093  21.938  53.307  1.00  0.00     0.144 A 
HETATM   17  F   UNL     1       7.903  22.889  52.380  1.00  0.00    -0.204 F 
ENDBRANCH   8  11
ENDBRANCH   2   5
BRANCH   1  18
HETATM   18  C   UNL     1       6.529  29.527  57.284  1.00  0.00     0.114 C 
HETATM   19  C   UNL     1       5.810  30.406  56.258  1.00  0.00     0.037 C 
BRANCH  18  20
HETATM   20  C   UNL     1       7.815  30.174  57.772  1.00  0.00    -0.033 A 
HETATM   21  C   UNL     1       9.035  29.842  57.165  1.00  0.00     0.009 A 
HETATM   22  C   UNL     1      10.221  30.439  57.587  1.00  0.00     0.003 A 
HETATM   23  C   UNL     1      10.198  31.384  58.612  1.00  0.00     0.037 A 
HETATM   24  C   UNL     1       8.994  31.742  59.222  1.00  0.00     0.068 A 
HETATM   25  C   UNL     1       7.810  31.128  58.809  1.00  0.00     0.046 A 
BRANCH  24  26
HETATM   26  O   UNL     1       9.109  32.691  60.200  1.00  0.00    -0.356 OA
HETATM   27  C   UNL     1       8.873  32.266  61.537  1.00  0.00     0.210 C 
ENDBRANCH  24  26
ENDBRANCH  18  20
ENDBRANCH   1  18
TORSDOF 5
ENDMDL
MODEL 3
REMARK VINA RESULT:      -9.1      5.349      8.248
REMARK  5 active torsions:
REMARK  status: ('A' for Active; 'I' for Inactive)
REMARK    1  A    between atoms: O_2  and  C_3 
REMARK    2  A    between atoms: C_7  and  C_9 
REMARK    3  A    between atoms: C_9  and  N_11 
REMARK       I    between atoms: N_11  and  C_12 
REMARK    4  A    between atoms: C_12  and  C_14 
REMARK    5  A    between atoms: C_17  and  C_20 
ROOT
HETATM    1  N   UNL     1       6.527  28.435  56.978  1.00  0.00    -0.349 N 
HETATM    2  C   UNL     1       5.620  27.523  56.490  1.00  0.00     0.252 C 
HETATM    3  O   UNL     1       4.412  27.712  56.428  1.00  0.00    -0.268 OA
HETATM    4  H   UNL     1       7.465  28.118  57.188  1.00  0.00     0.163 HD
ENDROOT
BRANCH   2   5
HETATM    5  C   UNL     1       6.201  26.222  56.071  1.00  0.00     0.032 A 
HETATM    6  C   UNL     1       5.786  25.657  54.865  1.00  0.00     0.018 A 
HETATM    7  C   UNL     1       6.289  24.412  54.468  1.00  0.00     0.013 A 
HETATM    8  C   UNL     1       7.228  23.718  55.254  1.00  0.00    -0.023 A 
HETATM    9  C   UNL     1       7.655  24.326  56.449  1.00  0.00     0.013 A 
HETATM   10  C   UNL     1       7.147  25.563  56.859  1.00  0.00     0.018 A 
BRANCH   8  11
HETATM   11  C   UNL     1       7.748  22.400  54.839  1.00  0.00     0.016 A 
HETATM   12  C   UNL     1       7.912  21.358  55.766  1.00  0.00     0.034 A 
HETATM   13  C   UNL     1       8.409  20.133  55.340  1.00  0.00     0.117 A 
HETATM   14  N   UNL     1       8.753  19.864  54.064  1.00  0.00    -0.270 NA
HETATM   15  C   UNL     1       8.591  20.872  53.177  1.00  0.00     0.159 A 
HETATM   16  C   UNL     1       8.103  22.125  53.513  1.00  0.00     0.144 A 
HETATM   17  F   UNL     1       7.991  23.056  52.554  1.00  0.00    -0.204 F 
ENDBRANCH   8  11
ENDBRANCH   2   5
BRANCH   1  18
HETATM   18  C   UNL     1       6.116  29.728  57.500  1.00  0.00     0.114 C 
HETATM   19  C   UNL     1       5.435  30.573  56.421  1.00  0.00     0.037 C 
BRANCH  18  20
HETATM   20  C   UNL     1       7.314  30.446  58.100  1.00  0.00    -0.033 A 
HETATM   21  C   UNL     1       7.133  31.318  59.183  1.00  0.00     0.009 A 
HETATM   22  C   UNL     1       8.222  31.970  59.757  1.00  0.00     0.003 A 
HETATM   23  C   UNL     1       9.506  31.748  59.261  1.00  0.00     0.037 A 
HETATM   24  C   UNL     1       9.714  30.873  58.193  1.00  0.00     0.068 A 
HETATM   25  C   UNL     1       8.618  30.236  57.609  1.00  0.00     0.046 A 
BRANCH  24  26
HETATM   26  O   UNL     1      11.021  30.732  57.816  1.00  0.00    -0.356 OA
HETATM   27  C   UNL     1      11.349  29.576  57.055  1.00  0.00     0.210 C 
ENDBRANCH  24  26
ENDBRANCH  18  20
ENDBRANCH   1  18
TORSDOF 5
ENDMDL
MODEL 4
REMARK VINA RESULT:      -9.0      6.389      9.206
REMARK  5 active torsions:
REMARK  status: ('A' for Active; 'I' for Inactive)
REMARK    1  A    between atoms: O_2  and  C_3 
REMARK    2  A    between atoms: C_7  and  C_9 
REMARK    3  A    between atoms: C_9  and  N_11 
REMARK       I    between atoms: N_11  and  C_12 
REMARK    4  A    between atoms: C_12  and  C_14 
REMARK    5  A    between atoms: C_17  and  C_20 
ROOT
HETATM    1  N   UNL     1       6.676  26.787  54.771  1.00  0.00    -0.349 N 
HETATM    2  C   UNL     1       7.458  27.916  54.673  1.00  0.00     0.252 C 
HETATM    3  O   UNL     1       8.046  28.265  53.658  1.00  0.00    -0.268 OA
HETATM    4  H   UNL     1       6.406  26.465  55.691  1.00  0.00     0.163 HD
ENDROOT
BRANCH   2   5
HETATM    5  C   UNL     1       7.597  28.693  55.930  1.00  0.00     0.032 A 
HETATM    6  C   UNL     1       8.876  28.939  56.433  1.00  0.00     0.018 A 
HETATM    7  C   UNL     1       9.030  29.634  57.637  1.00  0.00     0.013 A 
HETATM    8  C   UNL     1       7.917  30.116  58.353  1.00  0.00    -0.023 A 
HETATM    9  C   UNL     1       6.641  29.884  57.807  1.00  0.00     0.013 A 
HETATM   10  C   UNL     1       6.478  29.178  56.610  1.00  0.00     0.018 A 
BRANCH   8  11
HETATM   11  C   UNL     1       8.083  30.839  59.629  1.00  0.00     0.016 A 
HETATM   12  C   UNL     1       8.970  30.381  60.615  1.00  0.00     0.034 A 
HETATM   13  C   UNL     1       9.096  31.085  61.807  1.00  0.00     0.117 A 
HETATM   14  N   UNL     1       8.409  32.211  62.090  1.00  0.00    -0.270 NA
HETATM   15  C   UNL     1       7.557  32.647  61.135  1.00  0.00     0.159 A 
HETATM   16  C   UNL     1       7.368  32.008  59.919  1.00  0.00     0.144 A 
HETATM   17  F   UNL     1       6.490  32.522  59.046  1.00  0.00    -0.204 F 
ENDBRANCH   8  11
ENDBRANCH   2   5
BRANCH   1  18
HETATM   18  C   UNL     1       6.497  25.874  53.654  1.00  0.00     0.114 C 
HETATM   19  C   UNL     1       5.015  25.680  53.325  1.00  0.00     0.037 C 
BRANCH  18  20
HETATM   20  C   UNL     1       7.181  24.550  53.956  1.00  0.00    -0.033 A 
HETATM   21  C   UNL     1       7.604  23.728  52.901  1.00  0.00     0.009 A 
HETATM   22  C   UNL     1       8.249  22.521  53.161  1.00  0.00     0.003 A 
HETATM   23  C   UNL     1       8.487  22.128  54.477  1.00  0.00     0.037 A 
HETATM   24  C   UNL     1       8.088  22.935  55.543  1.00  0.00     0.068 A 
HETATM   25  C   UNL     1       7.426  24.136  55.280  1.00  0.00     0.046 A 
BRANCH  24  26
HETATM   26  O   UNL     1       8.397  22.442  56.781  1.00  0.00    -0.356 OA
HETATM   27  C   UNL     1       8.422  21.027  56.920  1.00  0.00     0.210 C 
ENDBRANCH  24  26
ENDBRANCH  18  20
ENDBRANCH   1  18
TORSDOF 5
ENDMDL
MODEL 5
REMARK VINA RESULT:      -9.0      1.487      2.151
REMARK  5 active torsions:
REMARK  status: ('A' for Active; 'I' for Inactive)
REMARK    1  A    between atoms: O_2  and  C_3 
REMARK    2  A    between atoms: C_7  and  C_9 
REMARK    3  A    between atoms: C_9  and  N_11 
REMARK       I    between atoms: N_11  and  C_12 
REMARK    4  A    between atoms: C_12  and  C_14 
REMARK    5  A    between atoms: C_17  and  C_20 
ROOT
HETATM    1  N   UNL     1       4.461  27.642  51.404  1.00  0.00    -0.349 N 
HETATM    2  C   UNL     1       5.647  27.650  52.103  1.00  0.00     0.252 C 
HETATM    3  O   UNL     1       6.311  28.653  52.329  1.00  0.00    -0.268 OA
HETATM    4  H   UNL     1       4.096  26.755  51.084  1.00  0.00     0.163 HD
ENDROOT
BRANCH   2   5
HETATM    5  C   UNL     1       6.124  26.315  52.544  1.00  0.00     0.032 A 
HETATM    6  C   UNL     1       7.440  26.185  52.993  1.00  0.00     0.018 A 
HETATM    7  C   UNL     1       7.924  24.929  53.376  1.00  0.00     0.013 A 
HETATM    8  C   UNL     1       7.105  23.785  53.339  1.00  0.00    -0.023 A 
HETATM    9  C   UNL     1       5.774  23.950  52.913  1.00  0.00     0.013 A 
HETATM   10  C   UNL     1       5.285  25.199  52.517  1.00  0.00     0.018 A 
BRANCH   8  11
HETATM   11  C   UNL     1       7.623  22.459  53.732  1.00  0.00     0.016 A 
HETATM   12  C   UNL     1       8.021  21.519  52.769  1.00  0.00     0.034 A 
HETATM   13  C   UNL     1       8.498  20.279  53.176  1.00  0.00     0.117 A 
HETATM   14  N   UNL     1       8.612  19.905  54.467  1.00  0.00    -0.270 NA
HETATM   15  C   UNL     1       8.228  20.817  55.389  1.00  0.00     0.159 A 
HETATM   16  C   UNL     1       7.740  22.075  55.074  1.00  0.00     0.144 A 
HETATM   17  F   UNL     1       7.378  22.899  56.068  1.00  0.00    -0.204 F 
ENDBRANCH   8  11
ENDBRANCH   2   5
BRANCH   1  18
HETATM   18  C   UNL     1       3.892  28.854  50.836  1.00  0.00     0.114 C 
HETATM   19  C   UNL     1       2.962  29.551  51.831  1.00  0.00     0.037 C 
BRANCH  18  20
HETATM   20  C   UNL     1       3.178  28.526  49.535  1.00  0.00    -0.033 A 
HETATM   21  C   UNL     1       2.202  29.401  49.037  1.00  0.00     0.009 A 
HETATM   22  C   UNL     1       1.550  29.126  47.837  1.00  0.00     0.003 A 
HETATM   23  C   UNL     1       1.876  27.978  47.116  1.00  0.00     0.037 A 
HETATM   24  C   UNL     1       2.854  27.099  47.583  1.00  0.00     0.068 A 
HETATM   25  C   UNL     1       3.492  27.368  48.796  1.00  0.00     0.046 A 
BRANCH  24  26
HETATM   26  O   UNL     1       3.089  26.022  46.773  1.00  0.00    -0.356 OA
HETATM   27  C   UNL     1       3.035  24.737  47.382  1.00  0.00     0.210 C 
ENDBRANCH  24  26
ENDBRANCH  18  20
ENDBRANCH   1  18
TORSDOF 5
ENDMDL
MODEL 6
REMARK VINA RESULT:      -9.0      9.417     11.873
REMARK  5 active torsions:
REMARK  status: ('A' for Active; 'I' for Inactive)
REMARK    1  A    between atoms: O_2  and  C_3 
REMARK    2  A    between atoms: C_7  and  C_9 
REMARK    3  A    between atoms: C_9  and  N_11 
REMARK       I    between atoms: N_11  and  C_12 
REMARK    4  A    between atoms: C_12  and  C_14 
REMARK    5  A    between atoms: C_17  and  C_20 
ROOT
HETATM    1  N   UNL     1       8.183  29.181  58.318  1.00  0.00    -0.349 N 
HETATM    2  C   UNL     1       8.960  30.167  58.883  1.00  0.00     0.252 C 
HETATM    3  O   UNL     1      10.062  30.502  58.470  1.00  0.00    -0.268 OA
HETATM    4  H   UNL     1       7.394  28.828  58.844  1.00  0.00     0.163 HD
ENDROOT
BRANCH   2   5
HETATM    5  C   UNL     1       8.389  30.795  60.101  1.00  0.00     0.032 A 
HETATM    6  C   UNL     1       7.284  31.637  59.970  1.00  0.00     0.018 A 
HETATM    7  C   UNL     1       6.754  32.273  61.098  1.00  0.00     0.013 A 
HETATM    8  C   UNL     1       7.300  32.067  62.380  1.00  0.00    -0.023 A 
HETATM    9  C   UNL     1       8.393  31.187  62.489  1.00  0.00     0.013 A 
HETATM   10  C   UNL     1       8.937  30.557  61.364  1.00  0.00     0.018 A 
BRANCH   8  11
HETATM   11  C   UNL     1       6.746  32.747  63.567  1.00  0.00     0.016 A 
HETATM   12  C   UNL     1       7.586  33.309  64.542  1.00  0.00     0.034 A 
HETATM   13  C   UNL     1       7.029  33.938  65.648  1.00  0.00     0.117 A 
HETATM   14  N   UNL     1       5.701  34.052  65.858  1.00  0.00    -0.270 NA
HETATM   15  C   UNL     1       4.899  33.510  64.914  1.00  0.00     0.159 A 
HETATM   16  C   UNL     1       5.367  32.865  63.781  1.00  0.00     0.144 A 
HETATM   17  F   UNL     1       4.482  32.354  62.912  1.00  0.00    -0.204 F 
ENDBRANCH   8  11
ENDBRANCH   2   5
BRANCH   1  18
HETATM   18  C   UNL     1       8.627  28.414  57.166  1.00  0.00     0.114 C 
HETATM   19  C   UNL     1       8.550  29.244  55.882  1.00  0.00     0.037 C 
BRANCH  18  20
HETATM   20  C   UNL     1       7.816  27.134  57.055  1.00  0.00    -0.033 A 
HETATM   21  C   UNL     1       6.430  27.203  56.850  1.00  0.00     0.009 A 
HETATM   22  C   UNL     1       5.674  26.039  56.727  1.00  0.00     0.003 A 
HETATM   23  C   UNL     1       6.297  24.794  56.797  1.00  0.00     0.037 A 
HETATM   24  C   UNL     1       7.677  24.699  56.986  1.00  0.00     0.068 A 
HETATM   25  C   UNL     1       8.429  25.867  57.127  1.00  0.00     0.046 A 
BRANCH  24  26
HETATM   26  O   UNL     1       8.163  23.421  57.018  1.00  0.00    -0.356 OA
HETATM   27  C   UNL     1       8.878  22.977  55.871  1.00  0.00     0.210 C 
ENDBRANCH  24  26
ENDBRANCH  18  20
ENDBRANCH   1  18
TORSDOF 5
ENDMDL
MODEL 7
REMARK VINA RESULT:      -8.8      7.731     10.701
REMARK  5 active torsions:
REMARK  status: ('A' for Active; 'I' for Inactive)
REMARK    1  A    between atoms: O_2  and  C_3 
REMARK    2  A    between atoms: C_7  and  C_9 
REMARK    3  A    between atoms: C_9  and  N_11 
REMARK       I    between atoms: N_11  and  C_12 
REMARK    4  A    between atoms: C_12  and  C_14 
REMARK    5  A    between atoms: C_17  and  C_20 
ROOT
HETATM    1  N   UNL     1       8.117  30.121  59.679  1.00  0.00    -0.349 N 
HETATM    2  C   UNL     1       8.785  30.109  58.475  1.00  0.00     0.252 C 
HETATM    3  O   UNL     1       9.716  30.852  58.192  1.00  0.00    -0.268 OA
HETATM    4  H   UNL     1       7.237  29.628  59.747  1.00  0.00     0.163 HD
ENDROOT
BRANCH   2   5
HETATM    5  C   UNL     1       8.263  29.142  57.477  1.00  0.00     0.032 A 
HETATM    6  C   UNL     1       7.519  28.049  57.924  1.00  0.00     0.018 A 
HETATM    7  C   UNL     1       7.051  27.101  57.007  1.00  0.00     0.013 A 
HETATM    8  C   UNL     1       7.297  27.234  55.627  1.00  0.00    -0.023 A 
HETATM    9  C   UNL     1       8.021  28.362  55.200  1.00  0.00     0.013 A 
HETATM   10  C   UNL     1       8.503  29.308  56.112  1.00  0.00     0.018 A 
BRANCH   8  11
HETATM   11  C   UNL     1       6.812  26.227  54.662  1.00  0.00     0.016 A 
HETATM   12  C   UNL     1       5.751  26.510  53.788  1.00  0.00     0.034 A 
HETATM   13  C   UNL     1       5.318  25.536  52.897  1.00  0.00     0.117 A 
HETATM   14  N   UNL     1       5.861  24.304  52.807  1.00  0.00    -0.270 NA
HETATM   15  C   UNL     1       6.884  24.040  53.652  1.00  0.00     0.159 A 
HETATM   16  C   UNL     1       7.380  24.950  54.572  1.00  0.00     0.144 A 
HETATM   17  F   UNL     1       8.393  24.580  55.370  1.00  0.00    -0.204 F 
ENDBRANCH   8  11
ENDBRANCH   2   5
BRANCH   1  18
HETATM   18  C   UNL     1       8.452  31.060  60.737  1.00  0.00     0.114 C 
HETATM   19  C   UNL     1       9.153  30.357  61.903  1.00  0.00     0.037 C 
BRANCH  18  20
HETATM   20  C   UNL     1       7.199  31.789  61.195  1.00  0.00    -0.033 A 
HETATM   21  C   UNL     1       6.460  32.547  60.276  1.00  0.00     0.009 A 
HETATM   22  C   UNL     1       5.299  33.207  60.675  1.00  0.00     0.003 A 
HETATM   23  C   UNL     1       4.859  33.105  61.994  1.00  0.00     0.037 A 
HETATM   24  C   UNL     1       5.570  32.344  62.923  1.00  0.00     0.068 A 
HETATM   25  C   UNL     1       6.743  31.700  62.525  1.00  0.00     0.046 A 
BRANCH  24  26
HETATM   26  O   UNL     1       5.021  32.314  64.176  1.00  0.00    -0.356 OA
HETATM   27  C   UNL     1       5.064  33.522  64.925  1.00  0.00     0.210 C 
ENDBRANCH  24  26
ENDBRANCH  18  20
ENDBRANCH   1  18
TORSDOF 5
ENDMDL
MODEL 8
REMARK VINA RESULT:      -8.6      5.535      8.949
REMARK  5 active torsions:
REMARK  status: ('A' for Active; 'I' for Inactive)
REMARK    1  A    between atoms: O_2  and  C_3 
REMARK    2  A    between atoms: C_7  and  C_9 
REMARK    3  A    between atoms: C_9  and  N_11 
REMARK       I    between atoms: N_11  and  C_12 
REMARK    4  A    between atoms: C_12  and  C_14 
REMARK    5  A    between atoms: C_17  and  C_20 
ROOT
HETATM    1  N   UNL     1       7.634  25.471  53.872  1.00  0.00    -0.349 N 
HETATM    2  C   UNL     1       6.704  25.809  54.828  1.00  0.00     0.252 C 
HETATM    3  O   UNL     1       5.613  25.270  54.955  1.00  0.00    -0.268 OA
HETATM    4  H   UNL     1       8.407  26.101  53.706  1.00  0.00     0.163 HD
ENDROOT
BRANCH   2   5
HETATM    5  C   UNL     1       7.090  26.944  55.705  1.00  0.00     0.032 A 
HETATM    6  C   UNL     1       6.931  28.247  55.229  1.00  0.00     0.018 A 
HETATM    7  C   UNL     1       7.325  29.331  56.021  1.00  0.00     0.013 A 
HETATM    8  C   UNL     1       7.866  29.141  57.307  1.00  0.00    -0.023 A 
HETATM    9  C   UNL     1       7.984  27.819  57.776  1.00  0.00     0.013 A 
HETATM   10  C   UNL     1       7.604  26.729  56.985  1.00  0.00     0.018 A 
BRANCH   8  11
HETATM   11  C   UNL     1       8.291  30.286  58.136  1.00  0.00     0.016 A 
HETATM   12  C   UNL     1       7.358  31.052  58.852  1.00  0.00     0.034 A 
HETATM   13  C   UNL     1       7.795  32.126  59.618  1.00  0.00     0.117 A 
HETATM   14  N   UNL     1       9.088  32.494  59.727  1.00  0.00    -0.270 NA
HETATM   15  C   UNL     1       9.981  31.750  59.036  1.00  0.00     0.159 A 
HETATM   16  C   UNL     1       9.635  30.664  58.247  1.00  0.00     0.144 A 
HETATM   17  F   UNL     1      10.601  30.001  57.595  1.00  0.00    -0.204 F 
ENDBRANCH   8  11
ENDBRANCH   2   5
BRANCH   1  18
HETATM   18  C   UNL     1       7.383  24.432  52.885  1.00  0.00     0.114 C 
HETATM   19  C   UNL     1       5.925  24.448  52.420  1.00  0.00     0.037 C 
BRANCH  18  20
HETATM   20  C   UNL     1       7.775  23.078  53.451  1.00  0.00    -0.033 A 
HETATM   21  C   UNL     1       7.688  21.934  52.645  1.00  0.00     0.009 A 
HETATM   22  C   UNL     1       8.062  20.687  53.142  1.00  0.00     0.003 A 
HETATM   23  C   UNL     1       8.537  20.573  54.448  1.00  0.00     0.037 A 
HETATM   24  C   UNL     1       8.646  21.698  55.265  1.00  0.00     0.068 A 
HETATM   25  C   UNL     1       8.254  22.944  54.770  1.00  0.00     0.046 A 
BRANCH  24  26
HETATM   26  O   UNL     1       9.141  21.451  56.516  1.00  0.00    -0.356 OA
HETATM   27  C   UNL     1       8.191  21.221  57.549  1.00  0.00     0.210 C 
ENDBRANCH  24  26
ENDBRANCH  18  20
ENDBRANCH   1  18
TORSDOF 5
ENDMDL
MODEL 9
REMARK VINA RESULT:      -8.6      3.279      8.906
REMARK  5 active torsions:
REMARK  status: ('A' for Active; 'I' for Inactive)
REMARK    1  A    between atoms: O_2  and  C_3 
REMARK    2  A    between atoms: C_7  and  C_9 
REMARK    3  A    between atoms: C_9  and  N_11 
REMARK       I    between atoms: N_11  and  C_12 
REMARK    4  A    between atoms: C_12  and  C_14 
REMARK    5  A    between atoms: C_17  and  C_20 
ROOT
HETATM    1  N   UNL     1       7.176  24.955  55.245  1.00  0.00    -0.349 N 
HETATM    2  C   UNL     1       5.940  25.533  55.066  1.00  0.00     0.252 C 
HETATM    3  O   UNL     1       5.066  25.579  55.921  1.00  0.00    -0.268 OA
HETATM    4  H   UNL     1       7.747  24.775  54.430  1.00  0.00     0.163 HD
ENDROOT
BRANCH   2   5
HETATM    5  C   UNL     1       5.694  26.079  53.707  1.00  0.00     0.032 A 
HETATM    6  C   UNL     1       4.843  27.176  53.566  1.00  0.00     0.018 A 
HETATM    7  C   UNL     1       4.564  27.683  52.292  1.00  0.00     0.013 A 
HETATM    8  C   UNL     1       5.140  27.120  51.137  1.00  0.00    -0.023 A 
HETATM    9  C   UNL     1       6.020  26.035  51.310  1.00  0.00     0.013 A 
HETATM   10  C   UNL     1       6.295  25.515  52.579  1.00  0.00     0.018 A 
BRANCH   8  11
HETATM   11  C   UNL     1       4.835  27.649  49.793  1.00  0.00     0.016 A 
HETATM   12  C   UNL     1       5.197  28.955  49.426  1.00  0.00     0.034 A 
HETATM   13  C   UNL     1       4.889  29.420  48.154  1.00  0.00     0.117 A 
HETATM   14  N   UNL     1       4.250  28.686  47.219  1.00  0.00    -0.270 NA
HETATM   15  C   UNL     1       3.907  27.429  47.579  1.00  0.00     0.159 A 
HETATM   16  C   UNL     1       4.173  26.883  48.825  1.00  0.00     0.144 A 
HETATM   17  F   UNL     1       3.778  25.627  49.081  1.00  0.00    -0.204 F 
ENDBRANCH   8  11
ENDBRANCH   2   5
BRANCH   1  18
HETATM   18  C   UNL     1       7.550  24.307  56.492  1.00  0.00     0.114 C 
HETATM   19  C   UNL     1       8.720  25.029  57.165  1.00  0.00     0.037 C 
BRANCH  18  20
HETATM   20  C   UNL     1       7.869  22.843  56.236  1.00  0.00    -0.033 A 
HETATM   21  C   UNL     1       8.401  22.056  57.268  1.00  0.00     0.009 A 
HETATM   22  C   UNL     1       8.682  20.707  57.056  1.00  0.00     0.003 A 
HETATM   23  C   UNL     1       8.423  20.130  55.813  1.00  0.00     0.037 A 
HETATM   24  C   UNL     1       7.881  20.889  54.775  1.00  0.00     0.068 A 
HETATM   25  C   UNL     1       7.618  22.245  54.986  1.00  0.00     0.046 A 
BRANCH  24  26
HETATM   26  O   UNL     1       7.661  20.198  53.616  1.00  0.00    -0.356 OA
HETATM   27  C   UNL     1       8.657  20.305  52.606  1.00  0.00     0.210 C 
ENDBRANCH  24  26
ENDBRANCH  18  20
ENDBRANCH   1  18
TORSDOF 5
ENDMDL
MODEL 10
REMARK VINA RESULT:      -8.3      2.315      2.850
REMARK  5 active torsions:
REMARK  status: ('A' for Active; 'I' for Inactive)
REMARK    1  A    between atoms: O_2  and  C_3 
REMARK    2  A    between atoms: C_7  and  C_9 
REMARK    3  A    between atoms: C_9  and  N_11 
REMARK       I    between atoms: N_11  and  C_12 
REMARK    4  A    between atoms: C_12  and  C_14 
REMARK    5  A    between atoms: C_17  and  C_20 
ROOT
HETATM    1  N   UNL     1       5.085  27.615  51.828  1.00  0.00    -0.349 N 
HETATM    2  C   UNL     1       5.994  27.519  52.856  1.00  0.00     0.252 C 
HETATM    3  O   UNL     1       6.399  28.470  53.512  1.00  0.00    -0.268 OA
HETATM    4  H   UNL     1       4.971  26.822  51.209  1.00  0.00     0.163 HD
ENDROOT
BRANCH   2   5
HETATM    5  C   UNL     1       6.518  26.153  53.106  1.00  0.00     0.032 A 
HETATM    6  C   UNL     1       6.026  25.433  54.196  1.00  0.00     0.018 A 
HETATM    7  C   UNL     1       6.534  24.159  54.477  1.00  0.00     0.013 A 
HETATM    8  C   UNL     1       7.524  23.571  53.667  1.00  0.00    -0.023 A 
HETATM    9  C   UNL     1       7.978  24.304  52.555  1.00  0.00     0.013 A 
HETATM   10  C   UNL     1       7.485  25.584  52.275  1.00  0.00     0.018 A 
BRANCH   8  11
HETATM   11  C   UNL     1       8.066  22.232  53.972  1.00  0.00     0.016 A 
HETATM   12  C   UNL     1       8.070  21.212  53.006  1.00  0.00     0.034 A 
HETATM   13  C   UNL     1       8.584  19.962  53.330  1.00  0.00     0.117 A 
HETATM   14  N   UNL     1       9.095  19.650  54.539  1.00  0.00    -0.270 NA
HETATM   15  C   UNL     1       9.088  20.638  55.463  1.00  0.00     0.159 A 
HETATM   16  C   UNL     1       8.596  21.912  55.228  1.00  0.00     0.144 A 
HETATM   17  F   UNL     1       8.629  22.814  56.219  1.00  0.00    -0.204 F 
ENDBRANCH   8  11
ENDBRANCH   2   5
BRANCH   1  18
HETATM   18  C   UNL     1       4.531  28.890  51.402  1.00  0.00     0.114 C 
HETATM   19  C   UNL     1       3.089  29.060  51.885  1.00  0.00     0.037 C 
BRANCH  18  20
HETATM   20  C   UNL     1       4.635  29.019  49.892  1.00  0.00    -0.033 A 
HETATM   21  C   UNL     1       4.713  27.866  49.098  1.00  0.00     0.009 A 
HETATM   22  C   UNL     1       4.790  27.966  47.710  1.00  0.00     0.003 A 
HETATM   23  C   UNL     1       4.778  29.221  47.101  1.00  0.00     0.037 A 
HETATM   24  C   UNL     1       4.687  30.383  47.869  1.00  0.00     0.068 A 
HETATM   25  C   UNL     1       4.629  30.279  49.260  1.00  0.00     0.046 A 
BRANCH  24  26
HETATM   26  O   UNL     1       4.668  31.544  47.148  1.00  0.00    -0.356 OA
HETATM   27  C   UNL     1       3.580  31.724  46.249  1.00  0.00     0.210 C 
ENDBRANCH  24  26
ENDBRANCH  18  20
ENDBRANCH   1  18
TORSDOF 5
ENDMDL
