MODEL 1
REMARK VINA RESULT:      -9.3      0.000      0.000
REMARK  6 active torsions:
REMARK  status: ('A' for Active; 'I' for Inactive)
REMARK    1  A    between atoms: C_2  and  O_3 
REMARK    2  A    between atoms: C_2  and  C_4 
REMARK    3  A    between atoms: C_2  and  C_11 
REMARK    4  A    between atoms: C_11  and  N_12 
REMARK       I    between atoms: N_12  and  C_13 
REMARK    5  A    between atoms: C_13  and  C_14 
REMARK    6  A    between atoms: C_15  and  C_16 
ROOT
HETATM    1  N   UNL     1       7.867  28.035  56.274  1.00  0.00    -0.354 N 
HETATM    2  C   UNL     1       8.239  28.499  57.517  1.00  0.00     0.255 C 
HETATM    3  O   UNL     1       7.723  28.095  58.553  1.00  0.00    -0.268 OA
HETATM    4  H   UNL     1       8.477  28.221  55.489  1.00  0.00     0.162 HD
ENDROOT
BRANCH   2   5
HETATM    5  C   UNL     1       9.294  29.501  57.495  1.00  0.00     0.080 A 
HETATM    6  C   UNL     1       9.488  30.617  58.370  1.00  0.00     0.107 A 
HETATM    7  N   UNL     1      10.533  31.367  57.974  1.00  0.00    -0.173 NA
HETATM    8  N   UNL     1      11.018  30.729  56.904  1.00  0.00    -0.288 N 
HETATM    9  H   UNL     1      11.829  31.126  56.440  1.00  0.00     0.188 HD
HETATM   10  C   UNL     1      10.322  29.610  56.573  1.00  0.00     0.128 A 
BRANCH   6  11
HETATM   11  C   UNL     1       8.731  30.996  59.558  1.00  0.00     0.034 A 
HETATM   12  C   UNL     1       7.491  31.634  59.455  1.00  0.00     0.129 A 
HETATM   13  F   UNL     1       6.952  31.895  58.253  1.00  0.00    -0.205 F 
HETATM   14  C   UNL     1       6.766  31.986  60.592  1.00  0.00     0.043 A 
HETATM   15  C   UNL     1       7.272  31.690  61.857  1.00  0.00     0.003 A 
HETATM   16  C   UNL     1       8.499  31.038  61.979  1.00  0.00     0.001 A 
HETATM   17  C   UNL     1       9.224  30.689  60.835  1.00  0.00     0.017 A 
ENDBRANCH   6  11
ENDBRANCH   2   5
BRANCH   1  18
HETATM   18  C   UNL     1       6.921  26.941  56.103  1.00  0.00     0.165 C 
BRANCH  18  19
HETATM   19  C   UNL     1       6.462  26.754  54.630  1.00  0.00     0.097 C 
HETATM   20  C   UNL     1       6.957  27.888  53.718  1.00  0.00     0.053 C 
BRANCH  19  21
HETATM   21  O   UNL     1       5.020  26.813  54.626  1.00  0.00    -0.384 OA
HETATM   22  H   UNL     1       4.734  26.494  53.752  1.00  0.00     0.211 HD
ENDBRANCH  19  21
BRANCH  19  23
HETATM   23  C   UNL     1       6.925  25.387  54.119  1.00  0.00    -0.023 A 
HETATM   24  C   UNL     1       7.348  25.226  52.784  1.00  0.00     0.013 A 
HETATM   25  C   UNL     1       7.777  23.984  52.310  1.00  0.00     0.043 A 
HETATM   26  C   UNL     1       7.792  22.891  53.165  1.00  0.00     0.116 A 
HETATM   27  F   UNL     1       8.201  21.700  52.710  1.00  0.00    -0.206 F 
HETATM   28  C   UNL     1       7.394  23.019  54.488  1.00  0.00     0.043 A 
HETATM   29  C   UNL     1       6.969  24.261  54.965  1.00  0.00     0.013 A 
ENDBRANCH  19  23
ENDBRANCH  18  19
ENDBRANCH   1  18
TORSDOF 6
ENDMDL
MODEL 2
REMARK VINA RESULT:      -9.2      2.514      3.745
REMARK  6 active torsions:
REMARK  status: ('A' for Active; 'I' for Inactive)
REMARK    1  A    between atoms: C_2  and  O_3 
REMARK    2  A    between atoms: C_2  and  C_4 
REMARK    3  A    between atoms: C_2  and  C_11 
REMARK    4  A    between atoms: C_11  and  N_12 
REMARK       I    between atoms: N_12  and  C_13 
REMARK    5  A    between atoms: C_13  and  C_14 
REMARK    6  A    between atoms: C_15  and  C_16 
ROOT
HETATM    1  N   UNL     1       7.145  26.439  54.983  1.00  0.00    -0.354 N 
HETATM    2  C   UNL     1       7.123  26.567  56.355  1.00  0.00     0.255 C 
HETATM    3  O   UNL     1       7.707  25.788  57.100  1.00  0.00    -0.268 OA
HETATM    4  H   UNL     1       6.854  27.228  54.422  1.00  0.00     0.162 HD
ENDROOT
BRANCH   2   5
HETATM    5  C   UNL     1       6.355  27.703  56.842  1.00  0.00     0.080 A 
HETATM    6  C   UNL     1       6.829  28.972  57.306  1.00  0.00     0.107 A 
HETATM    7  N   UNL     1       5.814  29.732  57.757  1.00  0.00    -0.173 NA
HETATM    8  N   UNL     1       4.721  28.990  57.551  1.00  0.00    -0.288 N 
HETATM    9  H   UNL     1       3.823  29.380  57.819  1.00  0.00     0.188 HD
HETATM   10  C   UNL     1       4.982  27.772  57.007  1.00  0.00     0.128 A 
BRANCH   6  11
HETATM   11  C   UNL     1       8.192  29.489  57.335  1.00  0.00     0.034 A 
HETATM   12  C   UNL     1       8.722  30.074  58.489  1.00  0.00     0.129 A 
HETATM   13  F   UNL     1       7.993  30.153  59.614  1.00  0.00    -0.205 F 
HETATM   14  C   UNL     1      10.028  30.558  58.516  1.00  0.00     0.043 A 
HETATM   15  C   UNL     1      10.832  30.452  57.382  1.00  0.00     0.003 A 
HETATM   16  C   UNL     1      10.326  29.857  56.227  1.00  0.00     0.001 A 
HETATM   17  C   UNL     1       9.014  29.374  56.203  1.00  0.00     0.017 A 
ENDBRANCH   6  11
ENDBRANCH   2   5
BRANCH   1  18
HETATM   18  C   UNL     1       7.965  25.443  54.308  1.00  0.00     0.165 C 
BRANCH  18  19
HETATM   19  C   UNL     1       7.131  24.403  53.510  1.00  0.00     0.097 C 
HETATM   20  C   UNL     1       7.304  24.561  51.991  1.00  0.00     0.053 C 
BRANCH  19  21
HETATM   21  O   UNL     1       5.741  24.661  53.801  1.00  0.00    -0.384 OA
HETATM   22  H   UNL     1       5.243  23.893  53.471  1.00  0.00     0.211 HD
ENDBRANCH  19  21
BRANCH  19  23
HETATM   23  C   UNL     1       7.501  22.989  53.968  1.00  0.00    -0.023 A 
HETATM   24  C   UNL     1       7.896  22.013  53.032  1.00  0.00     0.013 A 
HETATM   25  C   UNL     1       8.239  20.722  53.441  1.00  0.00     0.043 A 
HETATM   26  C   UNL     1       8.198  20.394  54.789  1.00  0.00     0.116 A 
HETATM   27  F   UNL     1       8.525  19.156  55.180  1.00  0.00    -0.206 F 
HETATM   28  C   UNL     1       7.825  21.337  55.737  1.00  0.00     0.043 A 
HETATM   29  C   UNL     1       7.485  22.630  55.331  1.00  0.00     0.013 A 
ENDBRANCH  19  23
ENDBRANCH  18  19
ENDBRANCH   1  18
TORSDOF 6
ENDMDL
MODEL 3
REMARK VINA RESULT:      -9.2      2.887      8.127
REMARK  6 active torsions:
REMARK  status: ('A' for Active; 'I' for Inactive)
REMARK    1  A    between atoms: C_2  and  O_3 
REMARK    2  A    between atoms: C_2  and  C_4 
REMARK    3  A    between atoms: C_2  and  C_11 
REMARK    4  A    between atoms: C_11  and  N_12 
REMARK       I    between atoms: N_12  and  C_13 
REMARK    5  A    between atoms: C_13  and  C_14 
REMARK    6  A    between atoms: C_15  and  C_16 
ROOT
HETATM    1  N   UNL     1       7.444  25.013  57.273  1.00  0.00    -0.354 N 
HETATM    2  C   UNL     1       8.532  24.217  56.986  1.00  0.00     0.255 C 
HETATM    3  O   UNL     1       9.684  24.564  57.222  1.00  0.00    -0.268 OA
HETATM    4  H   UNL     1       6.526  24.589  57.280  1.00  0.00     0.162 HD
ENDROOT
BRANCH   2   5
HETATM    5  C   UNL     1       8.198  22.935  56.384  1.00  0.00     0.080 A 
HETATM    6  C   UNL     1       7.634  22.670  55.095  1.00  0.00     0.107 A 
HETATM    7  N   UNL     1       7.389  21.356  54.936  1.00  0.00    -0.173 NA
HETATM    8  N   UNL     1       7.820  20.792  56.068  1.00  0.00    -0.288 N 
HETATM    9  H   UNL     1       7.735  19.786  56.163  1.00  0.00     0.188 HD
HETATM   10  C   UNL     1       8.314  21.684  56.968  1.00  0.00     0.128 A 
BRANCH   6  11
HETATM   11  C   UNL     1       7.324  23.603  54.018  1.00  0.00     0.034 A 
HETATM   12  C   UNL     1       6.203  24.437  54.082  1.00  0.00     0.129 A 
HETATM   13  F   UNL     1       5.393  24.416  55.152  1.00  0.00    -0.205 F 
HETATM   14  C   UNL     1       5.916  25.335  53.055  1.00  0.00     0.043 A 
HETATM   15  C   UNL     1       6.759  25.417  51.948  1.00  0.00     0.003 A 
HETATM   16  C   UNL     1       7.891  24.606  51.877  1.00  0.00     0.001 A 
HETATM   17  C   UNL     1       8.175  23.705  52.908  1.00  0.00     0.017 A 
ENDBRANCH   6  11
ENDBRANCH   2   5
BRANCH   1  18
HETATM   18  C   UNL     1       7.571  26.272  57.994  1.00  0.00     0.165 C 
BRANCH  18  19
HETATM   19  C   UNL     1       7.255  27.514  57.115  1.00  0.00     0.097 C 
HETATM   20  C   UNL     1       5.769  27.901  57.168  1.00  0.00     0.053 C 
BRANCH  19  21
HETATM   21  O   UNL     1       7.544  27.150  55.749  1.00  0.00    -0.384 OA
HETATM   22  H   UNL     1       8.177  26.412  55.787  1.00  0.00     0.211 HD
ENDBRANCH  19  21
BRANCH  19  23
HETATM   23  C   UNL     1       8.150  28.682  57.539  1.00  0.00    -0.023 A 
HETATM   24  C   UNL     1       9.456  28.808  57.023  1.00  0.00     0.013 A 
HETATM   25  C   UNL     1      10.278  29.873  57.400  1.00  0.00     0.043 A 
HETATM   26  C   UNL     1       9.803  30.826  58.290  1.00  0.00     0.116 A 
HETATM   27  F   UNL     1      10.592  31.845  58.652  1.00  0.00    -0.206 F 
HETATM   28  C   UNL     1       8.518  30.737  58.805  1.00  0.00     0.043 A 
HETATM   29  C   UNL     1       7.692  29.675  58.427  1.00  0.00     0.013 A 
ENDBRANCH  19  23
ENDBRANCH  18  19
ENDBRANCH   1  18
TORSDOF 6
ENDMDL
MODEL 4
REMARK VINA RESULT:      -9.1      5.029      8.255
REMARK  6 active torsions:
REMARK  status: ('A' for Active; 'I' for Inactive)
REMARK    1  A    between atoms: C_2  and  O_3 
REMARK    2  A    between atoms: C_2  and  C_4 
REMARK    3  A    between atoms: C_2  and  C_11 
REMARK    4  A    between atoms: C_11  and  N_12 
REMARK       I    between atoms: N_12  and  C_13 
REMARK    5  A    between atoms: C_13  and  C_14 
REMARK    6  A    between atoms: C_15  and  C_16 
ROOT
HETATM    1  N   UNL     1       6.030  26.254  52.151  1.00  0.00    -0.354 N 
HETATM    2  C   UNL     1       5.685  25.493  53.247  1.00  0.00     0.255 C 
HETATM    3  O   UNL     1       4.697  24.768  53.261  1.00  0.00    -0.268 OA
HETATM    4  H   UNL     1       6.964  26.639  52.107  1.00  0.00     0.162 HD
ENDROOT
BRANCH   2   5
HETATM    5  C   UNL     1       6.592  25.621  54.378  1.00  0.00     0.080 A 
HETATM    6  C   UNL     1       7.412  24.617  54.986  1.00  0.00     0.107 A 
HETATM    7  N   UNL     1       8.047  25.103  56.069  1.00  0.00    -0.173 NA
HETATM    8  N   UNL     1       7.679  26.386  56.128  1.00  0.00    -0.288 N 
HETATM    9  H   UNL     1       8.052  26.955  56.881  1.00  0.00     0.188 HD
HETATM   10  C   UNL     1       6.813  26.752  55.146  1.00  0.00     0.128 A 
BRANCH   6  11
HETATM   11  C   UNL     1       7.619  23.231  54.584  1.00  0.00     0.034 A 
HETATM   12  C   UNL     1       8.026  22.905  53.287  1.00  0.00     0.129 A 
HETATM   13  F   UNL     1       8.263  23.867  52.381  1.00  0.00    -0.205 F 
HETATM   14  C   UNL     1       8.232  21.579  52.909  1.00  0.00     0.043 A 
HETATM   15  C   UNL     1       8.042  20.556  53.835  1.00  0.00     0.003 A 
HETATM   16  C   UNL     1       7.651  20.863  55.138  1.00  0.00     0.001 A 
HETATM   17  C   UNL     1       7.444  22.194  55.513  1.00  0.00     0.017 A 
ENDBRANCH   6  11
ENDBRANCH   2   5
BRANCH   1  18
HETATM   18  C   UNL     1       5.319  26.159  50.883  1.00  0.00     0.165 C 
BRANCH  18  19
HETATM   19  C   UNL     1       4.544  27.455  50.519  1.00  0.00     0.097 C 
HETATM   20  C   UNL     1       5.485  28.638  50.242  1.00  0.00     0.053 C 
BRANCH  19  21
HETATM   21  O   UNL     1       3.751  27.813  51.671  1.00  0.00    -0.384 OA
HETATM   22  H   UNL     1       4.312  28.383  52.226  1.00  0.00     0.211 HD
ENDBRANCH  19  21
BRANCH  19  23
HETATM   23  C   UNL     1       3.624  27.184  49.324  1.00  0.00    -0.023 A 
HETATM   24  C   UNL     1       2.552  28.051  49.034  1.00  0.00     0.013 A 
HETATM   25  C   UNL     1       1.712  27.814  47.943  1.00  0.00     0.043 A 
HETATM   26  C   UNL     1       1.936  26.713  47.129  1.00  0.00     0.116 A 
HETATM   27  F   UNL     1       1.129  26.485  46.086  1.00  0.00    -0.206 F 
HETATM   28  C   UNL     1       2.991  25.847  47.381  1.00  0.00     0.043 A 
HETATM   29  C   UNL     1       3.835  26.084  48.469  1.00  0.00     0.013 A 
ENDBRANCH  19  23
ENDBRANCH  18  19
ENDBRANCH   1  18
TORSDOF 6
ENDMDL
MODEL 5
REMARK VINA RESULT:      -9.0      4.925      7.806
REMARK  6 active torsions:
REMARK  status: ('A' for Active; 'I' for Inactive)
REMARK    1  A    between atoms: C_2  and  O_3 
REMARK    2  A    between atoms: C_2  and  C_4 
REMARK    3  A    between atoms: C_2  and  C_11 
REMARK    4  A    between atoms: C_11  and  N_12 
REMARK       I    between atoms: N_12  and  C_13 
REMARK    5  A    between atoms: C_13  and  C_14 
REMARK    6  A    between atoms: C_15  and  C_16 
ROOT
HETATM    1  N   UNL     1       6.657  26.336  54.396  1.00  0.00    -0.354 N 
HETATM    2  C   UNL     1       6.207  25.536  55.424  1.00  0.00     0.255 C 
HETATM    3  O   UNL     1       5.021  25.263  55.576  1.00  0.00    -0.268 OA
HETATM    4  H   UNL     1       7.646  26.332  54.181  1.00  0.00     0.162 HD
ENDROOT
BRANCH   2   5
HETATM    5  C   UNL     1       7.253  25.043  56.306  1.00  0.00     0.080 A 
HETATM    6  C   UNL     1       8.012  23.833  56.207  1.00  0.00     0.107 A 
HETATM    7  N   UNL     1       8.830  23.686  57.266  1.00  0.00    -0.173 NA
HETATM    8  N   UNL     1       8.632  24.787  57.999  1.00  0.00    -0.288 N 
HETATM    9  H   UNL     1       9.161  24.889  58.859  1.00  0.00     0.188 HD
HETATM   10  C   UNL     1       7.704  25.631  57.476  1.00  0.00     0.128 A 
BRANCH   6  11
HETATM   11  C   UNL     1       7.996  22.821  55.156  1.00  0.00     0.034 A 
HETATM   12  C   UNL     1       7.843  21.465  55.458  1.00  0.00     0.129 A 
HETATM   13  F   UNL     1       7.682  21.059  56.727  1.00  0.00    -0.205 F 
HETATM   14  C   UNL     1       7.818  20.502  54.450  1.00  0.00     0.043 A 
HETATM   15  C   UNL     1       7.936  20.890  53.116  1.00  0.00     0.003 A 
HETATM   16  C   UNL     1       8.073  22.240  52.796  1.00  0.00     0.001 A 
HETATM   17  C   UNL     1       8.099  23.203  53.810  1.00  0.00     0.017 A 
ENDBRANCH   6  11
ENDBRANCH   2   5
BRANCH   1  18
HETATM   18  C   UNL     1       5.777  26.815  53.340  1.00  0.00     0.165 C 
BRANCH  18  19
HETATM   19  C   UNL     1       5.849  25.955  52.047  1.00  0.00     0.097 C 
HETATM   20  C   UNL     1       5.079  24.632  52.185  1.00  0.00     0.053 C 
BRANCH  19  21
HETATM   21  O   UNL     1       7.236  25.613  51.843  1.00  0.00    -0.384 OA
HETATM   22  H   UNL     1       7.250  24.686  51.544  1.00  0.00     0.211 HD
ENDBRANCH  19  21
BRANCH  19  23
HETATM   23  C   UNL     1       5.338  26.775  50.858  1.00  0.00    -0.023 A 
HETATM   24  C   UNL     1       5.515  28.173  50.823  1.00  0.00     0.013 A 
HETATM   25  C   UNL     1       5.057  28.928  49.740  1.00  0.00     0.043 A 
HETATM   26  C   UNL     1       4.425  28.295  48.679  1.00  0.00     0.116 A 
HETATM   27  F   UNL     1       3.985  29.019  47.643  1.00  0.00    -0.206 F 
HETATM   28  C   UNL     1       4.247  26.918  48.678  1.00  0.00     0.043 A 
HETATM   29  C   UNL     1       4.707  26.161  49.758  1.00  0.00     0.013 A 
ENDBRANCH  19  23
ENDBRANCH  18  19
ENDBRANCH   1  18
TORSDOF 6
ENDMDL
MODEL 6
REMARK VINA RESULT:      -8.8      4.019      5.235
REMARK  6 active torsions:
REMARK  status: ('A' for Active; 'I' for Inactive)
REMARK    1  A    between atoms: C_2  and  O_3 
REMARK    2  A    between atoms: C_2  and  C_4 
REMARK    3  A    between atoms: C_2  and  C_11 
REMARK    4  A    between atoms: C_11  and  N_12 
REMARK       I    between atoms: N_12  and  C_13 
REMARK    5  A    between atoms: C_13  and  C_14 
REMARK    6  A    between atoms: C_15  and  C_16 
ROOT
HETATM    1  N   UNL     1       5.179  25.931  53.610  1.00  0.00    -0.354 N 
HETATM    2  C   UNL     1       5.096  27.007  52.752  1.00  0.00     0.255 C 
HETATM    3  O   UNL     1       5.489  26.958  51.592  1.00  0.00    -0.268 OA
HETATM    4  H   UNL     1       4.634  25.951  54.461  1.00  0.00     0.162 HD
ENDROOT
BRANCH   2   5
HETATM    5  C   UNL     1       4.501  28.199  53.338  1.00  0.00     0.080 A 
HETATM    6  C   UNL     1       4.846  28.865  54.558  1.00  0.00     0.107 A 
HETATM    7  N   UNL     1       4.005  29.887  54.805  1.00  0.00    -0.173 NA
HETATM    8  N   UNL     1       3.175  29.902  53.757  1.00  0.00    -0.288 N 
HETATM    9  H   UNL     1       2.450  30.610  53.733  1.00  0.00     0.188 HD
HETATM   10  C   UNL     1       3.424  28.919  52.850  1.00  0.00     0.128 A 
BRANCH   6  11
HETATM   11  C   UNL     1       5.931  28.576  55.488  1.00  0.00     0.034 A 
HETATM   12  C   UNL     1       5.743  27.723  56.579  1.00  0.00     0.129 A 
HETATM   13  F   UNL     1       4.559  27.125  56.786  1.00  0.00    -0.205 F 
HETATM   14  C   UNL     1       6.786  27.441  57.460  1.00  0.00     0.043 A 
HETATM   15  C   UNL     1       8.043  28.006  57.251  1.00  0.00     0.003 A 
HETATM   16  C   UNL     1       8.254  28.846  56.158  1.00  0.00     0.001 A 
HETATM   17  C   UNL     1       7.204  29.127  55.278  1.00  0.00     0.017 A 
ENDBRANCH   6  11
ENDBRANCH   2   5
BRANCH   1  18
HETATM   18  C   UNL     1       5.624  24.617  53.167  1.00  0.00     0.165 C 
BRANCH  18  19
HETATM   19  C   UNL     1       7.167  24.442  53.225  1.00  0.00     0.097 C 
HETATM   20  C   UNL     1       7.847  25.550  54.045  1.00  0.00     0.053 C 
BRANCH  19  21
HETATM   21  O   UNL     1       7.658  24.560  51.874  1.00  0.00    -0.384 OA
HETATM   22  H   UNL     1       8.621  24.424  51.917  1.00  0.00     0.211 HD
ENDBRANCH  19  21
BRANCH  19  23
HETATM   23  C   UNL     1       7.505  23.054  53.778  1.00  0.00    -0.023 A 
HETATM   24  C   UNL     1       7.879  22.009  52.910  1.00  0.00     0.013 A 
HETATM   25  C   UNL     1       8.194  20.741  53.405  1.00  0.00     0.043 A 
HETATM   26  C   UNL     1       8.144  20.506  54.772  1.00  0.00     0.116 A 
HETATM   27  F   UNL     1       8.444  19.290  55.246  1.00  0.00    -0.206 F 
HETATM   28  C   UNL     1       7.792  21.517  55.654  1.00  0.00     0.043 A 
HETATM   29  C   UNL     1       7.480  22.787  55.161  1.00  0.00     0.013 A 
ENDBRANCH  19  23
ENDBRANCH  18  19
ENDBRANCH   1  18
TORSDOF 6
ENDMDL
MODEL 7
REMARK VINA RESULT:      -8.7      1.830      2.261
REMARK  6 active torsions:
REMARK  status: ('A' for Active; 'I' for Inactive)
REMARK    1  A    between atoms: C_2  and  O_3 
REMARK    2  A    between atoms: C_2  and  C_4 
REMARK    3  A    between atoms: C_2  and  C_11 
REMARK    4  A    between atoms: C_11  and  N_12 
REMARK       I    between atoms: N_12  and  C_13 
REMARK    5  A    between atoms: C_13  and  C_14 
REMARK    6  A    between atoms: C_15  and  C_16 
ROOT
HETATM    1  N   UNL     1       6.678  29.421  57.622  1.00  0.00    -0.354 N 
HETATM    2  C   UNL     1       7.905  28.908  57.985  1.00  0.00     0.255 C 
HETATM    3  O   UNL     1       8.062  27.731  58.292  1.00  0.00    -0.268 OA
HETATM    4  H   UNL     1       6.651  30.319  57.157  1.00  0.00     0.162 HD
ENDROOT
BRANCH   2   5
HETATM    5  C   UNL     1       8.991  29.876  57.970  1.00  0.00     0.080 A 
HETATM    6  C   UNL     1       9.256  30.939  58.891  1.00  0.00     0.107 A 
HETATM    7  N   UNL     1      10.309  31.676  58.490  1.00  0.00    -0.173 NA
HETATM    8  N   UNL     1      10.731  31.078  57.371  1.00  0.00    -0.288 N 
HETATM    9  H   UNL     1      11.535  31.473  56.893  1.00  0.00     0.188 HD
HETATM   10  C   UNL     1       9.984  30.000  57.013  1.00  0.00     0.128 A 
BRANCH   6  11
HETATM   11  C   UNL     1       8.559  31.280  60.126  1.00  0.00     0.034 A 
HETATM   12  C   UNL     1       7.361  32.001  60.108  1.00  0.00     0.129 A 
HETATM   13  F   UNL     1       6.806  32.379  58.946  1.00  0.00    -0.205 F 
HETATM   14  C   UNL     1       6.693  32.316  61.290  1.00  0.00     0.043 A 
HETATM   15  C   UNL     1       7.215  31.901  62.514  1.00  0.00     0.003 A 
HETATM   16  C   UNL     1       8.400  31.167  62.550  1.00  0.00     0.001 A 
HETATM   17  C   UNL     1       9.068  30.854  61.363  1.00  0.00     0.017 A 
ENDBRANCH   6  11
ENDBRANCH   2   5
BRANCH   1  18
HETATM   18  C   UNL     1       5.502  28.579  57.453  1.00  0.00     0.165 C 
BRANCH  18  19
HETATM   19  C   UNL     1       4.763  28.824  56.109  1.00  0.00     0.097 C 
HETATM   20  C   UNL     1       5.222  30.118  55.419  1.00  0.00     0.053 C 
BRANCH  19  21
HETATM   21  O   UNL     1       3.363  28.989  56.419  1.00  0.00    -0.384 OA
HETATM   22  H   UNL     1       3.322  29.390  57.304  1.00  0.00     0.211 HD
ENDBRANCH  19  21
BRANCH  19  23
HETATM   23  C   UNL     1       4.949  27.610  55.193  1.00  0.00    -0.023 A 
HETATM   24  C   UNL     1       4.562  27.667  53.840  1.00  0.00     0.013 A 
HETATM   25  C   UNL     1       4.733  26.567  52.995  1.00  0.00     0.043 A 
HETATM   26  C   UNL     1       5.296  25.400  53.494  1.00  0.00     0.116 A 
HETATM   27  F   UNL     1       5.457  24.345  52.685  1.00  0.00    -0.206 F 
HETATM   28  C   UNL     1       5.699  25.316  54.819  1.00  0.00     0.043 A 
HETATM   29  C   UNL     1       5.533  26.417  55.664  1.00  0.00     0.013 A 
ENDBRANCH  19  23
ENDBRANCH  18  19
ENDBRANCH   1  18
TORSDOF 6
ENDMDL
MODEL 8
REMARK VINA RESULT:      -8.7      5.942      8.604
REMARK  6 active torsions:
REMARK  status: ('A' for Active; 'I' for Inactive)
REMARK    1  A    between atoms: C_2  and  O_3 
REMARK    2  A    between atoms: C_2  and  C_4 
REMARK    3  A    between atoms: C_2  and  C_11 
REMARK    4  A    between atoms: C_11  and  N_12 
REMARK       I    between atoms: N_12  and  C_13 
REMARK    5  A    between atoms: C_13  and  C_14 
REMARK    6  A    between atoms: C_15  and  C_16 
ROOT
HETATM    1  N   UNL     1       5.606  25.996  51.863  1.00  0.00    -0.354 N 
HETATM    2  C   UNL     1       4.779  27.065  52.134  1.00  0.00     0.255 C 
HETATM    3  O   UNL     1       3.939  27.039  53.026  1.00  0.00    -0.268 OA
HETATM    4  H   UNL     1       6.424  26.154  51.289  1.00  0.00     0.162 HD
ENDROOT
BRANCH   2   5
HETATM    5  C   UNL     1       4.990  28.222  51.278  1.00  0.00     0.080 A 
HETATM    6  C   UNL     1       4.567  28.425  49.925  1.00  0.00     0.107 A 
HETATM    7  N   UNL     1       5.031  29.593  49.443  1.00  0.00    -0.173 NA
HETATM    8  N   UNL     1       5.694  30.140  50.466  1.00  0.00    -0.288 N 
HETATM    9  H   UNL     1       6.129  31.046  50.323  1.00  0.00     0.188 HD
HETATM   10  C   UNL     1       5.702  29.369  51.586  1.00  0.00     0.128 A 
BRANCH   6  11
HETATM   11  C   UNL     1       3.746  27.565  49.080  1.00  0.00     0.034 A 
HETATM   12  C   UNL     1       2.397  27.850  48.848  1.00  0.00     0.129 A 
HETATM   13  F   UNL     1       1.826  28.942  49.381  1.00  0.00    -0.205 F 
HETATM   14  C   UNL     1       1.619  27.031  48.032  1.00  0.00     0.043 A 
HETATM   15  C   UNL     1       2.188  25.913  47.425  1.00  0.00     0.003 A 
HETATM   16  C   UNL     1       3.537  25.623  47.631  1.00  0.00     0.001 A 
HETATM   17  C   UNL     1       4.314  26.446  48.452  1.00  0.00     0.017 A 
ENDBRANCH   6  11
ENDBRANCH   2   5
BRANCH   1  18
HETATM   18  C   UNL     1       5.631  24.802  52.695  1.00  0.00     0.165 C 
BRANCH  18  19
HETATM   19  C   UNL     1       6.750  24.831  53.773  1.00  0.00     0.097 C 
HETATM   20  C   UNL     1       6.280  25.487  55.081  1.00  0.00     0.053 C 
BRANCH  19  21
HETATM   21  O   UNL     1       7.817  25.652  53.254  1.00  0.00    -0.384 OA
HETATM   22  H   UNL     1       8.320  25.092  52.636  1.00  0.00     0.211 HD
ENDBRANCH  19  21
BRANCH  19  23
HETATM   23  C   UNL     1       7.264  23.409  54.017  1.00  0.00    -0.023 A 
HETATM   24  C   UNL     1       7.690  22.607  52.940  1.00  0.00     0.013 A 
HETATM   25  C   UNL     1       8.165  21.310  53.153  1.00  0.00     0.043 A 
HETATM   26  C   UNL     1       8.226  20.805  54.444  1.00  0.00     0.116 A 
HETATM   27  F   UNL     1       8.679  19.561  54.648  1.00  0.00    -0.206 F 
HETATM   28  C   UNL     1       7.826  21.574  55.527  1.00  0.00     0.043 A 
HETATM   29  C   UNL     1       7.354  22.872  55.317  1.00  0.00     0.013 A 
ENDBRANCH  19  23
ENDBRANCH  18  19
ENDBRANCH   1  18
TORSDOF 6
ENDMDL
MODEL 9
REMARK VINA RESULT:      -8.6      4.294      6.663
REMARK  6 active torsions:
REMARK  status: ('A' for Active; 'I' for Inactive)
REMARK    1  A    between atoms: C_2  and  O_3 
REMARK    2  A    between atoms: C_2  and  C_4 
REMARK    3  A    between atoms: C_2  and  C_11 
REMARK    4  A    between atoms: C_11  and  N_12 
REMARK       I    between atoms: N_12  and  C_13 
REMARK    5  A    between atoms: C_13  and  C_14 
REMARK    6  A    between atoms: C_15  and  C_16 
ROOT
HETATM    1  N   UNL     1       6.704  27.089  55.841  1.00  0.00    -0.354 N 
HETATM    2  C   UNL     1       6.868  28.102  54.922  1.00  0.00     0.255 C 
HETATM    3  O   UNL     1       7.947  28.347  54.395  1.00  0.00    -0.268 OA
HETATM    4  H   UNL     1       5.765  26.783  56.058  1.00  0.00     0.162 HD
ENDROOT
BRANCH   2   5
HETATM    5  C   UNL     1       5.655  28.851  54.628  1.00  0.00     0.080 A 
HETATM    6  C   UNL     1       4.812  28.775  53.474  1.00  0.00     0.107 A 
HETATM    7  N   UNL     1       3.829  29.693  53.531  1.00  0.00    -0.173 NA
HETATM    8  N   UNL     1       4.012  30.309  54.703  1.00  0.00    -0.288 N 
HETATM    9  H   UNL     1       3.366  31.049  54.958  1.00  0.00     0.188 HD
HETATM   10  C   UNL     1       5.084  29.849  55.401  1.00  0.00     0.128 A 
BRANCH   6  11
HETATM   11  C   UNL     1       4.898  27.873  52.331  1.00  0.00     0.034 A 
HETATM   12  C   UNL     1       4.898  26.485  52.501  1.00  0.00     0.129 A 
HETATM   13  F   UNL     1       4.795  25.944  53.725  1.00  0.00    -0.205 F 
HETATM   14  C   UNL     1       4.971  25.626  51.406  1.00  0.00     0.043 A 
HETATM   15  C   UNL     1       5.033  26.150  50.115  1.00  0.00     0.003 A 
HETATM   16  C   UNL     1       5.017  27.532  49.926  1.00  0.00     0.001 A 
HETATM   17  C   UNL     1       4.946  28.390  51.028  1.00  0.00     0.017 A 
ENDBRANCH   6  11
ENDBRANCH   2   5
BRANCH   1  18
HETATM   18  C   UNL     1       7.771  26.151  56.163  1.00  0.00     0.165 C 
BRANCH  18  19
HETATM   19  C   UNL     1       7.247  24.746  56.568  1.00  0.00     0.097 C 
HETATM   20  C   UNL     1       5.764  24.771  56.970  1.00  0.00     0.053 C 
BRANCH  19  21
HETATM   21  O   UNL     1       7.990  24.337  57.736  1.00  0.00    -0.384 OA
HETATM   22  H   UNL     1       8.057  25.122  58.309  1.00  0.00     0.211 HD
ENDBRANCH  19  21
BRANCH  19  23
HETATM   23  C   UNL     1       7.497  23.756  55.426  1.00  0.00    -0.023 A 
HETATM   24  C   UNL     1       7.655  22.381  55.691  1.00  0.00     0.013 A 
HETATM   25  C   UNL     1       7.878  21.470  54.655  1.00  0.00     0.043 A 
HETATM   26  C   UNL     1       7.941  21.923  53.344  1.00  0.00     0.116 A 
HETATM   27  F   UNL     1       8.157  21.050  52.352  1.00  0.00    -0.206 F 
HETATM   28  C   UNL     1       7.776  23.269  53.049  1.00  0.00     0.043 A 
HETATM   29  C   UNL     1       7.549  24.181  54.083  1.00  0.00     0.013 A 
ENDBRANCH  19  23
ENDBRANCH  18  19
ENDBRANCH   1  18
TORSDOF 6
ENDMDL
MODEL 10
REMARK VINA RESULT:      -8.6      5.107      7.600
REMARK  6 active torsions:
REMARK  status: ('A' for Active; 'I' for Inactive)
REMARK    1  A    between atoms: C_2  and  O_3 
REMARK    2  A    between atoms: C_2  and  C_4 
REMARK    3  A    between atoms: C_2  and  C_11 
REMARK    4  A    between atoms: C_11  and  N_12 
REMARK       I    between atoms: N_12  and  C_13 
REMARK    5  A    between atoms: C_13  and  C_14 
REMARK    6  A    between atoms: C_15  and  C_16 
ROOT
HETATM    1  N   UNL     1       4.985  27.520  52.554  1.00  0.00    -0.354 N 
HETATM    2  C   UNL     1       5.954  27.592  53.532  1.00  0.00     0.255 C 
HETATM    3  O   UNL     1       7.062  28.076  53.328  1.00  0.00    -0.268 OA
HETATM    4  H   UNL     1       4.031  27.336  52.835  1.00  0.00     0.162 HD
ENDROOT
BRANCH   2   5
HETATM    5  C   UNL     1       5.551  27.051  54.821  1.00  0.00     0.080 A 
HETATM    6  C   UNL     1       5.883  25.787  55.405  1.00  0.00     0.107 A 
HETATM    7  N   UNL     1       5.245  25.613  56.577  1.00  0.00    -0.173 NA
HETATM    8  N   UNL     1       4.559  26.745  56.759  1.00  0.00    -0.288 N 
HETATM    9  H   UNL     1       3.999  26.834  57.600  1.00  0.00     0.188 HD
HETATM   10  C   UNL     1       4.704  27.640  55.745  1.00  0.00     0.128 A 
BRANCH   6  11
HETATM   11  C   UNL     1       6.776  24.748  54.903  1.00  0.00     0.034 A 
HETATM   12  C   UNL     1       7.897  24.341  55.632  1.00  0.00     0.129 A 
HETATM   13  F   UNL     1       8.169  24.881  56.830  1.00  0.00    -0.205 F 
HETATM   14  C   UNL     1       8.742  23.341  55.153  1.00  0.00     0.043 A 
HETATM   15  C   UNL     1       8.467  22.724  53.934  1.00  0.00     0.003 A 
HETATM   16  C   UNL     1       7.343  23.106  53.201  1.00  0.00     0.001 A 
HETATM   17  C   UNL     1       6.499  24.110  53.684  1.00  0.00     0.017 A 
ENDBRANCH   6  11
ENDBRANCH   2   5
BRANCH   1  18
HETATM   18  C   UNL     1       5.158  28.126  51.242  1.00  0.00     0.165 C 
BRANCH  18  19
HETATM   19  C   UNL     1       3.821  28.587  50.600  1.00  0.00     0.097 C 
HETATM   20  C   UNL     1       3.861  30.061  50.166  1.00  0.00     0.053 C 
BRANCH  19  21
HETATM   21  O   UNL     1       2.803  28.479  51.618  1.00  0.00    -0.384 OA
HETATM   22  H   UNL     1       2.577  29.388  51.880  1.00  0.00     0.211 HD
ENDBRANCH  19  21
BRANCH  19  23
HETATM   23  C   UNL     1       3.474  27.670  49.423  1.00  0.00    -0.023 A 
HETATM   24  C   UNL     1       2.221  27.765  48.785  1.00  0.00     0.013 A 
HETATM   25  C   UNL     1       1.898  26.936  47.708  1.00  0.00     0.043 A 
HETATM   26  C   UNL     1       2.824  26.008  47.254  1.00  0.00     0.116 A 
HETATM   27  F   UNL     1       2.513  25.212  46.223  1.00  0.00    -0.206 F 
HETATM   28  C   UNL     1       4.071  25.898  47.853  1.00  0.00     0.043 A 
HETATM   29  C   UNL     1       4.398  26.728  48.928  1.00  0.00     0.013 A 
ENDBRANCH  19  23
ENDBRANCH  18  19
ENDBRANCH   1  18
TORSDOF 6
ENDMDL
