MODEL 1
REMARK VINA RESULT:     -10.1      0.000      0.000
REMARK  8 active torsions:
REMARK  status: ('A' for Active; 'I' for Inactive)
REMARK    1  A    between atoms: C_7  and  S_8 
REMARK    2  A    between atoms: S_8  and  C_9 
REMARK    3  A    between atoms: C_9  and  C_10 
REMARK    4  A    between atoms: C_10  and  N_11 
REMARK       I    between atoms: N_11  and  C_12 
REMARK       I    between atoms: C_12  and  N_13 
REMARK    5  A    between atoms: N_13  and  C_14 
REMARK    6  A    between atoms: C_14  and  C_15 
REMARK    7  A    between atoms: C_17  and  O_18 
REMARK    8  A    between atoms: C_20  and  O_21 
ROOT
HETATM    1  N   UNL     1       8.365  30.644  58.188  1.00  0.00    -0.342 N 
HETATM    2  C   UNL     1       8.913  31.352  59.209  1.00  0.00     0.316 C 
HETATM    3  N   UNL     1       8.627  30.929  60.464  1.00  0.00    -0.339 N 
HETATM    4  O   UNL     1       9.638  32.307  58.954  1.00  0.00    -0.248 OA
HETATM    5  H   UNL     1       8.746  30.949  57.299  1.00  0.00     0.164 HD
HETATM    6  H   UNL     1       7.916  30.235  60.608  1.00  0.00     0.164 HD
ENDROOT
BRANCH   1   7
HETATM    7  C   UNL     1       7.641  29.381  58.245  1.00  0.00     0.139 C 
BRANCH   7   8
HETATM    8  C   UNL     1       8.151  28.399  57.210  1.00  0.00     0.165 C 
BRANCH   8   9
HETATM    9  S   UNL     1       7.159  26.927  57.241  1.00  0.00     0.179 S 
HETATM   10  O   UNL     1       5.758  27.292  57.275  1.00  0.00    -0.222 OA
HETATM   11  O   UNL     1       7.730  25.994  58.191  1.00  0.00    -0.222 OA
BRANCH   9  12
HETATM   12  C   UNL     1       7.429  26.235  55.674  1.00  0.00     0.093 A 
HETATM   13  C   UNL     1       7.364  26.892  54.454  1.00  0.00     0.028 A 
HETATM   14  C   UNL     1       7.106  28.315  54.106  1.00  0.00     0.070 C 
HETATM   15  N   UNL     1       7.612  25.956  53.481  1.00  0.00    -0.358 N 
HETATM   16  H   UNL     1       7.650  26.144  52.488  1.00  0.00     0.166 HD
HETATM   17  C   UNL     1       7.789  24.710  54.037  1.00  0.00     0.044 A 
HETATM   18  C   UNL     1       7.686  24.852  55.423  1.00  0.00     0.014 A 
HETATM   19  C   UNL     1       8.035  23.481  53.413  1.00  0.00     0.030 A 
HETATM   20  C   UNL     1       7.841  23.696  56.220  1.00  0.00     0.015 A 
HETATM   21  C   UNL     1       8.086  22.459  55.611  1.00  0.00     0.001 A 
HETATM   22  C   UNL     1       8.180  22.355  54.228  1.00  0.00     0.002 A 
ENDBRANCH   9  12
ENDBRANCH   8   9
ENDBRANCH   7   8
ENDBRANCH   1   7
BRANCH   3  23
HETATM   23  C   UNL     1       9.110  31.624  61.635  1.00  0.00     0.163 C 
BRANCH  23  24
HETATM   24  C   UNL     1       7.955  32.014  62.520  1.00  0.00    -0.038 A 
HETATM   25  C   UNL     1       6.653  31.622  62.173  1.00  0.00     0.048 A 
HETATM   26  C   UNL     1       5.556  31.991  62.959  1.00  0.00     0.102 A 
HETATM   27  C   UNL     1       5.763  32.772  64.114  1.00  0.00     0.101 A 
HETATM   28  C   UNL     1       7.060  33.166  64.457  1.00  0.00     0.040 A 
HETATM   29  C   UNL     1       8.149  32.793  63.663  1.00  0.00     0.012 A 
BRANCH  26  30
HETATM   30  O   UNL     1       4.255  31.646  62.686  1.00  0.00    -0.353 OA
HETATM   31  C   UNL     1       3.711  32.065  61.443  1.00  0.00     0.210 C 
ENDBRANCH  26  30
BRANCH  27  32
HETATM   32  O   UNL     1       4.638  33.094  64.834  1.00  0.00    -0.353 OA
HETATM   33  C   UNL     1       4.808  33.867  66.012  1.00  0.00     0.210 C 
ENDBRANCH  27  32
ENDBRANCH  23  24
ENDBRANCH   3  23
TORSDOF 8
ENDMDL
MODEL 2
REMARK VINA RESULT:      -9.8      3.702      6.255
REMARK  8 active torsions:
REMARK  status: ('A' for Active; 'I' for Inactive)
REMARK    1  A    between atoms: C_7  and  S_8 
REMARK    2  A    between atoms: S_8  and  C_9 
REMARK    3  A    between atoms: C_9  and  C_10 
REMARK    4  A    between atoms: C_10  and  N_11 
REMARK       I    between atoms: N_11  and  C_12 
REMARK       I    between atoms: C_12  and  N_13 
REMARK    5  A    between atoms: N_13  and  C_14 
REMARK    6  A    between atoms: C_14  and  C_15 
REMARK    7  A    between atoms: C_17  and  O_18 
REMARK    8  A    between atoms: C_20  and  O_21 
ROOT
HETATM    1  N   UNL     1       4.126  26.472  53.135  1.00  0.00    -0.342 N 
HETATM    2  C   UNL     1       4.132  27.709  53.695  1.00  0.00     0.316 C 
HETATM    3  N   UNL     1       4.633  27.806  54.949  1.00  0.00    -0.339 N 
HETATM    4  O   UNL     1       3.710  28.660  53.047  1.00  0.00    -0.248 OA
HETATM    5  H   UNL     1       3.865  26.525  52.157  1.00  0.00     0.164 HD
HETATM    6  H   UNL     1       4.828  26.973  55.476  1.00  0.00     0.164 HD
ENDROOT
BRANCH   1   7
HETATM    7  C   UNL     1       4.741  25.248  53.632  1.00  0.00     0.139 C 
BRANCH   7   8
HETATM    8  C   UNL     1       5.779  24.713  52.665  1.00  0.00     0.165 C 
BRANCH   8   9
HETATM    9  S   UNL     1       7.399  25.217  53.186  1.00  0.00     0.179 S 
HETATM   10  O   UNL     1       7.307  26.480  53.890  1.00  0.00    -0.222 OA
HETATM   11  O   UNL     1       8.329  25.016  52.094  1.00  0.00    -0.222 OA
BRANCH   9  12
HETATM   12  C   UNL     1       7.814  24.037  54.387  1.00  0.00     0.093 A 
HETATM   13  C   UNL     1       8.014  24.266  55.741  1.00  0.00     0.028 A 
HETATM   14  C   UNL     1       7.902  25.497  56.566  1.00  0.00     0.070 C 
HETATM   15  N   UNL     1       8.357  23.061  56.304  1.00  0.00    -0.358 N 
HETATM   16  H   UNL     1       8.544  22.910  57.286  1.00  0.00     0.166 HD
HETATM   17  C   UNL     1       8.427  22.077  55.345  1.00  0.00     0.044 A 
HETATM   18  C   UNL     1       8.084  22.659  54.123  1.00  0.00     0.014 A 
HETATM   19  C   UNL     1       8.765  20.725  55.477  1.00  0.00     0.030 A 
HETATM   20  C   UNL     1       8.079  21.834  52.975  1.00  0.00     0.015 A 
HETATM   21  C   UNL     1       8.415  20.480  53.090  1.00  0.00     0.001 A 
HETATM   22  C   UNL     1       8.754  19.935  54.324  1.00  0.00     0.002 A 
ENDBRANCH   9  12
ENDBRANCH   8   9
ENDBRANCH   7   8
ENDBRANCH   1   7
BRANCH   3  23
HETATM   23  C   UNL     1       4.652  29.057  55.672  1.00  0.00     0.163 C 
BRANCH  23  24
HETATM   24  C   UNL     1       6.014  29.289  56.272  1.00  0.00    -0.038 A 
HETATM   25  C   UNL     1       6.121  29.875  57.543  1.00  0.00     0.048 A 
HETATM   26  C   UNL     1       7.372  30.128  58.117  1.00  0.00     0.102 A 
HETATM   27  C   UNL     1       8.541  29.794  57.404  1.00  0.00     0.101 A 
HETATM   28  C   UNL     1       8.434  29.215  56.135  1.00  0.00     0.040 A 
HETATM   29  C   UNL     1       7.179  28.968  55.571  1.00  0.00     0.012 A 
BRANCH  26  30
HETATM   30  O   UNL     1       7.557  30.695  59.353  1.00  0.00    -0.353 OA
HETATM   31  C   UNL     1       6.791  31.848  59.669  1.00  0.00     0.210 C 
ENDBRANCH  26  30
BRANCH  27  32
HETATM   32  O   UNL     1       9.730  30.072  58.033  1.00  0.00    -0.353 OA
HETATM   33  C   UNL     1      10.910  30.074  57.242  1.00  0.00     0.210 C 
ENDBRANCH  27  32
ENDBRANCH  23  24
ENDBRANCH   3  23
TORSDOF 8
ENDMDL
MODEL 3
REMARK VINA RESULT:      -9.4      2.062      2.903
REMARK  8 active torsions:
REMARK  status: ('A' for Active; 'I' for Inactive)
REMARK    1  A    between atoms: C_7  and  S_8 
REMARK    2  A    between atoms: S_8  and  C_9 
REMARK    3  A    between atoms: C_9  and  C_10 
REMARK    4  A    between atoms: C_10  and  N_11 
REMARK       I    between atoms: N_11  and  C_12 
REMARK       I    between atoms: C_12  and  N_13 
REMARK    5  A    between atoms: N_13  and  C_14 
REMARK    6  A    between atoms: C_14  and  C_15 
REMARK    7  A    between atoms: C_17  and  O_18 
REMARK    8  A    between atoms: C_20  and  O_21 
ROOT
HETATM    1  N   UNL     1       7.100  27.738  57.099  1.00  0.00    -0.342 N 
HETATM    2  C   UNL     1       7.518  29.019  57.259  1.00  0.00     0.316 C 
HETATM    3  N   UNL     1       8.399  29.251  58.262  1.00  0.00    -0.339 N 
HETATM    4  O   UNL     1       7.103  29.884  56.496  1.00  0.00    -0.248 OA
HETATM    5  H   UNL     1       6.558  27.644  56.247  1.00  0.00     0.164 HD
HETATM    6  H   UNL     1       8.587  28.532  58.938  1.00  0.00     0.164 HD
ENDROOT
BRANCH   1   7
HETATM    7  C   UNL     1       7.595  26.533  57.752  1.00  0.00     0.139 C 
BRANCH   7   8
HETATM    8  C   UNL     1       8.135  25.536  56.747  1.00  0.00     0.165 C 
BRANCH   8   9
HETATM    9  S   UNL     1       7.136  25.562  55.280  1.00  0.00     0.179 S 
HETATM   10  O   UNL     1       7.549  26.664  54.436  1.00  0.00    -0.222 OA
HETATM   11  O   UNL     1       5.750  25.359  55.650  1.00  0.00    -0.222 OA
BRANCH   9  12
HETATM   12  C   UNL     1       7.620  24.121  54.445  1.00  0.00     0.093 A 
HETATM   13  C   UNL     1       7.737  23.958  53.073  1.00  0.00     0.028 A 
HETATM   14  C   UNL     1       7.547  24.903  51.940  1.00  0.00     0.070 C 
HETATM   15  N   UNL     1       8.113  22.655  52.855  1.00  0.00    -0.358 N 
HETATM   16  H   UNL     1       8.295  22.245  51.949  1.00  0.00     0.166 HD
HETATM   17  C   UNL     1       8.195  21.967  54.043  1.00  0.00     0.044 A 
HETATM   18  C   UNL     1       7.896  22.866  55.069  1.00  0.00     0.014 A 
HETATM   19  C   UNL     1       8.515  20.624  54.277  1.00  0.00     0.030 A 
HETATM   20  C   UNL     1       7.923  22.387  56.398  1.00  0.00     0.015 A 
HETATM   21  C   UNL     1       8.240  21.046  56.648  1.00  0.00     0.001 A 
HETATM   22  C   UNL     1       8.530  20.179  55.601  1.00  0.00     0.002 A 
ENDBRANCH   9  12
ENDBRANCH   8   9
ENDBRANCH   7   8
ENDBRANCH   1   7
BRANCH   3  23
HETATM   23  C   UNL     1       8.884  30.578  58.565  1.00  0.00     0.163 C 
BRANCH  23  24
HETATM   24  C   UNL     1       8.361  31.028  59.904  1.00  0.00    -0.038 A 
HETATM   25  C   UNL     1       7.073  31.580  59.996  1.00  0.00     0.048 A 
HETATM   26  C   UNL     1       6.569  32.032  61.220  1.00  0.00     0.102 A 
HETATM   27  C   UNL     1       7.367  31.936  62.376  1.00  0.00     0.101 A 
HETATM   28  C   UNL     1       8.652  31.390  62.284  1.00  0.00     0.040 A 
HETATM   29  C   UNL     1       9.147  30.943  61.056  1.00  0.00     0.012 A 
BRANCH  26  30
HETATM   30  O   UNL     1       5.322  32.581  61.389  1.00  0.00    -0.353 OA
HETATM   31  C   UNL     1       5.067  33.837  60.775  1.00  0.00     0.210 C 
ENDBRANCH  26  30
BRANCH  27  32
HETATM   32  O   UNL     1       6.803  32.400  63.540  1.00  0.00    -0.353 OA
HETATM   33  C   UNL     1       7.581  33.269  64.349  1.00  0.00     0.210 C 
ENDBRANCH  27  32
ENDBRANCH  23  24
ENDBRANCH   3  23
TORSDOF 8
ENDMDL
MODEL 4
REMARK VINA RESULT:      -9.1      2.261      3.218
REMARK  8 active torsions:
REMARK  status: ('A' for Active; 'I' for Inactive)
REMARK    1  A    between atoms: C_7  and  S_8 
REMARK    2  A    between atoms: S_8  and  C_9 
REMARK    3  A    between atoms: C_9  and  C_10 
REMARK    4  A    between atoms: C_10  and  N_11 
REMARK       I    between atoms: N_11  and  C_12 
REMARK       I    between atoms: C_12  and  N_13 
REMARK    5  A    between atoms: N_13  and  C_14 
REMARK    6  A    between atoms: C_14  and  C_15 
REMARK    7  A    between atoms: C_17  and  O_18 
REMARK    8  A    between atoms: C_20  and  O_21 
ROOT
HETATM    1  N   UNL     1       8.192  29.050  55.327  1.00  0.00    -0.342 N 
HETATM    2  C   UNL     1       9.172  29.572  56.108  1.00  0.00     0.316 C 
HETATM    3  N   UNL     1       8.807  29.987  57.345  1.00  0.00    -0.339 N 
HETATM    4  O   UNL     1      10.318  29.627  55.676  1.00  0.00    -0.248 OA
HETATM    5  H   UNL     1       8.587  28.645  54.485  1.00  0.00     0.164 HD
HETATM    6  H   UNL     1       7.833  30.048  57.585  1.00  0.00     0.164 HD
ENDROOT
BRANCH   1   7
HETATM    7  C   UNL     1       6.823  28.714  55.691  1.00  0.00     0.139 C 
BRANCH   7   8
HETATM    8  C   UNL     1       6.702  27.270  56.136  1.00  0.00     0.165 C 
BRANCH   8   9
HETATM    9  S   UNL     1       6.771  26.199  54.722  1.00  0.00     0.179 S 
HETATM   10  O   UNL     1       7.691  26.748  53.747  1.00  0.00    -0.222 OA
HETATM   11  O   UNL     1       5.424  25.804  54.364  1.00  0.00    -0.222 OA
BRANCH   9  12
HETATM   12  C   UNL     1       7.536  24.772  55.342  1.00  0.00     0.093 A 
HETATM   13  C   UNL     1       8.088  24.609  56.605  1.00  0.00     0.028 A 
HETATM   14  C   UNL     1       8.164  25.517  57.780  1.00  0.00     0.070 C 
HETATM   15  N   UNL     1       8.611  23.340  56.652  1.00  0.00    -0.358 N 
HETATM   16  H   UNL     1       9.063  22.926  57.455  1.00  0.00     0.166 HD
HETATM   17  C   UNL     1       8.451  22.702  55.444  1.00  0.00     0.044 A 
HETATM   18  C   UNL     1       7.769  23.577  54.595  1.00  0.00     0.014 A 
HETATM   19  C   UNL     1       8.857  21.421  55.050  1.00  0.00     0.030 A 
HETATM   20  C   UNL     1       7.480  23.137  53.284  1.00  0.00     0.015 A 
HETATM   21  C   UNL     1       7.880  21.859  52.875  1.00  0.00     0.001 A 
HETATM   22  C   UNL     1       8.559  21.015  53.747  1.00  0.00     0.002 A 
ENDBRANCH   9  12
ENDBRANCH   8   9
ENDBRANCH   7   8
ENDBRANCH   1   7
BRANCH   3  23
HETATM   23  C   UNL     1       9.744  30.604  58.255  1.00  0.00     0.163 C 
BRANCH  23  24
HETATM   24  C   UNL     1       9.020  31.142  59.461  1.00  0.00    -0.038 A 
HETATM   25  C   UNL     1       7.651  31.439  59.372  1.00  0.00     0.048 A 
HETATM   26  C   UNL     1       6.955  31.965  60.466  1.00  0.00     0.102 A 
HETATM   27  C   UNL     1       7.642  32.205  61.673  1.00  0.00     0.101 A 
HETATM   28  C   UNL     1       9.007  31.915  61.759  1.00  0.00     0.040 A 
HETATM   29  C   UNL     1       9.693  31.390  60.660  1.00  0.00     0.012 A 
BRANCH  26  30
HETATM   30  O   UNL     1       5.619  32.278  60.456  1.00  0.00    -0.353 OA
HETATM   31  C   UNL     1       5.152  33.139  59.427  1.00  0.00     0.210 C 
ENDBRANCH  26  30
BRANCH  27  32
HETATM   32  O   UNL     1       6.891  32.723  62.700  1.00  0.00    -0.353 OA
HETATM   33  C   UNL     1       7.549  32.981  63.933  1.00  0.00     0.210 C 
ENDBRANCH  27  32
ENDBRANCH  23  24
ENDBRANCH   3  23
TORSDOF 8
ENDMDL
MODEL 5
REMARK VINA RESULT:      -9.1      3.546      5.529
REMARK  8 active torsions:
REMARK  status: ('A' for Active; 'I' for Inactive)
REMARK    1  A    between atoms: C_7  and  S_8 
REMARK    2  A    between atoms: S_8  and  C_9 
REMARK    3  A    between atoms: C_9  and  C_10 
REMARK    4  A    between atoms: C_10  and  N_11 
REMARK       I    between atoms: N_11  and  C_12 
REMARK       I    between atoms: C_12  and  N_13 
REMARK    5  A    between atoms: N_13  and  C_14 
REMARK    6  A    between atoms: C_14  and  C_15 
REMARK    7  A    between atoms: C_17  and  O_18 
REMARK    8  A    between atoms: C_20  and  O_21 
ROOT
HETATM    1  N   UNL     1       4.620  27.804  53.448  1.00  0.00    -0.342 N 
HETATM    2  C   UNL     1       4.377  28.871  54.252  1.00  0.00     0.316 C 
HETATM    3  N   UNL     1       4.135  28.606  55.558  1.00  0.00    -0.339 N 
HETATM    4  O   UNL     1       4.405  29.999  53.773  1.00  0.00    -0.248 OA
HETATM    5  H   UNL     1       4.924  28.111  52.531  1.00  0.00     0.164 HD
HETATM    6  H   UNL     1       3.984  27.658  55.856  1.00  0.00     0.164 HD
ENDROOT
BRANCH   1   7
HETATM    7  C   UNL     1       4.824  26.412  53.825  1.00  0.00     0.139 C 
BRANCH   7   8
HETATM    8  C   UNL     1       5.694  25.683  52.820  1.00  0.00     0.165 C 
BRANCH   8   9
HETATM    9  S   UNL     1       7.386  25.720  53.353  1.00  0.00     0.179 S 
HETATM   10  O   UNL     1       7.624  26.928  54.115  1.00  0.00    -0.222 OA
HETATM   11  O   UNL     1       8.237  25.333  52.247  1.00  0.00    -0.222 OA
BRANCH   9  12
HETATM   12  C   UNL     1       7.470  24.417  54.495  1.00  0.00     0.093 A 
HETATM   13  C   UNL     1       7.384  24.519  55.876  1.00  0.00     0.028 A 
HETATM   14  C   UNL     1       7.163  25.683  56.775  1.00  0.00     0.070 C 
HETATM   15  N   UNL     1       7.533  23.250  56.381  1.00  0.00    -0.358 N 
HETATM   16  H   UNL     1       7.497  23.005  57.361  1.00  0.00     0.166 HD
HETATM   17  C   UNL     1       7.757  22.346  55.368  1.00  0.00     0.044 A 
HETATM   18  C   UNL     1       7.716  23.050  54.162  1.00  0.00     0.014 A 
HETATM   19  C   UNL     1       7.985  20.966  55.437  1.00  0.00     0.030 A 
HETATM   20  C   UNL     1       7.914  22.326  52.966  1.00  0.00     0.015 A 
HETATM   21  C   UNL     1       8.145  20.945  53.018  1.00  0.00     0.001 A 
HETATM   22  C   UNL     1       8.181  20.278  54.237  1.00  0.00     0.002 A 
ENDBRANCH   9  12
ENDBRANCH   8   9
ENDBRANCH   7   8
ENDBRANCH   1   7
BRANCH   3  23
HETATM   23  C   UNL     1       3.817  29.649  56.506  1.00  0.00     0.163 C 
BRANCH  23  24
HETATM   24  C   UNL     1       5.056  30.069  57.250  1.00  0.00    -0.038 A 
HETATM   25  C   UNL     1       6.150  29.192  57.326  1.00  0.00     0.048 A 
HETATM   26  C   UNL     1       7.306  29.542  58.033  1.00  0.00     0.102 A 
HETATM   27  C   UNL     1       7.370  30.791  58.681  1.00  0.00     0.101 A 
HETATM   28  C   UNL     1       6.278  31.663  58.610  1.00  0.00     0.040 A 
HETATM   29  C   UNL     1       5.128  31.303  57.902  1.00  0.00     0.012 A 
BRANCH  26  30
HETATM   30  O   UNL     1       8.415  28.741  58.151  1.00  0.00    -0.353 OA
HETATM   31  C   UNL     1       9.306  28.685  57.046  1.00  0.00     0.210 C 
ENDBRANCH  26  30
BRANCH  27  32
HETATM   32  O   UNL     1       8.537  31.063  59.354  1.00  0.00    -0.353 OA
HETATM   33  C   UNL     1       8.525  30.946  60.769  1.00  0.00     0.210 C 
ENDBRANCH  27  32
ENDBRANCH  23  24
ENDBRANCH   3  23
TORSDOF 8
ENDMDL
MODEL 6
REMARK VINA RESULT:      -9.1      2.637     10.414
REMARK  8 active torsions:
REMARK  status: ('A' for Active; 'I' for Inactive)
REMARK    1  A    between atoms: C_7  and  S_8 
REMARK    2  A    between atoms: S_8  and  C_9 
REMARK    3  A    between atoms: C_9  and  C_10 
REMARK    4  A    between atoms: C_10  and  N_11 
REMARK       I    between atoms: N_11  and  C_12 
REMARK       I    between atoms: C_12  and  N_13 
REMARK    5  A    between atoms: N_13  and  C_14 
REMARK    6  A    between atoms: C_14  and  C_15 
REMARK    7  A    between atoms: C_17  and  O_18 
REMARK    8  A    between atoms: C_20  and  O_21 
ROOT
HETATM    1  N   UNL     1       8.249  28.404  57.849  1.00  0.00    -0.342 N 
HETATM    2  C   UNL     1       7.565  27.238  57.724  1.00  0.00     0.316 C 
HETATM    3  N   UNL     1       6.461  27.261  56.939  1.00  0.00    -0.339 N 
HETATM    4  O   UNL     1       7.978  26.237  58.299  1.00  0.00    -0.248 OA
HETATM    5  H   UNL     1       9.125  28.252  58.336  1.00  0.00     0.164 HD
HETATM    6  H   UNL     1       6.096  28.140  56.615  1.00  0.00     0.164 HD
ENDROOT
BRANCH   1   7
HETATM    7  C   UNL     1       8.059  29.650  57.119  1.00  0.00     0.139 C 
BRANCH   7   8
HETATM    8  C   UNL     1       7.252  30.650  57.921  1.00  0.00     0.165 C 
BRANCH   8   9
HETATM    9  S   UNL     1       8.218  31.243  59.287  1.00  0.00     0.179 S 
HETATM   10  O   UNL     1       9.203  32.190  58.805  1.00  0.00    -0.222 OA
HETATM   11  O   UNL     1       8.584  30.121  60.127  1.00  0.00    -0.222 OA
BRANCH   9  12
HETATM   12  C   UNL     1       7.079  32.173  60.205  1.00  0.00     0.093 A 
HETATM   13  C   UNL     1       5.917  32.765  59.730  1.00  0.00     0.028 A 
HETATM   14  C   UNL     1       5.279  32.763  58.387  1.00  0.00     0.070 C 
HETATM   15  N   UNL     1       5.343  33.426  60.789  1.00  0.00    -0.358 N 
HETATM   16  H   UNL     1       4.472  33.937  60.752  1.00  0.00     0.166 HD
HETATM   17  C   UNL     1       6.125  33.314  61.915  1.00  0.00     0.044 A 
HETATM   18  C   UNL     1       7.227  32.523  61.582  1.00  0.00     0.014 A 
HETATM   19  C   UNL     1       5.931  33.851  63.193  1.00  0.00     0.030 A 
HETATM   20  C   UNL     1       8.181  32.258  62.591  1.00  0.00     0.015 A 
HETATM   21  C   UNL     1       8.001  32.789  63.875  1.00  0.00     0.001 A 
HETATM   22  C   UNL     1       6.892  33.574  64.169  1.00  0.00     0.002 A 
ENDBRANCH   9  12
ENDBRANCH   8   9
ENDBRANCH   7   8
ENDBRANCH   1   7
BRANCH   3  23
HETATM   23  C   UNL     1       5.621  26.099  56.763  1.00  0.00     0.163 C 
BRANCH  23  24
HETATM   24  C   UNL     1       6.219  25.178  55.732  1.00  0.00    -0.038 A 
HETATM   25  C   UNL     1       6.155  25.524  54.373  1.00  0.00     0.048 A 
HETATM   26  C   UNL     1       6.678  24.678  53.389  1.00  0.00     0.102 A 
HETATM   27  C   UNL     1       7.272  23.458  53.769  1.00  0.00     0.101 A 
HETATM   28  C   UNL     1       7.330  23.111  55.123  1.00  0.00     0.040 A 
HETATM   29  C   UNL     1       6.804  23.963  56.098  1.00  0.00     0.012 A 
BRANCH  26  30
HETATM   30  O   UNL     1       6.655  24.947  52.043  1.00  0.00    -0.353 OA
HETATM   31  C   UNL     1       5.845  26.028  51.603  1.00  0.00     0.210 C 
ENDBRANCH  26  30
BRANCH  27  32
HETATM   32  O   UNL     1       7.761  22.681  52.747  1.00  0.00    -0.353 OA
HETATM   33  C   UNL     1       8.055  21.322  53.034  1.00  0.00     0.210 C 
ENDBRANCH  27  32
ENDBRANCH  23  24
ENDBRANCH   3  23
TORSDOF 8
ENDMDL
MODEL 7
REMARK VINA RESULT:      -8.9      3.393      9.991
REMARK  8 active torsions:
REMARK  status: ('A' for Active; 'I' for Inactive)
REMARK    1  A    between atoms: C_7  and  S_8 
REMARK    2  A    between atoms: S_8  and  C_9 
REMARK    3  A    between atoms: C_9  and  C_10 
REMARK    4  A    between atoms: C_10  and  N_11 
REMARK       I    between atoms: N_11  and  C_12 
REMARK       I    between atoms: C_12  and  N_13 
REMARK    5  A    between atoms: N_13  and  C_14 
REMARK    6  A    between atoms: C_14  and  C_15 
REMARK    7  A    between atoms: C_17  and  O_18 
REMARK    8  A    between atoms: C_20  and  O_21 
ROOT
HETATM    1  N   UNL     1       5.331  28.441  54.522  1.00  0.00    -0.342 N 
HETATM    2  C   UNL     1       5.835  27.657  53.534  1.00  0.00     0.316 C 
HETATM    3  N   UNL     1       5.810  26.319  53.748  1.00  0.00    -0.339 N 
HETATM    4  O   UNL     1       6.261  28.182  52.512  1.00  0.00    -0.248 OA
HETATM    5  H   UNL     1       5.267  29.405  54.212  1.00  0.00     0.164 HD
HETATM    6  H   UNL     1       5.582  25.963  54.660  1.00  0.00     0.164 HD
ENDROOT
BRANCH   1   7
HETATM    7  C   UNL     1       4.608  28.040  55.720  1.00  0.00     0.139 C 
BRANCH   7   8
HETATM    8  C   UNL     1       5.230  28.628  56.971  1.00  0.00     0.165 C 
BRANCH   8   9
HETATM    9  S   UNL     1       6.083  30.130  56.567  1.00  0.00     0.179 S 
HETATM   10  O   UNL     1       5.232  30.959  55.738  1.00  0.00    -0.222 OA
HETATM   11  O   UNL     1       7.444  29.812  56.186  1.00  0.00    -0.222 OA
BRANCH   9  12
HETATM   12  C   UNL     1       6.195  30.946  58.093  1.00  0.00     0.093 A 
HETATM   13  C   UNL     1       5.143  31.453  58.841  1.00  0.00     0.028 A 
HETATM   14  C   UNL     1       3.671  31.432  58.628  1.00  0.00     0.070 C 
HETATM   15  N   UNL     1       5.691  32.042  59.954  1.00  0.00    -0.358 N 
HETATM   16  H   UNL     1       5.166  32.483  60.698  1.00  0.00     0.166 HD
HETATM   17  C   UNL     1       7.064  31.967  59.920  1.00  0.00     0.044 A 
HETATM   18  C   UNL     1       7.416  31.274  58.759  1.00  0.00     0.014 A 
HETATM   19  C   UNL     1       8.008  32.457  60.830  1.00  0.00     0.030 A 
HETATM   20  C   UNL     1       8.790  31.063  58.505  1.00  0.00     0.015 A 
HETATM   21  C   UNL     1       9.746  31.548  59.405  1.00  0.00     0.001 A 
HETATM   22  C   UNL     1       9.359  32.236  60.550  1.00  0.00     0.002 A 
ENDBRANCH   9  12
ENDBRANCH   8   9
ENDBRANCH   7   8
ENDBRANCH   1   7
BRANCH   3  23
HETATM   23  C   UNL     1       6.357  25.380  52.796  1.00  0.00     0.163 C 
BRANCH  23  24
HETATM   24  C   UNL     1       7.108  24.291  53.515  1.00  0.00    -0.038 A 
HETATM   25  C   UNL     1       7.367  24.417  54.889  1.00  0.00     0.048 A 
HETATM   26  C   UNL     1       8.085  23.435  55.580  1.00  0.00     0.102 A 
HETATM   27  C   UNL     1       8.558  22.305  54.885  1.00  0.00     0.101 A 
HETATM   28  C   UNL     1       8.305  22.182  53.515  1.00  0.00     0.040 A 
HETATM   29  C   UNL     1       7.588  23.169  52.834  1.00  0.00     0.012 A 
BRANCH  26  30
HETATM   30  O   UNL     1       8.375  23.487  56.921  1.00  0.00    -0.353 OA
HETATM   31  C   UNL     1       8.711  24.752  57.472  1.00  0.00     0.210 C 
ENDBRANCH  26  30
BRANCH  27  32
HETATM   32  O   UNL     1       9.254  21.385  55.631  1.00  0.00    -0.353 OA
HETATM   33  C   UNL     1       8.635  20.131  55.878  1.00  0.00     0.210 C 
ENDBRANCH  27  32
ENDBRANCH  23  24
ENDBRANCH   3  23
TORSDOF 8
ENDMDL
MODEL 8
REMARK VINA RESULT:      -8.9      2.105      3.072
REMARK  8 active torsions:
REMARK  status: ('A' for Active; 'I' for Inactive)
REMARK    1  A    between atoms: C_7  and  S_8 
REMARK    2  A    between atoms: S_8  and  C_9 
REMARK    3  A    between atoms: C_9  and  C_10 
REMARK    4  A    between atoms: C_10  and  N_11 
REMARK       I    between atoms: N_11  and  C_12 
REMARK       I    between atoms: C_12  and  N_13 
REMARK    5  A    between atoms: N_13  and  C_14 
REMARK    6  A    between atoms: C_14  and  C_15 
REMARK    7  A    between atoms: C_17  and  O_18 
REMARK    8  A    between atoms: C_20  and  O_21 
ROOT
HETATM    1  N   UNL     1       4.440  29.222  57.490  1.00  0.00    -0.342 N 
HETATM    2  C   UNL     1       4.201  30.504  57.867  1.00  0.00     0.316 C 
HETATM    3  N   UNL     1       5.235  31.176  58.429  1.00  0.00    -0.339 N 
HETATM    4  O   UNL     1       3.092  30.989  57.669  1.00  0.00    -0.248 OA
HETATM    5  H   UNL     1       3.657  28.855  56.960  1.00  0.00     0.164 HD
HETATM    6  H   UNL     1       6.068  30.681  58.693  1.00  0.00     0.164 HD
ENDROOT
BRANCH   1   7
HETATM    7  C   UNL     1       5.710  28.509  57.450  1.00  0.00     0.139 C 
BRANCH   7   8
HETATM    8  C   UNL     1       5.611  27.237  56.634  1.00  0.00     0.165 C 
BRANCH   8   9
HETATM    9  S   UNL     1       7.110  26.302  56.796  1.00  0.00     0.179 S 
HETATM   10  O   UNL     1       6.847  25.100  57.560  1.00  0.00    -0.222 OA
HETATM   11  O   UNL     1       8.193  27.202  57.136  1.00  0.00    -0.222 OA
BRANCH   9  12
HETATM   12  C   UNL     1       7.424  25.771  55.176  1.00  0.00     0.093 A 
HETATM   13  C   UNL     1       7.510  26.569  54.044  1.00  0.00     0.028 A 
HETATM   14  C   UNL     1       7.416  28.041  53.857  1.00  0.00     0.070 C 
HETATM   15  N   UNL     1       7.737  25.731  52.980  1.00  0.00    -0.358 N 
HETATM   16  H   UNL     1       7.865  26.027  52.022  1.00  0.00     0.166 HD
HETATM   17  C   UNL     1       7.754  24.418  53.388  1.00  0.00     0.044 A 
HETATM   18  C   UNL     1       7.566  24.408  54.772  1.00  0.00     0.014 A 
HETATM   19  C   UNL     1       7.926  23.250  52.635  1.00  0.00     0.030 A 
HETATM   20  C   UNL     1       7.552  23.157  55.430  1.00  0.00     0.015 A 
HETATM   21  C   UNL     1       7.721  21.980  54.690  1.00  0.00     0.001 A 
HETATM   22  C   UNL     1       7.904  22.028  53.313  1.00  0.00     0.002 A 
ENDBRANCH   9  12
ENDBRANCH   8   9
ENDBRANCH   7   8
ENDBRANCH   1   7
BRANCH   3  23
HETATM   23  C   UNL     1       5.096  32.530  58.914  1.00  0.00     0.163 C 
BRANCH  23  24
HETATM   24  C   UNL     1       5.843  32.695  60.211  1.00  0.00    -0.038 A 
HETATM   25  C   UNL     1       7.151  32.197  60.326  1.00  0.00     0.048 A 
HETATM   26  C   UNL     1       7.862  32.311  61.525  1.00  0.00     0.102 A 
HETATM   27  C   UNL     1       7.255  32.930  62.635  1.00  0.00     0.101 A 
HETATM   28  C   UNL     1       5.950  33.422  62.522  1.00  0.00     0.040 A 
HETATM   29  C   UNL     1       5.248  33.302  61.320  1.00  0.00     0.012 A 
BRANCH  26  30
HETATM   30  O   UNL     1       9.142  31.851  61.713  1.00  0.00    -0.353 OA
HETATM   31  C   UNL     1       9.332  30.445  61.783  1.00  0.00     0.210 C 
ENDBRANCH  26  30
BRANCH  27  32
HETATM   32  O   UNL     1       8.016  33.005  63.776  1.00  0.00    -0.353 OA
HETATM   33  C   UNL     1       7.419  33.573  64.932  1.00  0.00     0.210 C 
ENDBRANCH  27  32
ENDBRANCH  23  24
ENDBRANCH   3  23
TORSDOF 8
ENDMDL
MODEL 9
REMARK VINA RESULT:      -8.9      1.581      2.480
REMARK  8 active torsions:
REMARK  status: ('A' for Active; 'I' for Inactive)
REMARK    1  A    between atoms: C_7  and  S_8 
REMARK    2  A    between atoms: S_8  and  C_9 
REMARK    3  A    between atoms: C_9  and  C_10 
REMARK    4  A    between atoms: C_10  and  N_11 
REMARK       I    between atoms: N_11  and  C_12 
REMARK       I    between atoms: C_12  and  N_13 
REMARK    5  A    between atoms: N_13  and  C_14 
REMARK    6  A    between atoms: C_14  and  C_15 
REMARK    7  A    between atoms: C_17  and  O_18 
REMARK    8  A    between atoms: C_20  and  O_21 
ROOT
HETATM    1  N   UNL     1       8.030  29.839  57.979  1.00  0.00    -0.342 N 
HETATM    2  C   UNL     1       8.657  30.633  58.884  1.00  0.00     0.316 C 
HETATM    3  N   UNL     1       7.875  31.486  59.589  1.00  0.00    -0.339 N 
HETATM    4  O   UNL     1       9.870  30.532  59.031  1.00  0.00    -0.248 OA
HETATM    5  H   UNL     1       8.672  29.147  57.608  1.00  0.00     0.164 HD
HETATM    6  H   UNL     1       6.916  31.623  59.322  1.00  0.00     0.164 HD
ENDROOT
BRANCH   1   7
HETATM    7  C   UNL     1       6.600  29.651  57.773  1.00  0.00     0.139 C 
BRANCH   7   8
HETATM    8  C   UNL     1       6.299  28.307  57.142  1.00  0.00     0.165 C 
BRANCH   8   9
HETATM    9  S   UNL     1       7.772  27.646  56.406  1.00  0.00     0.179 S 
HETATM   10  O   UNL     1       8.640  27.133  57.445  1.00  0.00    -0.222 OA
HETATM   11  O   UNL     1       8.250  28.569  55.397  1.00  0.00    -0.222 OA
BRANCH   9  12
HETATM   12  C   UNL     1       7.196  26.257  55.543  1.00  0.00     0.093 A 
HETATM   13  C   UNL     1       7.403  24.927  55.880  1.00  0.00     0.028 A 
HETATM   14  C   UNL     1       8.097  24.290  57.031  1.00  0.00     0.070 C 
HETATM   15  N   UNL     1       6.801  24.169  54.906  1.00  0.00    -0.358 N 
HETATM   16  H   UNL     1       6.768  23.158  54.891  1.00  0.00     0.166 HD
HETATM   17  C   UNL     1       6.254  24.972  53.932  1.00  0.00     0.044 A 
HETATM   18  C   UNL     1       6.480  26.298  54.308  1.00  0.00     0.014 A 
HETATM   19  C   UNL     1       5.577  24.617  52.759  1.00  0.00     0.030 A 
HETATM   20  C   UNL     1       5.997  27.318  53.458  1.00  0.00     0.015 A 
HETATM   21  C   UNL     1       5.319  26.980  52.280  1.00  0.00     0.001 A 
HETATM   22  C   UNL     1       5.115  25.648  51.937  1.00  0.00     0.002 A 
ENDBRANCH   9  12
ENDBRANCH   8   9
ENDBRANCH   7   8
ENDBRANCH   1   7
BRANCH   3  23
HETATM   23  C   UNL     1       8.426  32.416  60.548  1.00  0.00     0.163 C 
BRANCH  23  24
HETATM   24  C   UNL     1       7.513  32.534  61.740  1.00  0.00    -0.038 A 
HETATM   25  C   UNL     1       6.123  32.467  61.558  1.00  0.00     0.048 A 
HETATM   26  C   UNL     1       5.247  32.600  62.641  1.00  0.00     0.102 A 
HETATM   27  C   UNL     1       5.770  32.809  63.933  1.00  0.00     0.101 A 
HETATM   28  C   UNL     1       7.155  32.881  64.113  1.00  0.00     0.040 A 
HETATM   29  C   UNL     1       8.021  32.748  63.024  1.00  0.00     0.012 A 
BRANCH  26  30
HETATM   30  O   UNL     1       3.879  32.544  62.543  1.00  0.00    -0.353 OA
HETATM   31  C   UNL     1       3.324  32.216  61.277  1.00  0.00     0.210 C 
ENDBRANCH  26  30
BRANCH  27  32
HETATM   32  O   UNL     1       4.848  32.930  64.944  1.00  0.00    -0.353 OA
HETATM   33  C   UNL     1       5.076  33.928  65.929  1.00  0.00     0.210 C 
ENDBRANCH  27  32
ENDBRANCH  23  24
ENDBRANCH   3  23
TORSDOF 8
ENDMDL
MODEL 10
REMARK VINA RESULT:      -8.8      2.960     10.470
REMARK  8 active torsions:
REMARK  status: ('A' for Active; 'I' for Inactive)
REMARK    1  A    between atoms: C_7  and  S_8 
REMARK    2  A    between atoms: S_8  and  C_9 
REMARK    3  A    between atoms: C_9  and  C_10 
REMARK    4  A    between atoms: C_10  and  N_11 
REMARK       I    between atoms: N_11  and  C_12 
REMARK       I    between atoms: C_12  and  N_13 
REMARK    5  A    between atoms: N_13  and  C_14 
REMARK    6  A    between atoms: C_14  and  C_15 
REMARK    7  A    between atoms: C_17  and  O_18 
REMARK    8  A    between atoms: C_20  and  O_21 
ROOT
HETATM    1  N   UNL     1       8.707  31.751  61.153  1.00  0.00    -0.342 N 
HETATM    2  C   UNL     1       8.966  31.594  59.830  1.00  0.00     0.316 C 
HETATM    3  N   UNL     1       8.680  30.384  59.293  1.00  0.00    -0.339 N 
HETATM    4  O   UNL     1       9.420  32.539  59.192  1.00  0.00    -0.248 OA
HETATM    5  H   UNL     1       8.822  32.722  61.425  1.00  0.00     0.164 HD
HETATM    6  H   UNL     1       8.448  29.613  59.894  1.00  0.00     0.164 HD
ENDROOT
BRANCH   1   7
HETATM    7  C   UNL     1       8.001  30.849  62.052  1.00  0.00     0.139 C 
BRANCH   7   8
HETATM    8  C   UNL     1       6.717  31.466  62.568  1.00  0.00     0.165 C 
BRANCH   8   9
HETATM    9  S   UNL     1       7.022  33.131  63.100  1.00  0.00     0.179 S 
HETATM   10  O   UNL     1       6.882  34.030  61.973  1.00  0.00    -0.222 OA
HETATM   11  O   UNL     1       8.196  33.147  63.949  1.00  0.00    -0.222 OA
BRANCH   9  12
HETATM   12  C   UNL     1       5.678  33.468  64.142  1.00  0.00     0.093 A 
HETATM   13  C   UNL     1       4.340  33.521  63.778  1.00  0.00     0.028 A 
HETATM   14  C   UNL     1       3.653  33.281  62.481  1.00  0.00     0.070 C 
HETATM   15  N   UNL     1       3.631  33.851  64.907  1.00  0.00    -0.358 N 
HETATM   16  H   UNL     1       2.626  33.945  64.957  1.00  0.00     0.166 HD
HETATM   17  C   UNL     1       4.477  34.054  65.972  1.00  0.00     0.044 A 
HETATM   18  C   UNL     1       5.778  33.813  65.524  1.00  0.00     0.014 A 
HETATM   19  C   UNL     1       4.182  34.426  67.289  1.00  0.00     0.030 A 
HETATM   20  C   UNL     1       6.835  33.954  66.452  1.00  0.00     0.015 A 
HETATM   21  C   UNL     1       6.556  34.327  67.773  1.00  0.00     0.001 A 
HETATM   22  C   UNL     1       5.248  34.560  68.183  1.00  0.00     0.002 A 
ENDBRANCH   9  12
ENDBRANCH   8   9
ENDBRANCH   7   8
ENDBRANCH   1   7
BRANCH   3  23
HETATM   23  C   UNL     1       8.954  30.075  57.908  1.00  0.00     0.163 C 
BRANCH  23  24
HETATM   24  C   UNL     1       8.091  28.929  57.452  1.00  0.00    -0.038 A 
HETATM   25  C   UNL     1       6.707  29.117  57.307  1.00  0.00     0.048 A 
HETATM   26  C   UNL     1       5.874  28.065  56.911  1.00  0.00     0.102 A 
HETATM   27  C   UNL     1       6.433  26.796  56.659  1.00  0.00     0.101 A 
HETATM   28  C   UNL     1       7.811  26.607  56.809  1.00  0.00     0.040 A 
HETATM   29  C   UNL     1       8.634  27.665  57.206  1.00  0.00     0.012 A 
BRANCH  26  30
HETATM   30  O   UNL     1       4.516  28.171  56.746  1.00  0.00    -0.353 OA
HETATM   31  C   UNL     1       4.021  29.339  56.105  1.00  0.00     0.210 C 
ENDBRANCH  26  30
BRANCH  27  32
HETATM   32  O   UNL     1       5.552  25.814  56.275  1.00  0.00    -0.353 OA
HETATM   33  C   UNL     1       5.648  25.326  54.944  1.00  0.00     0.210 C 
ENDBRANCH  27  32
ENDBRANCH  23  24
ENDBRANCH   3  23
TORSDOF 8
ENDMDL
