MODEL 1
REMARK VINA RESULT:      -9.1      0.000      0.000
REMARK  6 active torsions:
REMARK  status: ('A' for Active; 'I' for Inactive)
REMARK    1  A    between atoms: C_7  and  C_8 
REMARK    2  A    between atoms: N_9  and  N_10 
REMARK       I    between atoms: N_10  and  C_11 
REMARK    3  A    between atoms: C_11  and  C_12 
REMARK    4  A    between atoms: C_12  and  N_13 
REMARK    5  A    between atoms: N_13  and  C_14 
REMARK    6  A    between atoms: C_17  and  O_18 
ROOT
HETATM    1  N   UNL     1       6.159  26.568  53.104  1.00  0.00    -0.246 N 
HETATM    2  C   UNL     1       5.510  26.330  51.899  1.00  0.00     0.250 C 
HETATM    3  O   UNL     1       5.062  25.244  51.534  1.00  0.00    -0.270 OA
HETATM    4  H   UNL     1       6.485  27.509  53.314  1.00  0.00     0.192 HD
ENDROOT
BRANCH   1   5
HETATM    5  N   UNL     1       6.395  25.527  53.948  1.00  0.00    -0.184 NA
HETATM    6  C   UNL     1       7.624  25.298  54.277  1.00  0.00     0.153 C 
BRANCH   6   7
HETATM    7  C   UNL     1       7.929  24.188  55.165  1.00  0.00     0.018 A 
HETATM    8  C   UNL     1       8.121  24.256  56.542  1.00  0.00     0.018 A 
HETATM    9  C   UNL     1       8.079  25.408  57.483  1.00  0.00     0.069 C 
HETATM   10  N   UNL     1       8.387  22.987  56.991  1.00  0.00    -0.358 N 
HETATM   11  H   UNL     1       8.568  22.741  57.955  1.00  0.00     0.166 HD
HETATM   12  C   UNL     1       8.375  22.091  55.951  1.00  0.00     0.043 A 
HETATM   13  C   UNL     1       8.092  22.811  54.791  1.00  0.00     0.004 A 
HETATM   14  C   UNL     1       8.596  20.708  55.958  1.00  0.00     0.030 A 
HETATM   15  C   UNL     1       8.029  22.104  53.569  1.00  0.00     0.014 A 
HETATM   16  C   UNL     1       8.249  20.721  53.558  1.00  0.00     0.001 A 
HETATM   17  C   UNL     1       8.527  20.035  54.737  1.00  0.00     0.002 A 
ENDBRANCH   6   7
ENDBRANCH   1   5
BRANCH   2  18
HETATM   18  C   UNL     1       5.336  27.591  51.053  1.00  0.00     0.197 C 
BRANCH  18  19
HETATM   19  N   UNL     1       5.337  27.280  49.609  1.00  0.00    -0.284 NA
HETATM   20  H   UNL     1       5.864  26.423  49.424  1.00  0.00     0.128 HD
BRANCH  19  21
HETATM   21  C   UNL     1       4.080  27.182  48.981  1.00  0.00     0.008 A 
HETATM   22  C   UNL     1       3.120  28.164  49.257  1.00  0.00     0.026 A 
HETATM   23  C   UNL     1       1.841  28.106  48.691  1.00  0.00     0.038 A 
HETATM   24  C   UNL     1       1.482  27.053  47.853  1.00  0.00     0.068 A 
HETATM   25  C   UNL     1       2.405  26.040  47.615  1.00  0.00     0.038 A 
HETATM   26  C   UNL     1       3.684  26.096  48.192  1.00  0.00     0.026 A 
BRANCH  24  27
HETATM   27  O   UNL     1       0.212  27.122  47.351  1.00  0.00    -0.356 OA
HETATM   28  C   UNL     1       0.065  27.693  46.056  1.00  0.00     0.210 C 
ENDBRANCH  24  27
ENDBRANCH  19  21
ENDBRANCH  18  19
ENDBRANCH   2  18
TORSDOF 6
ENDMDL
MODEL 2
REMARK VINA RESULT:      -9.0      5.540      9.679
REMARK  6 active torsions:
REMARK  status: ('A' for Active; 'I' for Inactive)
REMARK    1  A    between atoms: C_7  and  C_8 
REMARK    2  A    between atoms: N_9  and  N_10 
REMARK       I    between atoms: N_10  and  C_11 
REMARK    3  A    between atoms: C_11  and  C_12 
REMARK    4  A    between atoms: C_12  and  N_13 
REMARK    5  A    between atoms: N_13  and  C_14 
REMARK    6  A    between atoms: C_17  and  O_18 
ROOT
HETATM    1  N   UNL     1       7.735  26.830  57.334  1.00  0.00    -0.246 N 
HETATM    2  C   UNL     1       8.075  28.147  57.050  1.00  0.00     0.250 C 
HETATM    3  O   UNL     1       8.652  28.530  56.034  1.00  0.00    -0.270 OA
HETATM    4  H   UNL     1       7.250  26.621  58.204  1.00  0.00     0.192 HD
ENDROOT
BRANCH   1   5
HETATM    5  N   UNL     1       8.113  25.847  56.474  1.00  0.00    -0.184 NA
HETATM    6  C   UNL     1       7.218  25.398  55.656  1.00  0.00     0.153 C 
BRANCH   6   7
HETATM    7  C   UNL     1       7.570  24.338  54.725  1.00  0.00     0.018 A 
HETATM    8  C   UNL     1       7.723  24.460  53.348  1.00  0.00     0.018 A 
HETATM    9  C   UNL     1       7.584  25.635  52.445  1.00  0.00     0.069 C 
HETATM   10  N   UNL     1       8.056  23.225  52.852  1.00  0.00    -0.358 N 
HETATM   11  H   UNL     1       8.227  23.020  51.876  1.00  0.00     0.166 HD
HETATM   12  C   UNL     1       8.126  22.298  53.862  1.00  0.00     0.043 A 
HETATM   13  C   UNL     1       7.827  22.962  55.051  1.00  0.00     0.004 A 
HETATM   14  C   UNL     1       8.429  20.933  53.805  1.00  0.00     0.030 A 
HETATM   15  C   UNL     1       7.828  22.213  56.249  1.00  0.00     0.014 A 
HETATM   16  C   UNL     1       8.127  20.846  56.210  1.00  0.00     0.001 A 
HETATM   17  C   UNL     1       8.424  20.217  55.004  1.00  0.00     0.002 A 
ENDBRANCH   6   7
ENDBRANCH   1   5
BRANCH   2  18
HETATM   18  C   UNL     1       7.600  29.132  58.118  1.00  0.00     0.197 C 
BRANCH  18  19
HETATM   19  N   UNL     1       8.737  29.720  58.857  1.00  0.00    -0.284 NA
HETATM   20  H   UNL     1       9.373  30.202  58.218  1.00  0.00     0.128 HD
BRANCH  19  21
HETATM   21  C   UNL     1       8.420  30.589  59.920  1.00  0.00     0.008 A 
HETATM   22  C   UNL     1       7.309  31.432  59.781  1.00  0.00     0.026 A 
HETATM   23  C   UNL     1       6.961  32.342  60.786  1.00  0.00     0.038 A 
HETATM   24  C   UNL     1       7.727  32.448  61.945  1.00  0.00     0.068 A 
HETATM   25  C   UNL     1       8.866  31.659  62.072  1.00  0.00     0.038 A 
HETATM   26  C   UNL     1       9.217  30.754  61.058  1.00  0.00     0.026 A 
BRANCH  24  27
HETATM   27  O   UNL     1       7.271  33.360  62.856  1.00  0.00    -0.356 OA
HETATM   28  C   UNL     1       7.618  33.134  64.218  1.00  0.00     0.210 C 
ENDBRANCH  24  27
ENDBRANCH  19  21
ENDBRANCH  18  19
ENDBRANCH   2  18
TORSDOF 6
ENDMDL
MODEL 3
REMARK VINA RESULT:      -9.0      1.351      1.451
REMARK  6 active torsions:
REMARK  status: ('A' for Active; 'I' for Inactive)
REMARK    1  A    between atoms: C_7  and  C_8 
REMARK    2  A    between atoms: N_9  and  N_10 
REMARK       I    between atoms: N_10  and  C_11 
REMARK    3  A    between atoms: C_11  and  C_12 
REMARK    4  A    between atoms: C_12  and  N_13 
REMARK    5  A    between atoms: N_13  and  C_14 
REMARK    6  A    between atoms: C_17  and  O_18 
ROOT
HETATM    1  N   UNL     1       5.984  26.145  51.009  1.00  0.00    -0.246 N 
HETATM    2  C   UNL     1       5.453  27.423  51.134  1.00  0.00     0.250 C 
HETATM    3  O   UNL     1       5.035  27.921  52.179  1.00  0.00    -0.270 OA
HETATM    4  H   UNL     1       6.310  25.832  50.097  1.00  0.00     0.192 HD
ENDROOT
BRANCH   1   5
HETATM    5  N   UNL     1       5.998  25.323  52.093  1.00  0.00    -0.184 NA
HETATM    6  C   UNL     1       7.142  25.098  52.651  1.00  0.00     0.153 C 
BRANCH   6   7
HETATM    7  C   UNL     1       7.212  24.216  53.804  1.00  0.00     0.018 A 
HETATM    8  C   UNL     1       6.903  24.545  55.120  1.00  0.00     0.018 A 
HETATM    9  C   UNL     1       6.435  25.820  55.729  1.00  0.00     0.069 C 
HETATM   10  N   UNL     1       7.103  23.428  55.890  1.00  0.00    -0.358 N 
HETATM   11  H   UNL     1       6.956  23.379  56.890  1.00  0.00     0.166 HD
HETATM   12  C   UNL     1       7.534  22.376  55.119  1.00  0.00     0.043 A 
HETATM   13  C   UNL     1       7.613  22.836  53.805  1.00  0.00     0.004 A 
HETATM   14  C   UNL     1       7.856  21.066  55.491  1.00  0.00     0.030 A 
HETATM   15  C   UNL     1       8.044  21.931  52.809  1.00  0.00     0.014 A 
HETATM   16  C   UNL     1       8.372  20.617  53.164  1.00  0.00     0.001 A 
HETATM   17  C   UNL     1       8.278  20.192  54.487  1.00  0.00     0.002 A 
ENDBRANCH   6   7
ENDBRANCH   1   5
BRANCH   2  18
HETATM   18  C   UNL     1       5.487  28.217  49.829  1.00  0.00     0.197 C 
BRANCH  18  19
HETATM   19  N   UNL     1       5.473  27.324  48.651  1.00  0.00    -0.284 NA
HETATM   20  H   UNL     1       5.845  26.403  48.891  1.00  0.00     0.128 HD
BRANCH  19  21
HETATM   21  C   UNL     1       4.235  27.156  47.999  1.00  0.00     0.008 A 
HETATM   22  C   UNL     1       3.460  28.294  47.738  1.00  0.00     0.026 A 
HETATM   23  C   UNL     1       2.207  28.191  47.123  1.00  0.00     0.038 A 
HETATM   24  C   UNL     1       1.686  26.947  46.774  1.00  0.00     0.068 A 
HETATM   25  C   UNL     1       2.418  25.803  47.080  1.00  0.00     0.038 A 
HETATM   26  C   UNL     1       3.671  25.910  47.705  1.00  0.00     0.026 A 
BRANCH  24  27
HETATM   27  O   UNL     1       0.463  26.983  46.165  1.00  0.00    -0.356 OA
HETATM   28  C   UNL     1      -0.269  28.198  46.269  1.00  0.00     0.210 C 
ENDBRANCH  24  27
ENDBRANCH  19  21
ENDBRANCH  18  19
ENDBRANCH   2  18
TORSDOF 6
ENDMDL
MODEL 4
REMARK VINA RESULT:      -8.9      4.535      7.450
REMARK  6 active torsions:
REMARK  status: ('A' for Active; 'I' for Inactive)
REMARK    1  A    between atoms: C_7  and  C_8 
REMARK    2  A    between atoms: N_9  and  N_10 
REMARK       I    between atoms: N_10  and  C_11 
REMARK    3  A    between atoms: C_11  and  C_12 
REMARK    4  A    between atoms: C_12  and  N_13 
REMARK    5  A    between atoms: N_13  and  C_14 
REMARK    6  A    between atoms: C_17  and  O_18 
ROOT
HETATM    1  N   UNL     1       4.867  26.295  55.412  1.00  0.00    -0.246 N 
HETATM    2  C   UNL     1       4.990  27.611  54.984  1.00  0.00     0.250 C 
HETATM    3  O   UNL     1       5.520  27.972  53.935  1.00  0.00    -0.270 OA
HETATM    4  H   UNL     1       4.401  26.103  56.296  1.00  0.00     0.192 HD
ENDROOT
BRANCH   1   5
HETATM    5  N   UNL     1       5.424  25.301  54.669  1.00  0.00    -0.184 NA
HETATM    6  C   UNL     1       6.609  24.906  55.001  1.00  0.00     0.153 C 
BRANCH   6   7
HETATM    7  C   UNL     1       7.253  23.855  54.229  1.00  0.00     0.018 A 
HETATM    8  C   UNL     1       7.624  23.917  52.890  1.00  0.00     0.018 A 
HETATM    9  C   UNL     1       7.491  25.006  51.884  1.00  0.00     0.069 C 
HETATM   10  N   UNL     1       8.197  22.716  52.557  1.00  0.00    -0.358 N 
HETATM   11  H   UNL     1       8.559  22.480  51.643  1.00  0.00     0.166 HD
HETATM   12  C   UNL     1       8.212  21.868  53.637  1.00  0.00     0.043 A 
HETATM   13  C   UNL     1       7.627  22.551  54.703  1.00  0.00     0.004 A 
HETATM   14  C   UNL     1       8.696  20.559  53.742  1.00  0.00     0.030 A 
HETATM   15  C   UNL     1       7.518  21.881  55.942  1.00  0.00     0.014 A 
HETATM   16  C   UNL     1       7.996  20.570  56.064  1.00  0.00     0.001 A 
HETATM   17  C   UNL     1       8.577  19.920  54.978  1.00  0.00     0.002 A 
ENDBRANCH   6   7
ENDBRANCH   1   5
BRANCH   2  18
HETATM   18  C   UNL     1       4.331  28.613  55.932  1.00  0.00     0.197 C 
BRANCH  18  19
HETATM   19  N   UNL     1       4.865  28.491  57.306  1.00  0.00    -0.284 NA
HETATM   20  H   UNL     1       4.742  27.539  57.658  1.00  0.00     0.128 HD
BRANCH  19  21
HETATM   21  C   UNL     1       6.205  28.876  57.501  1.00  0.00     0.008 A 
HETATM   22  C   UNL     1       6.470  30.203  57.865  1.00  0.00     0.026 A 
HETATM   23  C   UNL     1       7.782  30.658  58.042  1.00  0.00     0.038 A 
HETATM   24  C   UNL     1       8.864  29.803  57.837  1.00  0.00     0.068 A 
HETATM   25  C   UNL     1       8.619  28.499  57.419  1.00  0.00     0.038 A 
HETATM   26  C   UNL     1       7.302  28.050  57.233  1.00  0.00     0.026 A 
BRANCH  24  27
HETATM   27  O   UNL     1      10.092  30.362  58.060  1.00  0.00    -0.356 OA
HETATM   28  C   UNL     1      11.161  29.906  57.240  1.00  0.00     0.210 C 
ENDBRANCH  24  27
ENDBRANCH  19  21
ENDBRANCH  18  19
ENDBRANCH   2  18
TORSDOF 6
ENDMDL
MODEL 5
REMARK VINA RESULT:      -8.2      4.721      8.720
REMARK  6 active torsions:
REMARK  status: ('A' for Active; 'I' for Inactive)
REMARK    1  A    between atoms: C_7  and  C_8 
REMARK    2  A    between atoms: N_9  and  N_10 
REMARK       I    between atoms: N_10  and  C_11 
REMARK    3  A    between atoms: C_11  and  C_12 
REMARK    4  A    between atoms: C_12  and  N_13 
REMARK    5  A    between atoms: N_13  and  C_14 
REMARK    6  A    between atoms: C_17  and  O_18 
ROOT
HETATM    1  N   UNL     1       6.343  27.820  55.806  1.00  0.00    -0.246 N 
HETATM    2  C   UNL     1       6.713  27.545  54.495  1.00  0.00     0.250 C 
HETATM    3  O   UNL     1       7.840  27.696  54.026  1.00  0.00    -0.270 OA
HETATM    4  H   UNL     1       5.382  27.651  56.095  1.00  0.00     0.192 HD
ENDROOT
BRANCH   1   5
HETATM    5  N   UNL     1       7.257  28.364  56.653  1.00  0.00    -0.184 NA
HETATM    6  C   UNL     1       7.328  29.654  56.699  1.00  0.00     0.153 C 
BRANCH   6   7
HETATM    7  C   UNL     1       8.299  30.284  57.580  1.00  0.00     0.018 A 
HETATM    8  C   UNL     1       9.683  30.249  57.450  1.00  0.00     0.018 A 
HETATM    9  C   UNL     1      10.557  29.600  56.435  1.00  0.00     0.069 C 
HETATM   10  N   UNL     1      10.221  30.967  58.487  1.00  0.00    -0.358 N 
HETATM   11  H   UNL     1      11.210  31.109  58.642  1.00  0.00     0.166 HD
HETATM   12  C   UNL     1       9.231  31.471  59.294  1.00  0.00     0.043 A 
HETATM   13  C   UNL     1       8.012  31.061  58.754  1.00  0.00     0.004 A 
HETATM   14  C   UNL     1       9.330  32.251  60.452  1.00  0.00     0.030 A 
HETATM   15  C   UNL     1       6.827  31.453  59.416  1.00  0.00     0.014 A 
HETATM   16  C   UNL     1       6.908  32.233  60.576  1.00  0.00     0.001 A 
HETATM   17  C   UNL     1       8.143  32.625  61.085  1.00  0.00     0.002 A 
ENDBRANCH   6   7
ENDBRANCH   1   5
BRANCH   2  18
HETATM   18  C   UNL     1       5.574  26.957  53.663  1.00  0.00     0.197 C 
BRANCH  18  19
HETATM   19  N   UNL     1       5.170  25.625  54.160  1.00  0.00    -0.284 NA
HETATM   20  H   UNL     1       4.365  25.273  53.637  1.00  0.00     0.128 HD
BRANCH  19  21
HETATM   21  C   UNL     1       6.165  24.628  54.183  1.00  0.00     0.008 A 
HETATM   22  C   UNL     1       6.630  24.125  52.961  1.00  0.00     0.026 A 
HETATM   23  C   UNL     1       7.594  23.111  52.915  1.00  0.00     0.038 A 
HETATM   24  C   UNL     1       8.100  22.558  54.090  1.00  0.00     0.068 A 
HETATM   25  C   UNL     1       7.605  23.006  55.311  1.00  0.00     0.038 A 
HETATM   26  C   UNL     1       6.632  24.017  55.352  1.00  0.00     0.026 A 
BRANCH  24  27
HETATM   27  O   UNL     1       9.048  21.589  53.911  1.00  0.00    -0.356 OA
HETATM   28  C   UNL     1       8.752  20.299  54.434  1.00  0.00     0.210 C 
ENDBRANCH  24  27
ENDBRANCH  19  21
ENDBRANCH  18  19
ENDBRANCH   2  18
TORSDOF 6
ENDMDL
MODEL 6
REMARK VINA RESULT:      -8.1      5.218      9.271
REMARK  6 active torsions:
REMARK  status: ('A' for Active; 'I' for Inactive)
REMARK    1  A    between atoms: C_7  and  C_8 
REMARK    2  A    between atoms: N_9  and  N_10 
REMARK       I    between atoms: N_10  and  C_11 
REMARK    3  A    between atoms: C_11  and  C_12 
REMARK    4  A    between atoms: C_12  and  N_13 
REMARK    5  A    between atoms: N_13  and  C_14 
REMARK    6  A    between atoms: C_17  and  O_18 
ROOT
HETATM    1  N   UNL     1       6.936  28.111  56.360  1.00  0.00    -0.246 N 
HETATM    2  C   UNL     1       6.036  27.934  55.316  1.00  0.00     0.250 C 
HETATM    3  O   UNL     1       4.977  28.544  55.177  1.00  0.00    -0.270 OA
HETATM    4  H   UNL     1       7.790  27.558  56.376  1.00  0.00     0.192 HD
ENDROOT
BRANCH   1   5
HETATM    5  N   UNL     1       6.624  28.973  57.365  1.00  0.00    -0.184 NA
HETATM    6  C   UNL     1       7.332  30.050  57.463  1.00  0.00     0.153 C 
BRANCH   6   7
HETATM    7  C   UNL     1       7.046  30.997  58.529  1.00  0.00     0.018 A 
HETATM    8  C   UNL     1       6.014  31.929  58.557  1.00  0.00     0.018 A 
HETATM    9  C   UNL     1       4.943  32.236  57.570  1.00  0.00     0.069 C 
HETATM   10  N   UNL     1       6.103  32.619  59.739  1.00  0.00    -0.358 N 
HETATM   11  H   UNL     1       5.477  33.360  60.025  1.00  0.00     0.166 HD
HETATM   12  C   UNL     1       7.162  32.168  60.487  1.00  0.00     0.043 A 
HETATM   13  C   UNL     1       7.776  31.150  59.757  1.00  0.00     0.004 A 
HETATM   14  C   UNL     1       7.615  32.587  61.743  1.00  0.00     0.030 A 
HETATM   15  C   UNL     1       8.910  30.521  60.319  1.00  0.00     0.014 A 
HETATM   16  C   UNL     1       9.377  30.929  61.575  1.00  0.00     0.001 A 
HETATM   17  C   UNL     1       8.736  31.948  62.275  1.00  0.00     0.002 A 
ENDBRANCH   6   7
ENDBRANCH   1   5
BRANCH   2  18
HETATM   18  C   UNL     1       6.516  26.921  54.277  1.00  0.00     0.197 C 
BRANCH  18  19
HETATM   19  N   UNL     1       5.739  25.665  54.344  1.00  0.00    -0.284 NA
HETATM   20  H   UNL     1       5.035  25.637  53.604  1.00  0.00     0.128 HD
BRANCH  19  21
HETATM   21  C   UNL     1       6.474  24.464  54.316  1.00  0.00     0.008 A 
HETATM   22  C   UNL     1       6.923  23.929  55.531  1.00  0.00     0.026 A 
HETATM   23  C   UNL     1       7.685  22.755  55.568  1.00  0.00     0.038 A 
HETATM   24  C   UNL     1       8.038  22.100  54.391  1.00  0.00     0.068 A 
HETATM   25  C   UNL     1       7.650  22.650  53.173  1.00  0.00     0.038 A 
HETATM   26  C   UNL     1       6.893  23.832  53.139  1.00  0.00     0.026 A 
BRANCH  24  27
HETATM   27  O   UNL     1       8.768  20.956  54.563  1.00  0.00    -0.356 OA
HETATM   28  C   UNL     1       9.110  20.610  55.900  1.00  0.00     0.210 C 
ENDBRANCH  24  27
ENDBRANCH  19  21
ENDBRANCH  18  19
ENDBRANCH   2  18
TORSDOF 6
ENDMDL
MODEL 7
REMARK VINA RESULT:      -8.0      1.817      2.200
REMARK  6 active torsions:
REMARK  status: ('A' for Active; 'I' for Inactive)
REMARK    1  A    between atoms: C_7  and  C_8 
REMARK    2  A    between atoms: N_9  and  N_10 
REMARK       I    between atoms: N_10  and  C_11 
REMARK    3  A    between atoms: C_11  and  C_12 
REMARK    4  A    between atoms: C_12  and  N_13 
REMARK    5  A    between atoms: N_13  and  C_14 
REMARK    6  A    between atoms: C_17  and  O_18 
ROOT
HETATM    1  N   UNL     1       5.206  26.140  53.259  1.00  0.00    -0.246 N 
HETATM    2  C   UNL     1       5.488  26.279  51.906  1.00  0.00     0.250 C 
HETATM    3  O   UNL     1       6.148  25.490  51.231  1.00  0.00    -0.270 OA
HETATM    4  H   UNL     1       4.642  26.849  53.723  1.00  0.00     0.192 HD
ENDROOT
BRANCH   1   5
HETATM    5  N   UNL     1       5.740  25.093  53.944  1.00  0.00    -0.184 NA
HETATM    6  C   UNL     1       6.979  25.188  54.302  1.00  0.00     0.153 C 
BRANCH   6   7
HETATM    7  C   UNL     1       7.598  24.089  55.025  1.00  0.00     0.018 A 
HETATM    8  C   UNL     1       8.013  24.098  56.353  1.00  0.00     0.018 A 
HETATM    9  C   UNL     1       7.959  25.165  57.390  1.00  0.00     0.069 C 
HETATM   10  N   UNL     1       8.542  22.865  56.636  1.00  0.00    -0.358 N 
HETATM   11  H   UNL     1       8.923  22.590  57.532  1.00  0.00     0.166 HD
HETATM   12  C   UNL     1       8.488  22.048  55.534  1.00  0.00     0.043 A 
HETATM   13  C   UNL     1       7.901  22.784  54.505  1.00  0.00     0.004 A 
HETATM   14  C   UNL     1       8.913  20.723  55.380  1.00  0.00     0.030 A 
HETATM   15  C   UNL     1       7.736  22.157  53.250  1.00  0.00     0.014 A 
HETATM   16  C   UNL     1       8.159  20.833  53.077  1.00  0.00     0.001 A 
HETATM   17  C   UNL     1       8.738  20.128  54.129  1.00  0.00     0.002 A 
ENDBRANCH   6   7
ENDBRANCH   1   5
BRANCH   2  18
HETATM   18  C   UNL     1       4.836  27.512  51.282  1.00  0.00     0.197 C 
BRANCH  18  19
HETATM   19  N   UNL     1       3.847  27.138  50.249  1.00  0.00    -0.284 NA
HETATM   20  H   UNL     1       2.933  26.958  50.672  1.00  0.00     0.128 HD
BRANCH  19  21
HETATM   21  C   UNL     1       3.679  28.037  49.178  1.00  0.00     0.008 A 
HETATM   22  C   UNL     1       4.797  28.353  48.394  1.00  0.00     0.026 A 
HETATM   23  C   UNL     1       4.704  29.264  47.335  1.00  0.00     0.038 A 
HETATM   24  C   UNL     1       3.498  29.899  47.047  1.00  0.00     0.068 A 
HETATM   25  C   UNL     1       2.394  29.640  47.853  1.00  0.00     0.038 A 
HETATM   26  C   UNL     1       2.493  28.732  48.920  1.00  0.00     0.026 A 
BRANCH  24  27
HETATM   27  O   UNL     1       3.535  30.752  45.979  1.00  0.00    -0.356 OA
HETATM   28  C   UNL     1       4.799  31.317  45.653  1.00  0.00     0.210 C 
ENDBRANCH  24  27
ENDBRANCH  19  21
ENDBRANCH  18  19
ENDBRANCH   2  18
TORSDOF 6
ENDMDL
MODEL 8
REMARK VINA RESULT:      -7.9      2.475      2.988
REMARK  6 active torsions:
REMARK  status: ('A' for Active; 'I' for Inactive)
REMARK    1  A    between atoms: C_7  and  C_8 
REMARK    2  A    between atoms: N_9  and  N_10 
REMARK       I    between atoms: N_10  and  C_11 
REMARK    3  A    between atoms: C_11  and  C_12 
REMARK    4  A    between atoms: C_12  and  N_13 
REMARK    5  A    between atoms: N_13  and  C_14 
REMARK    6  A    between atoms: C_17  and  O_18 
ROOT
HETATM    1  N   UNL     1       5.341  26.750  53.807  1.00  0.00    -0.246 N 
HETATM    2  C   UNL     1       4.729  27.816  54.454  1.00  0.00     0.250 C 
HETATM    3  O   UNL     1       4.599  27.931  55.672  1.00  0.00    -0.270 OA
HETATM    4  H   UNL     1       5.403  26.756  52.792  1.00  0.00     0.192 HD
ENDROOT
BRANCH   1   5
HETATM    5  N   UNL     1       5.789  25.696  54.543  1.00  0.00    -0.184 NA
HETATM    6  C   UNL     1       7.020  25.339  54.378  1.00  0.00     0.153 C 
BRANCH   6   7
HETATM    7  C   UNL     1       7.542  24.211  55.132  1.00  0.00     0.018 A 
HETATM    8  C   UNL     1       7.883  24.200  56.481  1.00  0.00     0.018 A 
HETATM    9  C   UNL     1       7.826  25.268  57.516  1.00  0.00     0.069 C 
HETATM   10  N   UNL     1       8.332  22.942  56.791  1.00  0.00    -0.358 N 
HETATM   11  H   UNL     1       8.648  22.648  57.706  1.00  0.00     0.166 HD
HETATM   12  C   UNL     1       8.297  22.127  55.686  1.00  0.00     0.043 A 
HETATM   13  C   UNL     1       7.807  22.891  54.628  1.00  0.00     0.004 A 
HETATM   14  C   UNL     1       8.663  20.783  55.552  1.00  0.00     0.030 A 
HETATM   15  C   UNL     1       7.680  22.272  53.364  1.00  0.00     0.014 A 
HETATM   16  C   UNL     1       8.043  20.928  53.212  1.00  0.00     0.001 A 
HETATM   17  C   UNL     1       8.527  20.196  54.293  1.00  0.00     0.002 A 
ENDBRANCH   6   7
ENDBRANCH   1   5
BRANCH   2  18
HETATM   18  C   UNL     1       4.262  28.909  53.494  1.00  0.00     0.197 C 
BRANCH  18  19
HETATM   19  N   UNL     1       5.391  29.480  52.731  1.00  0.00    -0.284 NA
HETATM   20  H   UNL     1       6.256  28.974  52.933  1.00  0.00     0.128 HD
BRANCH  19  21
HETATM   21  C   UNL     1       5.234  29.564  51.333  1.00  0.00     0.008 A 
HETATM   22  C   UNL     1       4.931  28.392  50.626  1.00  0.00     0.026 A 
HETATM   23  C   UNL     1       4.794  28.402  49.233  1.00  0.00     0.038 A 
HETATM   24  C   UNL     1       4.979  29.578  48.509  1.00  0.00     0.068 A 
HETATM   25  C   UNL     1       5.337  30.736  49.191  1.00  0.00     0.038 A 
HETATM   26  C   UNL     1       5.482  30.721  50.587  1.00  0.00     0.026 A 
BRANCH  24  27
HETATM   27  O   UNL     1       4.800  29.458  47.159  1.00  0.00    -0.356 OA
HETATM   28  C   UNL     1       4.274  30.593  46.480  1.00  0.00     0.210 C 
ENDBRANCH  24  27
ENDBRANCH  19  21
ENDBRANCH  18  19
ENDBRANCH   2  18
TORSDOF 6
ENDMDL
MODEL 9
REMARK VINA RESULT:      -7.7      1.383      2.994
REMARK  6 active torsions:
REMARK  status: ('A' for Active; 'I' for Inactive)
REMARK    1  A    between atoms: C_7  and  C_8 
REMARK    2  A    between atoms: N_9  and  N_10 
REMARK       I    between atoms: N_10  and  C_11 
REMARK    3  A    between atoms: C_11  and  C_12 
REMARK    4  A    between atoms: C_12  and  N_13 
REMARK    5  A    between atoms: N_13  and  C_14 
REMARK    6  A    between atoms: C_17  and  O_18 
ROOT
HETATM    1  N   UNL     1       5.996  25.652  51.139  1.00  0.00    -0.246 N 
HETATM    2  C   UNL     1       5.158  26.759  51.103  1.00  0.00     0.250 C 
HETATM    3  O   UNL     1       4.701  27.339  52.087  1.00  0.00    -0.270 OA
HETATM    4  H   UNL     1       6.326  25.251  50.264  1.00  0.00     0.192 HD
ENDROOT
BRANCH   1   5
HETATM    5  N   UNL     1       6.307  25.094  52.341  1.00  0.00    -0.184 NA
HETATM    6  C   UNL     1       7.430  24.460  52.428  1.00  0.00     0.153 C 
BRANCH   6   7
HETATM    7  C   UNL     1       7.800  23.835  53.687  1.00  0.00     0.018 A 
HETATM    8  C   UNL     1       8.107  22.494  53.890  1.00  0.00     0.018 A 
HETATM    9  C   UNL     1       8.152  21.344  52.946  1.00  0.00     0.069 C 
HETATM   10  N   UNL     1       8.400  22.326  55.220  1.00  0.00    -0.358 N 
HETATM   11  H   UNL     1       8.659  21.448  55.650  1.00  0.00     0.166 HD
HETATM   12  C   UNL     1       8.295  23.517  55.895  1.00  0.00     0.043 A 
HETATM   13  C   UNL     1       7.920  24.485  54.963  1.00  0.00     0.004 A 
HETATM   14  C   UNL     1       8.501  23.800  57.250  1.00  0.00     0.030 A 
HETATM   15  C   UNL     1       7.738  25.810  55.419  1.00  0.00     0.014 A 
HETATM   16  C   UNL     1       7.939  26.111  56.772  1.00  0.00     0.001 A 
HETATM   17  C   UNL     1       8.316  25.118  57.673  1.00  0.00     0.002 A 
ENDBRANCH   6   7
ENDBRANCH   1   5
BRANCH   2  18
HETATM   18  C   UNL     1       4.886  27.258  49.684  1.00  0.00     0.197 C 
BRANCH  18  19
HETATM   19  N   UNL     1       3.878  28.338  49.673  1.00  0.00    -0.284 NA
HETATM   20  H   UNL     1       4.326  29.249  49.547  1.00  0.00     0.128 HD
BRANCH  19  21
HETATM   21  C   UNL     1       2.831  28.218  48.738  1.00  0.00     0.008 A 
HETATM   22  C   UNL     1       2.552  26.950  48.211  1.00  0.00     0.026 A 
HETATM   23  C   UNL     1       1.546  26.768  47.255  1.00  0.00     0.038 A 
HETATM   24  C   UNL     1       0.809  27.853  46.784  1.00  0.00     0.068 A 
HETATM   25  C   UNL     1       1.114  29.127  47.254  1.00  0.00     0.038 A 
HETATM   26  C   UNL     1       2.130  29.306  48.207  1.00  0.00     0.026 A 
BRANCH  24  27
HETATM   27  O   UNL     1      -0.155  27.541  45.866  1.00  0.00    -0.356 OA
HETATM   28  C   UNL     1      -1.284  28.405  45.804  1.00  0.00     0.210 C 
ENDBRANCH  24  27
ENDBRANCH  19  21
ENDBRANCH  18  19
ENDBRANCH   2  18
TORSDOF 6
ENDMDL
MODEL 10
REMARK VINA RESULT:      -7.7      2.236     10.012
REMARK  6 active torsions:
REMARK  status: ('A' for Active; 'I' for Inactive)
REMARK    1  A    between atoms: C_7  and  C_8 
REMARK    2  A    between atoms: N_9  and  N_10 
REMARK       I    between atoms: N_10  and  C_11 
REMARK    3  A    between atoms: C_11  and  C_12 
REMARK    4  A    between atoms: C_12  and  N_13 
REMARK    5  A    between atoms: N_13  and  C_14 
REMARK    6  A    between atoms: C_17  and  O_18 
ROOT
HETATM    1  N   UNL     1       5.747  26.581  50.615  1.00  0.00    -0.246 N 
HETATM    2  C   UNL     1       5.711  26.590  52.003  1.00  0.00     0.250 C 
HETATM    3  O   UNL     1       4.700  26.739  52.688  1.00  0.00    -0.270 OA
HETATM    4  H   UNL     1       6.639  26.442  50.144  1.00  0.00     0.192 HD
ENDROOT
BRANCH   1   5
HETATM    5  N   UNL     1       4.603  26.820  49.919  1.00  0.00    -0.184 NA
HETATM    6  C   UNL     1       4.723  27.166  48.680  1.00  0.00     0.153 C 
BRANCH   6   7
HETATM    7  C   UNL     1       3.529  27.445  47.898  1.00  0.00     0.018 A 
HETATM    8  C   UNL     1       2.730  26.513  47.242  1.00  0.00     0.018 A 
HETATM    9  C   UNL     1       2.834  25.032  47.138  1.00  0.00     0.069 C 
HETATM   10  N   UNL     1       1.711  27.194  46.627  1.00  0.00    -0.358 N 
HETATM   11  H   UNL     1       0.979  26.766  46.076  1.00  0.00     0.166 HD
HETATM   12  C   UNL     1       1.817  28.543  46.858  1.00  0.00     0.043 A 
HETATM   13  C   UNL     1       2.948  28.735  47.652  1.00  0.00     0.004 A 
HETATM   14  C   UNL     1       1.001  29.594  46.423  1.00  0.00     0.030 A 
HETATM   15  C   UNL     1       3.279  30.057  48.027  1.00  0.00     0.014 A 
HETATM   16  C   UNL     1       2.474  31.120  47.599  1.00  0.00     0.001 A 
HETATM   17  C   UNL     1       1.351  30.889  46.809  1.00  0.00     0.002 A 
ENDBRANCH   6   7
ENDBRANCH   1   5
BRANCH   2  18
HETATM   18  C   UNL     1       7.075  26.327  52.640  1.00  0.00     0.197 C 
BRANCH  18  19
HETATM   19  N   UNL     1       6.941  25.689  53.966  1.00  0.00    -0.284 NA
HETATM   20  H   UNL     1       6.000  25.828  54.341  1.00  0.00     0.128 HD
BRANCH  19  21
HETATM   21  C   UNL     1       7.260  24.319  54.045  1.00  0.00     0.008 A 
HETATM   22  C   UNL     1       7.337  23.725  55.312  1.00  0.00     0.026 A 
HETATM   23  C   UNL     1       7.681  22.376  55.460  1.00  0.00     0.038 A 
HETATM   24  C   UNL     1       7.979  21.593  54.347  1.00  0.00     0.068 A 
HETATM   25  C   UNL     1       7.964  22.183  53.087  1.00  0.00     0.038 A 
HETATM   26  C   UNL     1       7.627  23.538  52.943  1.00  0.00     0.026 A 
BRANCH  24  27
HETATM   27  O   UNL     1       8.283  20.289  54.624  1.00  0.00    -0.356 OA
HETATM   28  C   UNL     1       8.465  19.950  55.994  1.00  0.00     0.210 C 
ENDBRANCH  24  27
ENDBRANCH  19  21
ENDBRANCH  18  19
ENDBRANCH   2  18
TORSDOF 6
ENDMDL
