MODEL 1
REMARK VINA RESULT:     -10.8      0.000      0.000
REMARK  7 active torsions:
REMARK  status: ('A' for Active; 'I' for Inactive)
REMARK    1  A    between atoms: N_2  and  C_4 
REMARK    2  A    between atoms: N_2  and  C_23 
REMARK    3  A    between atoms: C_4  and  C_5 
REMARK       I    between atoms: C_5  and  N_6 
REMARK    4  A    between atoms: N_6  and  C_7 
REMARK    5  A    between atoms: C_8  and  O_9 
REMARK    6  A    between atoms: C_23  and  C_24 
REMARK       I    between atoms: C_24  and  N_25 
REMARK    7  A    between atoms: N_25  and  C_26 
ROOT
HETATM    1  C   UNL     1       6.120  28.561  56.544  1.00  0.00     0.248 C 
HETATM    2  N   UNL     1       7.185  28.144  55.795  1.00  0.00    -0.323 N 
HETATM    3  O   UNL     1       5.338  27.857  57.187  1.00  0.00    -0.271 OA
HETATM    4  H   UNL     1       7.938  28.798  55.583  1.00  0.00     0.169 HD
ENDROOT
BRANCH   1   5
HETATM    5  C   UNL     1       5.941  30.079  56.644  1.00  0.00     0.337 C 
BRANCH   5   6
HETATM    6  N   UNL     1       6.017  30.484  58.129  1.00  0.00    -0.058 N 
HETATM    7  C   UNL     1       5.102  31.614  58.465  1.00  0.00     0.270 C 
HETATM    8  H   UNL     1       5.657  29.637  58.609  1.00  0.00     0.280 HD
BRANCH   6   9
HETATM    9  C   UNL     1       7.439  30.712  58.641  1.00  0.00     0.337 C 
BRANCH   9  10
HETATM   10  C   UNL     1       7.548  31.668  59.834  1.00  0.00     0.248 C 
HETATM   11  N   UNL     1       6.942  31.226  60.994  1.00  0.00    -0.326 N 
HETATM   12  H   UNL     1       6.632  30.260  61.047  1.00  0.00     0.169 HD
HETATM   13  O   UNL     1       8.235  32.683  59.724  1.00  0.00    -0.271 OA
BRANCH  11  14
HETATM   14  C   UNL     1       6.828  31.956  62.200  1.00  0.00     0.036 A 
HETATM   15  C   UNL     1       5.623  32.481  62.676  1.00  0.00     0.055 A 
HETATM   16  C   UNL     1       5.580  33.179  63.892  1.00  0.00     0.058 A 
HETATM   17 CL   UNL     1       4.047  33.788  64.408  1.00  0.00    -0.082 Cl
HETATM   18  C   UNL     1       6.745  33.356  64.641  1.00  0.00     0.055 A 
HETATM   19 CL   UNL     1       6.766  34.206  66.142  1.00  0.00    -0.083 Cl
HETATM   20  C   UNL     1       7.949  32.828  64.172  1.00  0.00     0.028 A 
HETATM   21  C   UNL     1       7.989  32.127  62.962  1.00  0.00     0.031 A 
ENDBRANCH  11  14
ENDBRANCH   9  10
ENDBRANCH   6   9
ENDBRANCH   5   6
ENDBRANCH   1   5
BRANCH   2  22
HETATM   22  C   UNL     1       7.470  26.824  55.377  1.00  0.00     0.071 A 
HETATM   23  C   UNL     1       7.322  26.560  54.003  1.00  0.00     0.096 A 
HETATM   24  C   UNL     1       7.451  25.267  53.474  1.00  0.00     0.054 A 
HETATM   25  C   UNL     1       7.773  24.222  54.360  1.00  0.00     0.014 A 
HETATM   26  C   UNL     1       7.964  24.525  55.703  1.00  0.00     0.089 A 
HETATM   27  C   UNL     1       7.951  22.810  54.249  1.00  0.00     0.011 A 
HETATM   28  O   UNL     1       8.273  23.403  56.408  1.00  0.00    -0.309 OA
HETATM   29  C   UNL     1       7.832  25.801  56.256  1.00  0.00     0.070 A 
HETATM   30  C   UNL     1       8.258  22.363  55.530  1.00  0.00     0.087 A 
HETATM   31  C   UNL     1       8.504  21.031  55.855  1.00  0.00     0.038 A 
HETATM   32  C   UNL     1       8.420  20.105  54.810  1.00  0.00     0.003 A 
HETATM   33  C   UNL     1       8.108  20.513  53.510  1.00  0.00     0.001 A 
HETATM   34  C   UNL     1       7.873  21.862  53.211  1.00  0.00     0.015 A 
BRANCH  23  35
HETATM   35  O   UNL     1       6.993  27.628  53.195  1.00  0.00    -0.354 OA
HETATM   36  C   UNL     1       5.749  27.405  52.525  1.00  0.00     0.210 C 
ENDBRANCH  23  35
ENDBRANCH   2  22
TORSDOF 7
ENDMDL
MODEL 2
REMARK VINA RESULT:     -10.5      4.531     11.027
REMARK  7 active torsions:
REMARK  status: ('A' for Active; 'I' for Inactive)
REMARK    1  A    between atoms: N_2  and  C_4 
REMARK    2  A    between atoms: N_2  and  C_23 
REMARK    3  A    between atoms: C_4  and  C_5 
REMARK       I    between atoms: C_5  and  N_6 
REMARK    4  A    between atoms: N_6  and  C_7 
REMARK    5  A    between atoms: C_8  and  O_9 
REMARK    6  A    between atoms: C_23  and  C_24 
REMARK       I    between atoms: C_24  and  N_25 
REMARK    7  A    between atoms: N_25  and  C_26 
ROOT
HETATM    1  C   UNL     1       5.038  30.277  56.634  1.00  0.00     0.248 C 
HETATM    2  N   UNL     1       6.232  30.821  57.018  1.00  0.00    -0.323 N 
HETATM    3  O   UNL     1       3.960  30.344  57.229  1.00  0.00    -0.271 OA
HETATM    4  H   UNL     1       6.957  30.987  56.321  1.00  0.00     0.169 HD
ENDROOT
BRANCH   1   5
HETATM    5  C   UNL     1       5.045  29.573  55.274  1.00  0.00     0.337 C 
BRANCH   5   6
HETATM    6  N   UNL     1       6.371  28.800  55.130  1.00  0.00    -0.058 N 
HETATM    7  C   UNL     1       6.619  28.338  53.733  1.00  0.00     0.270 C 
HETATM    8  H   UNL     1       7.077  29.529  55.348  1.00  0.00     0.280 HD
BRANCH   6   9
HETATM    9  C   UNL     1       6.557  27.683  56.156  1.00  0.00     0.337 C 
BRANCH   9  10
HETATM   10  C   UNL     1       6.413  26.263  55.596  1.00  0.00     0.248 C 
HETATM   11  N   UNL     1       7.600  25.574  55.442  1.00  0.00    -0.326 N 
HETATM   12  H   UNL     1       8.445  25.953  55.858  1.00  0.00     0.169 HD
HETATM   13  O   UNL     1       5.285  25.801  55.427  1.00  0.00    -0.271 OA
BRANCH  11  14
HETATM   14  C   UNL     1       7.743  24.290  54.866  1.00  0.00     0.036 A 
HETATM   15  C   UNL     1       7.692  23.101  55.600  1.00  0.00     0.055 A 
HETATM   16  C   UNL     1       7.821  21.860  54.959  1.00  0.00     0.058 A 
HETATM   17 CL   UNL     1       7.740  20.442  55.944  1.00  0.00    -0.082 Cl
HETATM   18  C   UNL     1       8.002  21.801  53.575  1.00  0.00     0.055 A 
HETATM   19 CL   UNL     1       8.172  20.311  52.723  1.00  0.00    -0.083 Cl
HETATM   20  C   UNL     1       8.047  22.985  52.839  1.00  0.00     0.028 A 
HETATM   21  C   UNL     1       7.912  24.222  53.479  1.00  0.00     0.031 A 
ENDBRANCH  11  14
ENDBRANCH   9  10
ENDBRANCH   6   9
ENDBRANCH   5   6
ENDBRANCH   1   5
BRANCH   2  22
HETATM   22  C   UNL     1       6.559  31.349  58.288  1.00  0.00     0.071 A 
HETATM   23  C   UNL     1       7.659  30.763  58.942  1.00  0.00     0.096 A 
HETATM   24  C   UNL     1       8.015  31.103  60.255  1.00  0.00     0.054 A 
HETATM   25  C   UNL     1       7.255  32.091  60.908  1.00  0.00     0.014 A 
HETATM   26  C   UNL     1       6.208  32.689  60.216  1.00  0.00     0.089 A 
HETATM   27  C   UNL     1       7.252  32.683  62.207  1.00  0.00     0.011 A 
HETATM   28  O   UNL     1       5.590  33.620  60.993  1.00  0.00    -0.309 OA
HETATM   29  C   UNL     1       5.826  32.361  58.913  1.00  0.00     0.070 A 
HETATM   30  C   UNL     1       6.217  33.611  62.201  1.00  0.00     0.087 A 
HETATM   31  C   UNL     1       5.874  34.408  63.291  1.00  0.00     0.038 A 
HETATM   32  C   UNL     1       6.631  34.235  64.455  1.00  0.00     0.003 A 
HETATM   33  C   UNL     1       7.676  33.308  64.505  1.00  0.00     0.001 A 
HETATM   34  C   UNL     1       8.003  32.526  63.388  1.00  0.00     0.015 A 
BRANCH  23  35
HETATM   35  O   UNL     1       8.351  29.792  58.247  1.00  0.00    -0.354 OA
HETATM   36  C   UNL     1       9.716  30.170  58.051  1.00  0.00     0.210 C 
ENDBRANCH  23  35
ENDBRANCH   2  22
TORSDOF 7
ENDMDL
MODEL 3
REMARK VINA RESULT:     -10.4      2.084      2.719
REMARK  7 active torsions:
REMARK  status: ('A' for Active; 'I' for Inactive)
REMARK    1  A    between atoms: N_2  and  C_4 
REMARK    2  A    between atoms: N_2  and  C_23 
REMARK    3  A    between atoms: C_4  and  C_5 
REMARK       I    between atoms: C_5  and  N_6 
REMARK    4  A    between atoms: N_6  and  C_7 
REMARK    5  A    between atoms: C_8  and  O_9 
REMARK    6  A    between atoms: C_23  and  C_24 
REMARK       I    between atoms: C_24  and  N_25 
REMARK    7  A    between atoms: N_25  and  C_26 
ROOT
HETATM    1  C   UNL     1       5.407  28.633  54.754  1.00  0.00     0.248 C 
HETATM    2  N   UNL     1       5.136  27.537  53.983  1.00  0.00    -0.323 N 
HETATM    3  O   UNL     1       6.441  28.866  55.384  1.00  0.00    -0.271 OA
HETATM    4  H   UNL     1       4.414  27.593  53.264  1.00  0.00     0.169 HD
ENDROOT
BRANCH   1   5
HETATM    5  C   UNL     1       4.322  29.714  54.763  1.00  0.00     0.337 C 
BRANCH   5   6
HETATM    6  N   UNL     1       4.390  30.463  56.109  1.00  0.00    -0.058 N 
HETATM    7  C   UNL     1       3.133  30.331  56.903  1.00  0.00     0.270 C 
HETATM    8  H   UNL     1       5.134  29.945  56.614  1.00  0.00     0.280 HD
BRANCH   6   9
HETATM    9  C   UNL     1       4.858  31.913  55.994  1.00  0.00     0.337 C 
BRANCH   9  10
HETATM   10  C   UNL     1       5.400  32.520  57.293  1.00  0.00     0.248 C 
HETATM   11  N   UNL     1       6.016  31.623  58.144  1.00  0.00    -0.326 N 
HETATM   12  H   UNL     1       6.231  30.692  57.802  1.00  0.00     0.169 HD
HETATM   13  O   UNL     1       5.352  33.740  57.445  1.00  0.00    -0.271 OA
BRANCH  11  14
HETATM   14  C   UNL     1       6.516  31.916  59.434  1.00  0.00     0.036 A 
HETATM   15  C   UNL     1       7.865  31.813  59.784  1.00  0.00     0.055 A 
HETATM   16  C   UNL     1       8.294  32.139  61.079  1.00  0.00     0.058 A 
HETATM   17 CL   UNL     1       9.981  31.988  61.423  1.00  0.00    -0.082 Cl
HETATM   18  C   UNL     1       7.372  32.573  62.035  1.00  0.00     0.055 A 
HETATM   19 CL   UNL     1       7.827  32.987  63.646  1.00  0.00    -0.083 Cl
HETATM   20  C   UNL     1       6.025  32.684  61.687  1.00  0.00     0.028 A 
HETATM   21  C   UNL     1       5.600  32.363  60.393  1.00  0.00     0.031 A 
ENDBRANCH  11  14
ENDBRANCH   9  10
ENDBRANCH   6   9
ENDBRANCH   5   6
ENDBRANCH   1   5
BRANCH   2  22
HETATM   22  C   UNL     1       5.856  26.322  53.945  1.00  0.00     0.071 A 
HETATM   23  C   UNL     1       6.313  25.908  52.679  1.00  0.00     0.096 A 
HETATM   24  C   UNL     1       6.931  24.665  52.479  1.00  0.00     0.054 A 
HETATM   25  C   UNL     1       7.121  23.835  53.601  1.00  0.00     0.014 A 
HETATM   26  C   UNL     1       6.707  24.296  54.845  1.00  0.00     0.089 A 
HETATM   27  C   UNL     1       7.650  22.529  53.824  1.00  0.00     0.011 A 
HETATM   28  O   UNL     1       6.973  23.374  55.810  1.00  0.00    -0.309 OA
HETATM   29  C   UNL     1       6.080  25.524  55.069  1.00  0.00     0.070 A 
HETATM   30  C   UNL     1       7.537  22.301  55.192  1.00  0.00     0.087 A 
HETATM   31  C   UNL     1       7.940  21.127  55.825  1.00  0.00     0.038 A 
HETATM   32  C   UNL     1       8.481  20.129  55.008  1.00  0.00     0.003 A 
HETATM   33  C   UNL     1       8.607  20.316  53.628  1.00  0.00     0.001 A 
HETATM   34  C   UNL     1       8.199  21.512  53.020  1.00  0.00     0.015 A 
BRANCH  23  35
HETATM   35  O   UNL     1       6.081  26.763  51.623  1.00  0.00    -0.354 OA
HETATM   36  C   UNL     1       5.156  26.196  50.691  1.00  0.00     0.210 C 
ENDBRANCH  23  35
ENDBRANCH   2  22
TORSDOF 7
ENDMDL
MODEL 4
REMARK VINA RESULT:     -10.3      4.666     10.250
REMARK  7 active torsions:
REMARK  status: ('A' for Active; 'I' for Inactive)
REMARK    1  A    between atoms: N_2  and  C_4 
REMARK    2  A    between atoms: N_2  and  C_23 
REMARK    3  A    between atoms: C_4  and  C_5 
REMARK       I    between atoms: C_5  and  N_6 
REMARK    4  A    between atoms: N_6  and  C_7 
REMARK    5  A    between atoms: C_8  and  O_9 
REMARK    6  A    between atoms: C_23  and  C_24 
REMARK       I    between atoms: C_24  and  N_25 
REMARK    7  A    between atoms: N_25  and  C_26 
ROOT
HETATM    1  C   UNL     1       4.532  28.653  54.902  1.00  0.00     0.248 C 
HETATM    2  N   UNL     1       5.276  29.790  55.063  1.00  0.00    -0.323 N 
HETATM    3  O   UNL     1       4.189  27.855  55.776  1.00  0.00    -0.271 OA
HETATM    4  H   UNL     1       5.225  30.528  54.361  1.00  0.00     0.169 HD
ENDROOT
BRANCH   1   5
HETATM    5  C   UNL     1       4.017  28.402  53.481  1.00  0.00     0.337 C 
BRANCH   5   6
HETATM    6  N   UNL     1       5.215  28.031  52.585  1.00  0.00    -0.058 N 
HETATM    7  C   UNL     1       5.639  29.153  51.698  1.00  0.00     0.270 C 
HETATM    8  H   UNL     1       5.972  27.878  53.278  1.00  0.00     0.280 HD
BRANCH   6   9
HETATM    9  C   UNL     1       5.040  26.718  51.823  1.00  0.00     0.337 C 
BRANCH   9  10
HETATM   10  C   UNL     1       5.241  25.452  52.665  1.00  0.00     0.248 C 
HETATM   11  N   UNL     1       6.558  25.123  52.920  1.00  0.00    -0.326 N 
HETATM   12  H   UNL     1       7.283  25.801  52.705  1.00  0.00     0.169 HD
HETATM   13  O   UNL     1       4.255  24.888  53.137  1.00  0.00    -0.271 OA
BRANCH  11  14
HETATM   14  C   UNL     1       7.007  23.963  53.593  1.00  0.00     0.036 A 
HETATM   15  C   UNL     1       7.472  22.819  52.939  1.00  0.00     0.055 A 
HETATM   16  C   UNL     1       7.921  21.710  53.672  1.00  0.00     0.058 A 
HETATM   17 CL   UNL     1       8.484  20.340  52.782  1.00  0.00    -0.082 Cl
HETATM   18  C   UNL     1       7.909  21.741  55.069  1.00  0.00     0.055 A 
HETATM   19 CL   UNL     1       8.443  20.415  56.033  1.00  0.00    -0.083 Cl
HETATM   20  C   UNL     1       7.452  22.885  55.725  1.00  0.00     0.028 A 
HETATM   21  C   UNL     1       7.010  23.992  54.992  1.00  0.00     0.031 A 
ENDBRANCH  11  14
ENDBRANCH   9  10
ENDBRANCH   6   9
ENDBRANCH   5   6
ENDBRANCH   1   5
BRANCH   2  22
HETATM   22  C   UNL     1       6.028  30.162  56.200  1.00  0.00     0.071 A 
HETATM   23  C   UNL     1       7.263  29.509  56.371  1.00  0.00     0.096 A 
HETATM   24  C   UNL     1       8.051  29.691  57.516  1.00  0.00     0.054 A 
HETATM   25  C   UNL     1       7.589  30.588  58.498  1.00  0.00     0.014 A 
HETATM   26  C   UNL     1       6.391  31.257  58.274  1.00  0.00     0.089 A 
HETATM   27  C   UNL     1       8.043  31.018  59.781  1.00  0.00     0.011 A 
HETATM   28  O   UNL     1       6.102  32.083  59.317  1.00  0.00    -0.309 OA
HETATM   29  C   UNL     1       5.583  31.086  57.148  1.00  0.00     0.070 A 
HETATM   30  C   UNL     1       7.098  31.933  60.233  1.00  0.00     0.087 A 
HETATM   31  C   UNL     1       7.170  32.590  61.459  1.00  0.00     0.038 A 
HETATM   32  C   UNL     1       8.266  32.283  62.271  1.00  0.00     0.003 A 
HETATM   33  C   UNL     1       9.235  31.364  61.857  1.00  0.00     0.001 A 
HETATM   34  C   UNL     1       9.141  30.725  60.613  1.00  0.00     0.015 A 
BRANCH  23  35
HETATM   35  O   UNL     1       7.647  28.634  55.376  1.00  0.00    -0.354 OA
HETATM   36  C   UNL     1       7.832  27.313  55.893  1.00  0.00     0.210 C 
ENDBRANCH  23  35
ENDBRANCH   2  22
TORSDOF 7
ENDMDL
MODEL 5
REMARK VINA RESULT:     -10.1      1.764      2.396
REMARK  7 active torsions:
REMARK  status: ('A' for Active; 'I' for Inactive)
REMARK    1  A    between atoms: N_2  and  C_4 
REMARK    2  A    between atoms: N_2  and  C_23 
REMARK    3  A    between atoms: C_4  and  C_5 
REMARK       I    between atoms: C_5  and  N_6 
REMARK    4  A    between atoms: N_6  and  C_7 
REMARK    5  A    between atoms: C_8  and  O_9 
REMARK    6  A    between atoms: C_23  and  C_24 
REMARK       I    between atoms: C_24  and  N_25 
REMARK    7  A    between atoms: N_25  and  C_26 
ROOT
HETATM    1  C   UNL     1       5.596  28.729  56.302  1.00  0.00     0.248 C 
HETATM    2  N   UNL     1       6.840  28.263  55.976  1.00  0.00    -0.323 N 
HETATM    3  O   UNL     1       4.567  28.066  56.457  1.00  0.00    -0.271 OA
HETATM    4  H   UNL     1       7.661  28.828  56.191  1.00  0.00     0.169 HD
ENDROOT
BRANCH   1   5
HETATM    5  C   UNL     1       5.509  30.233  56.573  1.00  0.00     0.337 C 
BRANCH   5   6
HETATM    6  N   UNL     1       4.068  30.699  56.285  1.00  0.00    -0.058 N 
HETATM    7  C   UNL     1       3.816  30.921  54.830  1.00  0.00     0.270 C 
HETATM    8  H   UNL     1       3.506  29.876  56.576  1.00  0.00     0.280 HD
BRANCH   6   9
HETATM    9  C   UNL     1       3.609  31.877  57.143  1.00  0.00     0.337 C 
BRANCH   9  10
HETATM   10  C   UNL     1       4.091  31.840  58.598  1.00  0.00     0.248 C 
HETATM   11  N   UNL     1       5.172  32.654  58.876  1.00  0.00    -0.326 N 
HETATM   12  H   UNL     1       5.460  33.338  58.183  1.00  0.00     0.169 HD
HETATM   13  O   UNL     1       3.444  31.196  59.424  1.00  0.00    -0.271 OA
BRANCH  11  14
HETATM   14  C   UNL     1       5.854  32.731  60.113  1.00  0.00     0.036 A 
HETATM   15  C   UNL     1       7.101  32.145  60.348  1.00  0.00     0.055 A 
HETATM   16  C   UNL     1       7.729  32.280  61.594  1.00  0.00     0.058 A 
HETATM   17 CL   UNL     1       9.272  31.527  61.796  1.00  0.00    -0.082 Cl
HETATM   18  C   UNL     1       7.112  33.005  62.617  1.00  0.00     0.055 A 
HETATM   19 CL   UNL     1       7.825  33.208  64.174  1.00  0.00    -0.083 Cl
HETATM   20  C   UNL     1       5.870  33.597  62.383  1.00  0.00     0.028 A 
HETATM   21  C   UNL     1       5.248  33.467  61.137  1.00  0.00     0.031 A 
ENDBRANCH  11  14
ENDBRANCH   9  10
ENDBRANCH   6   9
ENDBRANCH   5   6
ENDBRANCH   1   5
BRANCH   2  22
HETATM   22  C   UNL     1       7.169  26.976  55.492  1.00  0.00     0.071 A 
HETATM   23  C   UNL     1       7.307  26.852  54.097  1.00  0.00     0.096 A 
HETATM   24  C   UNL     1       7.508  25.611  53.475  1.00  0.00     0.054 A 
HETATM   25  C   UNL     1       7.607  24.471  54.295  1.00  0.00     0.014 A 
HETATM   26  C   UNL     1       7.520  24.635  55.673  1.00  0.00     0.089 A 
HETATM   27  C   UNL     1       7.765  23.069  54.078  1.00  0.00     0.011 A 
HETATM   28  O   UNL     1       7.642  23.437  56.307  1.00  0.00    -0.309 OA
HETATM   29  C   UNL     1       7.309  25.857  56.316  1.00  0.00     0.070 A 
HETATM   30  C   UNL     1       7.783  22.488  55.342  1.00  0.00     0.087 A 
HETATM   31  C   UNL     1       7.917  21.120  55.571  1.00  0.00     0.038 A 
HETATM   32  C   UNL     1       8.030  20.304  54.441  1.00  0.00     0.003 A 
HETATM   33  C   UNL     1       8.010  20.848  53.154  1.00  0.00     0.001 A 
HETATM   34  C   UNL     1       7.881  22.230  52.954  1.00  0.00     0.015 A 
BRANCH  23  35
HETATM   35  O   UNL     1       7.185  28.007  53.354  1.00  0.00    -0.354 OA
HETATM   36  C   UNL     1       6.008  27.977  52.541  1.00  0.00     0.210 C 
ENDBRANCH  23  35
ENDBRANCH   2  22
TORSDOF 7
ENDMDL
MODEL 6
REMARK VINA RESULT:     -10.0      5.978      8.523
REMARK  7 active torsions:
REMARK  status: ('A' for Active; 'I' for Inactive)
REMARK    1  A    between atoms: N_2  and  C_4 
REMARK    2  A    between atoms: N_2  and  C_23 
REMARK    3  A    between atoms: C_4  and  C_5 
REMARK       I    between atoms: C_5  and  N_6 
REMARK    4  A    between atoms: N_6  and  C_7 
REMARK    5  A    between atoms: C_8  and  O_9 
REMARK    6  A    between atoms: C_23  and  C_24 
REMARK       I    between atoms: C_24  and  N_25 
REMARK    7  A    between atoms: N_25  and  C_26 
ROOT
HETATM    1  C   UNL     1       5.234  28.325  55.225  1.00  0.00     0.248 C 
HETATM    2  N   UNL     1       4.798  27.047  55.010  1.00  0.00    -0.323 N 
HETATM    3  O   UNL     1       6.357  28.780  54.995  1.00  0.00    -0.271 OA
HETATM    4  H   UNL     1       3.799  26.864  54.924  1.00  0.00     0.169 HD
ENDROOT
BRANCH   1   5
HETATM    5  C   UNL     1       4.174  29.303  55.740  1.00  0.00     0.337 C 
BRANCH   5   6
HETATM    6  N   UNL     1       4.474  30.699  55.159  1.00  0.00    -0.058 N 
HETATM    7  C   UNL     1       5.058  31.629  56.170  1.00  0.00     0.270 C 
HETATM    8  H   UNL     1       5.212  30.495  54.460  1.00  0.00     0.280 HD
BRANCH   6   9
HETATM    9  C   UNL     1       3.303  31.323  54.400  1.00  0.00     0.337 C 
BRANCH   9  10
HETATM   10  C   UNL     1       3.320  31.089  52.885  1.00  0.00     0.248 C 
HETATM   11  N   UNL     1       2.862  29.850  52.481  1.00  0.00    -0.326 N 
HETATM   12  H   UNL     1       2.389  29.258  53.157  1.00  0.00     0.169 HD
HETATM   13  O   UNL     1       3.626  32.021  52.142  1.00  0.00    -0.271 OA
BRANCH  11  14
HETATM   14  C   UNL     1       2.859  29.361  51.154  1.00  0.00     0.036 A 
HETATM   15  C   UNL     1       4.019  29.150  50.403  1.00  0.00     0.055 A 
HETATM   16  C   UNL     1       3.943  28.642  49.098  1.00  0.00     0.058 A 
HETATM   17 CL   UNL     1       5.428  28.407  48.245  1.00  0.00    -0.082 Cl
HETATM   18  C   UNL     1       2.701  28.340  48.534  1.00  0.00     0.055 A 
HETATM   19 CL   UNL     1       2.532  27.717  46.935  1.00  0.00    -0.083 Cl
HETATM   20  C   UNL     1       1.541  28.543  49.283  1.00  0.00     0.028 A 
HETATM   21  C   UNL     1       1.620  29.044  50.587  1.00  0.00     0.031 A 
ENDBRANCH  11  14
ENDBRANCH   9  10
ENDBRANCH   6   9
ENDBRANCH   5   6
ENDBRANCH   1   5
BRANCH   2  22
HETATM   22  C   UNL     1       5.591  25.912  54.729  1.00  0.00     0.071 A 
HETATM   23  C   UNL     1       5.754  25.586  53.369  1.00  0.00     0.096 A 
HETATM   24  C   UNL     1       6.410  24.418  52.955  1.00  0.00     0.054 A 
HETATM   25  C   UNL     1       6.945  23.576  53.947  1.00  0.00     0.014 A 
HETATM   26  C   UNL     1       6.814  23.953  55.279  1.00  0.00     0.089 A 
HETATM   27  C   UNL     1       7.626  22.322  53.962  1.00  0.00     0.011 A 
HETATM   28  O   UNL     1       7.391  23.030  56.097  1.00  0.00    -0.309 OA
HETATM   29  C   UNL     1       6.157  25.104  55.718  1.00  0.00     0.070 A 
HETATM   30  C   UNL     1       7.877  22.039  55.300  1.00  0.00     0.087 A 
HETATM   31  C   UNL     1       8.527  20.892  55.749  1.00  0.00     0.038 A 
HETATM   32  C   UNL     1       8.934  19.979  54.770  1.00  0.00     0.003 A 
HETATM   33  C   UNL     1       8.696  20.222  53.415  1.00  0.00     0.001 A 
HETATM   34  C   UNL     1       8.046  21.391  52.992  1.00  0.00     0.015 A 
BRANCH  23  35
HETATM   35  O   UNL     1       5.192  26.449  52.451  1.00  0.00    -0.354 OA
HETATM   36  C   UNL     1       5.152  25.862  51.147  1.00  0.00     0.210 C 
ENDBRANCH  23  35
ENDBRANCH   2  22
TORSDOF 7
ENDMDL
MODEL 7
REMARK VINA RESULT:      -9.8      4.510     11.783
REMARK  7 active torsions:
REMARK  status: ('A' for Active; 'I' for Inactive)
REMARK    1  A    between atoms: N_2  and  C_4 
REMARK    2  A    between atoms: N_2  and  C_23 
REMARK    3  A    between atoms: C_4  and  C_5 
REMARK       I    between atoms: C_5  and  N_6 
REMARK    4  A    between atoms: N_6  and  C_7 
REMARK    5  A    between atoms: C_8  and  O_9 
REMARK    6  A    between atoms: C_23  and  C_24 
REMARK       I    between atoms: C_24  and  N_25 
REMARK    7  A    between atoms: N_25  and  C_26 
ROOT
HETATM    1  C   UNL     1       6.301  30.821  58.183  1.00  0.00     0.248 C 
HETATM    2  N   UNL     1       7.294  31.397  58.926  1.00  0.00    -0.323 N 
HETATM    3  O   UNL     1       5.084  30.918  58.358  1.00  0.00    -0.271 OA
HETATM    4  H   UNL     1       8.220  31.523  58.518  1.00  0.00     0.169 HD
ENDROOT
BRANCH   1   5
HETATM    5  C   UNL     1       6.772  30.031  56.958  1.00  0.00     0.337 C 
BRANCH   5   6
HETATM    6  N   UNL     1       6.313  28.568  57.113  1.00  0.00    -0.058 N 
HETATM    7  C   UNL     1       7.361  27.699  57.723  1.00  0.00     0.270 C 
HETATM    8  H   UNL     1       5.538  28.650  57.798  1.00  0.00     0.280 HD
BRANCH   6   9
HETATM    9  C   UNL     1       5.720  27.962  55.841  1.00  0.00     0.337 C 
BRANCH   9  10
HETATM   10  C   UNL     1       6.578  26.874  55.186  1.00  0.00     0.248 C 
HETATM   11  N   UNL     1       6.042  25.601  55.234  1.00  0.00    -0.326 N 
HETATM   12  H   UNL     1       5.075  25.487  55.522  1.00  0.00     0.169 HD
HETATM   13  O   UNL     1       7.599  27.202  54.583  1.00  0.00    -0.271 OA
BRANCH  11  14
HETATM   14  C   UNL     1       6.674  24.419  54.781  1.00  0.00     0.036 A 
HETATM   15  C   UNL     1       7.115  23.402  55.632  1.00  0.00     0.055 A 
HETATM   16  C   UNL     1       7.716  22.246  55.112  1.00  0.00     0.058 A 
HETATM   17 CL   UNL     1       8.227  21.037  56.236  1.00  0.00    -0.082 Cl
HETATM   18  C   UNL     1       7.879  22.100  53.732  1.00  0.00     0.055 A 
HETATM   19 CL   UNL     1       8.611  20.709  53.023  1.00  0.00    -0.083 Cl
HETATM   20  C   UNL     1       7.433  23.111  52.879  1.00  0.00     0.028 A 
HETATM   21  C   UNL     1       6.828  24.261  53.400  1.00  0.00     0.031 A 
ENDBRANCH  11  14
ENDBRANCH   9  10
ENDBRANCH   6   9
ENDBRANCH   5   6
ENDBRANCH   1   5
BRANCH   2  22
HETATM   22  C   UNL     1       7.165  32.006  60.195  1.00  0.00     0.071 A 
HETATM   23  C   UNL     1       8.124  31.646  61.160  1.00  0.00     0.096 A 
HETATM   24  C   UNL     1       8.042  32.078  62.491  1.00  0.00     0.054 A 
HETATM   25  C   UNL     1       6.976  32.927  62.844  1.00  0.00     0.014 A 
HETATM   26  C   UNL     1       6.075  33.307  61.855  1.00  0.00     0.089 A 
HETATM   27  C   UNL     1       6.516  33.540  64.048  1.00  0.00     0.011 A 
HETATM   28  O   UNL     1       5.119  34.129  62.369  1.00  0.00    -0.309 OA
HETATM   29  C   UNL     1       6.129  32.883  60.525  1.00  0.00     0.070 A 
HETATM   30  C   UNL     1       5.381  34.264  63.697  1.00  0.00     0.087 A 
HETATM   31  C   UNL     1       4.623  35.012  64.595  1.00  0.00     0.038 A 
HETATM   32  C   UNL     1       5.046  35.008  65.928  1.00  0.00     0.003 A 
HETATM   33  C   UNL     1       6.178  34.288  66.323  1.00  0.00     0.001 A 
HETATM   34  C   UNL     1       6.926  33.550  65.394  1.00  0.00     0.015 A 
BRANCH  23  35
HETATM   35  O   UNL     1       9.133  30.800  60.748  1.00  0.00    -0.354 OA
HETATM   36  C   UNL     1       9.711  30.106  61.858  1.00  0.00     0.210 C 
ENDBRANCH  23  35
ENDBRANCH   2  22
TORSDOF 7
ENDMDL
MODEL 8
REMARK VINA RESULT:      -9.7      5.805      9.332
REMARK  7 active torsions:
REMARK  status: ('A' for Active; 'I' for Inactive)
REMARK    1  A    between atoms: N_2  and  C_4 
REMARK    2  A    between atoms: N_2  and  C_23 
REMARK    3  A    between atoms: C_4  and  C_5 
REMARK       I    between atoms: C_5  and  N_6 
REMARK    4  A    between atoms: N_6  and  C_7 
REMARK    5  A    between atoms: C_8  and  O_9 
REMARK    6  A    between atoms: C_23  and  C_24 
REMARK       I    between atoms: C_24  and  N_25 
REMARK    7  A    between atoms: N_25  and  C_26 
ROOT
HETATM    1  C   UNL     1       5.316  28.801  54.885  1.00  0.00     0.248 C 
HETATM    2  N   UNL     1       5.518  29.379  53.662  1.00  0.00    -0.323 N 
HETATM    3  O   UNL     1       4.743  27.735  55.122  1.00  0.00    -0.271 OA
HETATM    4  H   UNL     1       6.263  30.065  53.547  1.00  0.00     0.169 HD
ENDROOT
BRANCH   1   5
HETATM    5  C   UNL     1       5.943  29.538  56.072  1.00  0.00     0.337 C 
BRANCH   5   6
HETATM    6  N   UNL     1       7.222  28.788  56.492  1.00  0.00    -0.058 N 
HETATM    7  C   UNL     1       8.148  28.543  55.348  1.00  0.00     0.270 C 
HETATM    8  H   UNL     1       7.682  29.471  57.125  1.00  0.00     0.280 HD
BRANCH   6   9
HETATM    9  C   UNL     1       6.964  27.526  57.314  1.00  0.00     0.337 C 
BRANCH   9  10
HETATM   10  C   UNL     1       7.608  26.251  56.758  1.00  0.00     0.248 C 
HETATM   11  N   UNL     1       6.932  25.668  55.703  1.00  0.00    -0.326 N 
HETATM   12  H   UNL     1       6.184  26.188  55.254  1.00  0.00     0.169 HD
HETATM   13  O   UNL     1       8.703  25.897  57.194  1.00  0.00    -0.271 OA
BRANCH  11  14
HETATM   14  C   UNL     1       7.271  24.446  55.076  1.00  0.00     0.036 A 
HETATM   15  C   UNL     1       7.291  23.216  55.738  1.00  0.00     0.055 A 
HETATM   16  C   UNL     1       7.617  22.039  55.049  1.00  0.00     0.058 A 
HETATM   17 CL   UNL     1       7.612  20.561  55.944  1.00  0.00    -0.082 Cl
HETATM   18  C   UNL     1       7.925  22.087  53.687  1.00  0.00     0.055 A 
HETATM   19 CL   UNL     1       8.339  20.681  52.777  1.00  0.00    -0.083 Cl
HETATM   20  C   UNL     1       7.900  23.313  53.021  1.00  0.00     0.028 A 
HETATM   21  C   UNL     1       7.568  24.485  53.710  1.00  0.00     0.031 A 
ENDBRANCH  11  14
ENDBRANCH   9  10
ENDBRANCH   6   9
ENDBRANCH   5   6
ENDBRANCH   1   5
BRANCH   2  22
HETATM   22  C   UNL     1       4.899  29.029  52.441  1.00  0.00     0.071 A 
HETATM   23  C   UNL     1       3.765  29.780  52.079  1.00  0.00     0.096 A 
HETATM   24  C   UNL     1       2.984  29.459  50.959  1.00  0.00     0.054 A 
HETATM   25  C   UNL     1       3.386  28.368  50.166  1.00  0.00     0.014 A 
HETATM   26  C   UNL     1       4.541  27.679  50.521  1.00  0.00     0.089 A 
HETATM   27  C   UNL     1       2.876  27.705  49.010  1.00  0.00     0.011 A 
HETATM   28  O   UNL     1       4.781  26.665  49.646  1.00  0.00    -0.309 OA
HETATM   29  C   UNL     1       5.330  27.972  51.636  1.00  0.00     0.070 A 
HETATM   30  C   UNL     1       3.770  26.675  48.735  1.00  0.00     0.087 A 
HETATM   31  C   UNL     1       3.630  25.780  47.677  1.00  0.00     0.038 A 
HETATM   32  C   UNL     1       2.506  25.945  46.861  1.00  0.00     0.003 A 
HETATM   33  C   UNL     1       1.581  26.964  47.107  1.00  0.00     0.001 A 
HETATM   34  C   UNL     1       1.752  27.855  48.176  1.00  0.00     0.015 A 
BRANCH  23  35
HETATM   35  O   UNL     1       3.421  30.827  52.908  1.00  0.00    -0.354 OA
HETATM   36  C   UNL     1       2.919  31.937  52.159  1.00  0.00     0.210 C 
ENDBRANCH  23  35
ENDBRANCH   2  22
TORSDOF 7
ENDMDL
MODEL 9
REMARK VINA RESULT:      -9.6      4.620     11.369
REMARK  7 active torsions:
REMARK  status: ('A' for Active; 'I' for Inactive)
REMARK    1  A    between atoms: N_2  and  C_4 
REMARK    2  A    between atoms: N_2  and  C_23 
REMARK    3  A    between atoms: C_4  and  C_5 
REMARK       I    between atoms: C_5  and  N_6 
REMARK    4  A    between atoms: N_6  and  C_7 
REMARK    5  A    between atoms: C_8  and  O_9 
REMARK    6  A    between atoms: C_23  and  C_24 
REMARK       I    between atoms: C_24  and  N_25 
REMARK    7  A    between atoms: N_25  and  C_26 
ROOT
HETATM    1  C   UNL     1       7.801  29.754  57.769  1.00  0.00     0.248 C 
HETATM    2  N   UNL     1       7.097  30.909  57.967  1.00  0.00    -0.323 N 
HETATM    3  O   UNL     1       8.108  28.912  58.617  1.00  0.00    -0.271 OA
HETATM    4  H   UNL     1       6.625  31.352  57.179  1.00  0.00     0.169 HD
ENDROOT
BRANCH   1   5
HETATM    5  C   UNL     1       8.175  29.454  56.315  1.00  0.00     0.337 C 
BRANCH   5   6
HETATM    6  N   UNL     1       7.018  28.669  55.665  1.00  0.00    -0.058 N 
HETATM    7  C   UNL     1       5.893  29.552  55.239  1.00  0.00     0.270 C 
HETATM    8  H   UNL     1       7.461  28.292  54.805  1.00  0.00     0.280 HD
BRANCH   6   9
HETATM    9  C   UNL     1       6.542  27.469  56.481  1.00  0.00     0.337 C 
BRANCH   9  10
HETATM   10  C   UNL     1       6.443  26.155  55.698  1.00  0.00     0.248 C 
HETATM   11  N   UNL     1       7.520  25.303  55.849  1.00  0.00    -0.326 N 
HETATM   12  H   UNL     1       8.201  25.499  56.576  1.00  0.00     0.169 HD
HETATM   13  O   UNL     1       5.403  25.898  55.093  1.00  0.00    -0.271 OA
BRANCH  11  14
HETATM   14  C   UNL     1       7.709  24.078  55.168  1.00  0.00     0.036 A 
HETATM   15  C   UNL     1       7.740  22.834  55.805  1.00  0.00     0.055 A 
HETATM   16  C   UNL     1       7.912  21.656  55.063  1.00  0.00     0.058 A 
HETATM   17 CL   UNL     1       7.933  20.162  55.931  1.00  0.00    -0.082 Cl
HETATM   18  C   UNL     1       8.052  21.716  53.674  1.00  0.00     0.055 A 
HETATM   19 CL   UNL     1       8.269  20.309  52.700  1.00  0.00    -0.083 Cl
HETATM   20  C   UNL     1       8.014  22.955  53.034  1.00  0.00     0.028 A 
HETATM   21  C   UNL     1       7.837  24.129  53.775  1.00  0.00     0.031 A 
ENDBRANCH  11  14
ENDBRANCH   9  10
ENDBRANCH   6   9
ENDBRANCH   5   6
ENDBRANCH   1   5
BRANCH   2  22
HETATM   22  C   UNL     1       6.795  31.523  59.204  1.00  0.00     0.071 A 
HETATM   23  C   UNL     1       5.658  32.352  59.227  1.00  0.00     0.096 A 
HETATM   24  C   UNL     1       5.317  33.119  60.351  1.00  0.00     0.054 A 
HETATM   25  C   UNL     1       6.133  33.013  61.493  1.00  0.00     0.014 A 
HETATM   26  C   UNL     1       7.218  32.145  61.456  1.00  0.00     0.089 A 
HETATM   27  C   UNL     1       6.165  33.623  62.783  1.00  0.00     0.011 A 
HETATM   28  O   UNL     1       7.888  32.164  62.641  1.00  0.00    -0.309 OA
HETATM   29  C   UNL     1       7.585  31.379  60.347  1.00  0.00     0.070 A 
HETATM   30  C   UNL     1       7.255  33.064  63.442  1.00  0.00     0.087 A 
HETATM   31  C   UNL     1       7.640  33.397  64.739  1.00  0.00     0.038 A 
HETATM   32  C   UNL     1       6.868  34.364  65.392  1.00  0.00     0.003 A 
HETATM   33  C   UNL     1       5.768  34.954  64.763  1.00  0.00     0.001 A 
HETATM   34  C   UNL     1       5.400  34.593  63.459  1.00  0.00     0.015 A 
BRANCH  23  35
HETATM   35  O   UNL     1       4.913  32.419  58.069  1.00  0.00    -0.354 OA
HETATM   36  C   UNL     1       4.792  33.768  57.608  1.00  0.00     0.210 C 
ENDBRANCH  23  35
ENDBRANCH   2  22
TORSDOF 7
ENDMDL
MODEL 10
REMARK VINA RESULT:      -9.4      6.246      9.042
REMARK  7 active torsions:
REMARK  status: ('A' for Active; 'I' for Inactive)
REMARK    1  A    between atoms: N_2  and  C_4 
REMARK    2  A    between atoms: N_2  and  C_23 
REMARK    3  A    between atoms: C_4  and  C_5 
REMARK       I    between atoms: C_5  and  N_6 
REMARK    4  A    between atoms: N_6  and  C_7 
REMARK    5  A    between atoms: C_8  and  O_9 
REMARK    6  A    between atoms: C_23  and  C_24 
REMARK       I    between atoms: C_24  and  N_25 
REMARK    7  A    between atoms: N_25  and  C_26 
ROOT
HETATM    1  C   UNL     1       6.123  28.705  55.419  1.00  0.00     0.248 C 
HETATM    2  N   UNL     1       5.422  27.531  55.451  1.00  0.00    -0.323 N 
HETATM    3  O   UNL     1       7.289  28.869  55.052  1.00  0.00    -0.271 OA
HETATM    4  H   UNL     1       4.402  27.553  55.454  1.00  0.00     0.169 HD
ENDROOT
BRANCH   1   5
HETATM    5  C   UNL     1       5.331  29.954  55.816  1.00  0.00     0.337 C 
BRANCH   5   6
HETATM    6  N   UNL     1       4.758  30.597  54.538  1.00  0.00    -0.058 N 
HETATM    7  C   UNL     1       4.886  32.084  54.536  1.00  0.00     0.270 C 
HETATM    8  H   UNL     1       5.391  30.229  53.802  1.00  0.00     0.280 HD
BRANCH   6   9
HETATM    9  C   UNL     1       3.347  30.132  54.183  1.00  0.00     0.337 C 
BRANCH   9  10
HETATM   10  C   UNL     1       3.271  29.120  53.035  1.00  0.00     0.248 C 
HETATM   11  N   UNL     1       3.007  29.665  51.793  1.00  0.00    -0.326 N 
HETATM   12  H   UNL     1       3.058  30.672  51.680  1.00  0.00     0.169 HD
HETATM   13  O   UNL     1       3.547  27.942  53.259  1.00  0.00    -0.271 OA
BRANCH  11  14
HETATM   14  C   UNL     1       2.802  28.939  50.596  1.00  0.00     0.036 A 
HETATM   15  C   UNL     1       3.802  28.201  49.956  1.00  0.00     0.055 A 
HETATM   16  C   UNL     1       3.522  27.488  48.782  1.00  0.00     0.058 A 
HETATM   17 CL   UNL     1       4.817  26.599  48.060  1.00  0.00    -0.082 Cl
HETATM   18  C   UNL     1       2.235  27.507  48.239  1.00  0.00     0.055 A 
HETATM   19 CL   UNL     1       1.820  26.657  46.797  1.00  0.00    -0.083 Cl
HETATM   20  C   UNL     1       1.232  28.237  48.879  1.00  0.00     0.028 A 
HETATM   21  C   UNL     1       1.512  28.943  50.055  1.00  0.00     0.031 A 
ENDBRANCH  11  14
ENDBRANCH   9  10
ENDBRANCH   6   9
ENDBRANCH   5   6
ENDBRANCH   1   5
BRANCH   2  22
HETATM   22  C   UNL     1       5.942  26.223  55.326  1.00  0.00     0.071 A 
HETATM   23  C   UNL     1       6.516  25.667  56.484  1.00  0.00     0.096 A 
HETATM   24  C   UNL     1       7.179  24.431  56.469  1.00  0.00     0.054 A 
HETATM   25  C   UNL     1       7.229  23.725  55.252  1.00  0.00     0.014 A 
HETATM   26  C   UNL     1       6.606  24.277  54.138  1.00  0.00     0.089 A 
HETATM   27  C   UNL     1       7.814  22.502  54.807  1.00  0.00     0.011 A 
HETATM   28  O   UNL     1       6.748  23.462  53.058  1.00  0.00    -0.309 OA
HETATM   29  C   UNL     1       5.950  25.510  54.125  1.00  0.00     0.070 A 
HETATM   30  C   UNL     1       7.485  22.391  53.460  1.00  0.00     0.087 A 
HETATM   31  C   UNL     1       7.872  21.329  52.645  1.00  0.00     0.038 A 
HETATM   32  C   UNL     1       8.648  20.331  53.244  1.00  0.00     0.003 A 
HETATM   33  C   UNL     1       9.005  20.408  54.593  1.00  0.00     0.001 A 
HETATM   34  C   UNL     1       8.594  21.485  55.390  1.00  0.00     0.015 A 
BRANCH  23  35
HETATM   35  O   UNL     1       6.442  26.419  57.638  1.00  0.00    -0.354 OA
HETATM   36  C   UNL     1       7.736  26.880  58.038  1.00  0.00     0.210 C 
ENDBRANCH  23  35
ENDBRANCH   2  22
TORSDOF 7
ENDMDL
