MODEL 1
REMARK VINA RESULT:      -8.7      0.000      0.000
REMARK  8 active torsions:
REMARK  status: ('A' for Active; 'I' for Inactive)
REMARK    1  A    between atoms: C_2  and  C_3 
REMARK    2  A    between atoms: C_3  and  S_4 
REMARK    3  A    between atoms: S_4  and  C_5 
REMARK    4  A    between atoms: N_6  and  C_7 
REMARK    5  A    between atoms: C_8  and  O_9 
REMARK    6  A    between atoms: C_15  and  C_16 
REMARK    7  A    between atoms: C_16  and  N_17 
REMARK       I    between atoms: N_17  and  C_18 
REMARK    8  A    between atoms: C_18  and  C_19 
ROOT
HETATM    1  C   UNL     1       7.406  28.932  57.778  1.00  0.00     0.196 A 
HETATM    2  N   UNL     1       6.278  28.508  57.098  1.00  0.00    -0.271 N 
HETATM    3  C   UNL     1       6.354  27.122  57.154  1.00  0.00     0.153 A 
HETATM    4  N   UNL     1       7.445  26.765  57.810  1.00  0.00    -0.132 NA
HETATM    5  N   UNL     1       8.095  27.901  58.210  1.00  0.00    -0.122 NA
ENDROOT
BRANCH   3   6
HETATM    6  C   UNL     1       5.433  26.175  56.475  1.00  0.00     0.204 C 
BRANCH   6   7
HETATM    7  N   UNL     1       6.164  24.973  56.139  1.00  0.00    -0.350 N 
HETATM    8  C   UNL     1       6.573  24.738  54.845  1.00  0.00     0.252 C 
HETATM    9  O   UNL     1       6.435  25.567  53.949  1.00  0.00    -0.268 OA
HETATM   10  H   UNL     1       6.090  24.206  56.794  1.00  0.00     0.163 HD
BRANCH   8  11
HETATM   11  C   UNL     1       7.167  23.402  54.545  1.00  0.00     0.032 A 
HETATM   12  C   UNL     1       7.450  22.453  55.538  1.00  0.00     0.023 A 
HETATM   13  C   UNL     1       7.986  21.201  55.194  1.00  0.00    -0.061 A 
HETATM   14  C   UNL     1       8.305  20.190  56.256  1.00  0.00     0.048 C 
HETATM   15  C   UNL     1       8.275  20.924  53.853  1.00  0.00     0.007 A 
HETATM   16  C   UNL     1       8.016  21.871  52.863  1.00  0.00     0.002 A 
HETATM   17  C   UNL     1       7.463  23.104  53.207  1.00  0.00     0.017 A 
ENDBRANCH   8  11
ENDBRANCH   6   7
ENDBRANCH   3   6
BRANCH   2  18
HETATM   18  C   UNL     1       5.237  29.290  56.541  1.00  0.00     0.076 A 
HETATM   19  C   UNL     1       5.165  29.517  55.157  1.00  0.00     0.095 A 
HETATM   20  C   UNL     1       4.119  30.301  54.656  1.00  0.00     0.039 A 
HETATM   21  C   UNL     1       3.174  30.863  55.518  1.00  0.00     0.003 A 
HETATM   22  C   UNL     1       3.258  30.642  56.889  1.00  0.00     0.002 A 
HETATM   23  C   UNL     1       4.287  29.856  57.406  1.00  0.00     0.033 A 
BRANCH  19  24
HETATM   24  O   UNL     1       6.054  28.861  54.350  1.00  0.00    -0.354 OA
HETATM   25  C   UNL     1       5.642  28.678  52.998  1.00  0.00     0.210 C 
ENDBRANCH  19  24
ENDBRANCH   2  18
BRANCH   1  26
HETATM   26  S   UNL     1       7.759  30.573  58.222  1.00  0.00    -0.090 SA
BRANCH  26  27
HETATM   27  C   UNL     1       9.483  30.381  58.763  1.00  0.00     0.082 C 
BRANCH  27  28
HETATM   28  C   UNL     1      10.422  30.849  57.656  1.00  0.00     0.006 C 
HETATM   29  C   UNL     1      11.128  29.673  56.998  1.00  0.00     0.006 C 
ENDBRANCH  27  28
ENDBRANCH  26  27
ENDBRANCH   1  26
TORSDOF 8
ENDMDL
MODEL 2
REMARK VINA RESULT:      -8.5      2.128      4.298
REMARK  8 active torsions:
REMARK  status: ('A' for Active; 'I' for Inactive)
REMARK    1  A    between atoms: C_2  and  C_3 
REMARK    2  A    between atoms: C_3  and  S_4 
REMARK    3  A    between atoms: S_4  and  C_5 
REMARK    4  A    between atoms: N_6  and  C_7 
REMARK    5  A    between atoms: C_8  and  O_9 
REMARK    6  A    between atoms: C_15  and  C_16 
REMARK    7  A    between atoms: C_16  and  N_17 
REMARK       I    between atoms: N_17  and  C_18 
REMARK    8  A    between atoms: C_18  and  C_19 
ROOT
HETATM    1  C   UNL     1       5.707  29.626  56.837  1.00  0.00     0.196 A 
HETATM    2  N   UNL     1       6.878  28.932  57.084  1.00  0.00    -0.271 N 
HETATM    3  C   UNL     1       6.464  27.611  57.211  1.00  0.00     0.153 A 
HETATM    4  N   UNL     1       5.153  27.541  57.058  1.00  0.00    -0.132 NA
HETATM    5  N   UNL     1       4.683  28.803  56.812  1.00  0.00    -0.122 NA
ENDROOT
BRANCH   3   6
HETATM    6  C   UNL     1       7.329  26.465  57.591  1.00  0.00     0.204 C 
BRANCH   6   7
HETATM    7  N   UNL     1       7.257  25.461  56.553  1.00  0.00    -0.350 N 
HETATM    8  C   UNL     1       8.191  24.450  56.485  1.00  0.00     0.252 C 
HETATM    9  O   UNL     1       9.054  24.292  57.346  1.00  0.00    -0.268 OA
HETATM   10  H   UNL     1       6.709  25.698  55.737  1.00  0.00     0.163 HD
BRANCH   8  11
HETATM   11  C   UNL     1       8.152  23.557  55.291  1.00  0.00     0.032 A 
HETATM   12  C   UNL     1       8.474  22.194  55.348  1.00  0.00     0.023 A 
HETATM   13  C   UNL     1       8.394  21.395  54.196  1.00  0.00    -0.061 A 
HETATM   14  C   UNL     1       8.753  19.938  54.250  1.00  0.00     0.048 C 
HETATM   15  C   UNL     1       8.031  21.981  52.978  1.00  0.00     0.007 A 
HETATM   16  C   UNL     1       7.730  23.341  52.910  1.00  0.00     0.002 A 
HETATM   17  C   UNL     1       7.789  24.126  54.062  1.00  0.00     0.017 A 
ENDBRANCH   8  11
ENDBRANCH   6   7
ENDBRANCH   3   6
BRANCH   2  18
HETATM   18  C   UNL     1       8.205  29.423  57.117  1.00  0.00     0.076 A 
HETATM   19  C   UNL     1       8.720  30.035  58.272  1.00  0.00     0.095 A 
HETATM   20  C   UNL     1      10.036  30.509  58.255  1.00  0.00     0.039 A 
HETATM   21  C   UNL     1      10.819  30.394  57.103  1.00  0.00     0.003 A 
HETATM   22  C   UNL     1      10.299  29.796  55.959  1.00  0.00     0.002 A 
HETATM   23  C   UNL     1       8.993  29.309  55.962  1.00  0.00     0.033 A 
BRANCH  19  24
HETATM   24  O   UNL     1       7.947  30.031  59.402  1.00  0.00    -0.354 OA
HETATM   25  C   UNL     1       8.435  30.815  60.488  1.00  0.00     0.210 C 
ENDBRANCH  19  24
ENDBRANCH   2  18
BRANCH   1  26
HETATM   26  S   UNL     1       5.601  31.298  56.383  1.00  0.00    -0.090 SA
BRANCH  26  27
HETATM   27  C   UNL     1       4.487  31.902  57.684  1.00  0.00     0.082 C 
BRANCH  27  28
HETATM   28  C   UNL     1       5.295  32.241  58.933  1.00  0.00     0.006 C 
HETATM   29  C   UNL     1       4.391  32.408  60.146  1.00  0.00     0.006 C 
ENDBRANCH  27  28
ENDBRANCH  26  27
ENDBRANCH   1  26
TORSDOF 8
ENDMDL
MODEL 3
REMARK VINA RESULT:      -8.2      1.224      2.103
REMARK  8 active torsions:
REMARK  status: ('A' for Active; 'I' for Inactive)
REMARK    1  A    between atoms: C_2  and  C_3 
REMARK    2  A    between atoms: C_3  and  S_4 
REMARK    3  A    between atoms: S_4  and  C_5 
REMARK    4  A    between atoms: N_6  and  C_7 
REMARK    5  A    between atoms: C_8  and  O_9 
REMARK    6  A    between atoms: C_15  and  C_16 
REMARK    7  A    between atoms: C_16  and  N_17 
REMARK       I    between atoms: N_17  and  C_18 
REMARK    8  A    between atoms: C_18  and  C_19 
ROOT
HETATM    1  C   UNL     1       7.363  28.964  57.606  1.00  0.00     0.196 A 
HETATM    2  N   UNL     1       6.290  28.473  56.885  1.00  0.00    -0.271 N 
HETATM    3  C   UNL     1       6.303  27.109  57.149  1.00  0.00     0.153 A 
HETATM    4  N   UNL     1       7.311  26.825  57.956  1.00  0.00    -0.132 NA
HETATM    5  N   UNL     1       7.965  27.990  58.251  1.00  0.00    -0.122 NA
ENDROOT
BRANCH   3   6
HETATM    6  C   UNL     1       5.414  26.096  56.525  1.00  0.00     0.204 C 
BRANCH   6   7
HETATM    7  N   UNL     1       6.209  24.949  56.143  1.00  0.00    -0.350 N 
HETATM    8  C   UNL     1       6.440  24.665  54.815  1.00  0.00     0.252 C 
HETATM    9  O   UNL     1       6.081  25.413  53.909  1.00  0.00    -0.268 OA
HETATM   10  H   UNL     1       6.317  24.226  56.841  1.00  0.00     0.163 HD
BRANCH   8  11
HETATM   11  C   UNL     1       7.120  23.375  54.497  1.00  0.00     0.032 A 
HETATM   12  C   UNL     1       7.438  22.421  55.474  1.00  0.00     0.023 A 
HETATM   13  C   UNL     1       8.055  21.212  55.113  1.00  0.00    -0.061 A 
HETATM   14  C   UNL     1       8.411  20.194  56.157  1.00  0.00     0.048 C 
HETATM   15  C   UNL     1       8.391  20.986  53.772  1.00  0.00     0.007 A 
HETATM   16  C   UNL     1       8.097  21.941  52.800  1.00  0.00     0.002 A 
HETATM   17  C   UNL     1       7.463  23.130  53.160  1.00  0.00     0.017 A 
ENDBRANCH   8  11
ENDBRANCH   6   7
ENDBRANCH   3   6
BRANCH   2  18
HETATM   18  C   UNL     1       5.339  29.190  56.119  1.00  0.00     0.076 A 
HETATM   19  C   UNL     1       4.305  29.910  56.740  1.00  0.00     0.095 A 
HETATM   20  C   UNL     1       3.387  30.599  55.940  1.00  0.00     0.039 A 
HETATM   21  C   UNL     1       3.484  30.557  54.547  1.00  0.00     0.003 A 
HETATM   22  C   UNL     1       4.505  29.833  53.938  1.00  0.00     0.002 A 
HETATM   23  C   UNL     1       5.434  29.149  54.719  1.00  0.00     0.033 A 
BRANCH  19  24
HETATM   24  O   UNL     1       4.315  30.002  58.106  1.00  0.00    -0.354 OA
HETATM   25  C   UNL     1       3.798  31.214  58.648  1.00  0.00     0.210 C 
ENDBRANCH  19  24
ENDBRANCH   2  18
BRANCH   1  26
HETATM   26  S   UNL     1       7.738  30.642  57.842  1.00  0.00    -0.090 SA
BRANCH  26  27
HETATM   27  C   UNL     1       8.451  30.568  59.511  1.00  0.00     0.082 C 
BRANCH  27  28
HETATM   28  C   UNL     1       8.797  31.976  59.983  1.00  0.00     0.006 C 
HETATM   29  C   UNL     1       9.673  31.941  61.227  1.00  0.00     0.006 C 
ENDBRANCH  27  28
ENDBRANCH  26  27
ENDBRANCH   1  26
TORSDOF 8
ENDMDL
MODEL 4
REMARK VINA RESULT:      -8.2      2.336      4.127
REMARK  8 active torsions:
REMARK  status: ('A' for Active; 'I' for Inactive)
REMARK    1  A    between atoms: C_2  and  C_3 
REMARK    2  A    between atoms: C_3  and  S_4 
REMARK    3  A    between atoms: S_4  and  C_5 
REMARK    4  A    between atoms: N_6  and  C_7 
REMARK    5  A    between atoms: C_8  and  O_9 
REMARK    6  A    between atoms: C_15  and  C_16 
REMARK    7  A    between atoms: C_16  and  N_17 
REMARK       I    between atoms: N_17  and  C_18 
REMARK    8  A    between atoms: C_18  and  C_19 
ROOT
HETATM    1  C   UNL     1       4.159  29.229  54.875  1.00  0.00     0.196 A 
HETATM    2  N   UNL     1       5.319  28.519  54.620  1.00  0.00    -0.271 N 
HETATM    3  C   UNL     1       5.251  28.244  53.259  1.00  0.00     0.153 A 
HETATM    4  N   UNL     1       4.136  28.747  52.761  1.00  0.00    -0.132 NA
HETATM    5  N   UNL     1       3.460  29.374  53.772  1.00  0.00    -0.122 NA
ENDROOT
BRANCH   3   6
HETATM    6  C   UNL     1       6.209  27.402  52.497  1.00  0.00     0.204 C 
BRANCH   6   7
HETATM    7  N   UNL     1       6.451  26.183  53.238  1.00  0.00    -0.350 N 
HETATM    8  C   UNL     1       7.542  25.391  52.952  1.00  0.00     0.252 C 
HETATM    9  O   UNL     1       8.404  25.725  52.143  1.00  0.00    -0.268 OA
HETATM   10  H   UNL     1       5.660  25.794  53.733  1.00  0.00     0.163 HD
BRANCH   8  11
HETATM   11  C   UNL     1       7.629  24.069  53.638  1.00  0.00     0.032 A 
HETATM   12  C   UNL     1       7.864  22.869  52.952  1.00  0.00     0.023 A 
HETATM   13  C   UNL     1       7.963  21.656  53.654  1.00  0.00    -0.061 A 
HETATM   14  C   UNL     1       8.199  20.367  52.922  1.00  0.00     0.048 C 
HETATM   15  C   UNL     1       7.782  21.650  55.042  1.00  0.00     0.007 A 
HETATM   16  C   UNL     1       7.526  22.837  55.727  1.00  0.00     0.002 A 
HETATM   17  C   UNL     1       7.452  24.042  55.029  1.00  0.00     0.017 A 
ENDBRANCH   8  11
ENDBRANCH   6   7
ENDBRANCH   3   6
BRANCH   2  18
HETATM   18  C   UNL     1       6.378  28.210  55.508  1.00  0.00     0.076 A 
HETATM   19  C   UNL     1       6.197  27.295  56.557  1.00  0.00     0.095 A 
HETATM   20  C   UNL     1       7.273  27.026  57.411  1.00  0.00     0.039 A 
HETATM   21  C   UNL     1       8.500  27.671  57.235  1.00  0.00     0.003 A 
HETATM   22  C   UNL     1       8.668  28.584  56.199  1.00  0.00     0.002 A 
HETATM   23  C   UNL     1       7.611  28.857  55.333  1.00  0.00     0.033 A 
BRANCH  19  24
HETATM   24  O   UNL     1       5.009  26.617  56.623  1.00  0.00    -0.354 OA
HETATM   25  C   UNL     1       5.069  25.321  57.213  1.00  0.00     0.210 C 
ENDBRANCH  19  24
ENDBRANCH   2  18
BRANCH   1  26
HETATM   26  S   UNL     1       3.775  30.033  56.365  1.00  0.00    -0.090 SA
BRANCH  26  27
HETATM   27  C   UNL     1       4.892  31.459  56.244  1.00  0.00     0.082 C 
BRANCH  27  28
HETATM   28  C   UNL     1       5.363  31.861  57.638  1.00  0.00     0.006 C 
HETATM   29  C   UNL     1       6.491  30.961  58.120  1.00  0.00     0.006 C 
ENDBRANCH  27  28
ENDBRANCH  26  27
ENDBRANCH   1  26
TORSDOF 8
ENDMDL
MODEL 5
REMARK VINA RESULT:      -8.1      9.753     13.441
REMARK  8 active torsions:
REMARK  status: ('A' for Active; 'I' for Inactive)
REMARK    1  A    between atoms: C_2  and  C_3 
REMARK    2  A    between atoms: C_3  and  S_4 
REMARK    3  A    between atoms: S_4  and  C_5 
REMARK    4  A    between atoms: N_6  and  C_7 
REMARK    5  A    between atoms: C_8  and  O_9 
REMARK    6  A    between atoms: C_15  and  C_16 
REMARK    7  A    between atoms: C_16  and  N_17 
REMARK       I    between atoms: N_17  and  C_18 
REMARK    8  A    between atoms: C_18  and  C_19 
ROOT
HETATM    1  C   UNL     1       5.081  33.355  62.780  1.00  0.00     0.196 A 
HETATM    2  N   UNL     1       4.861  34.532  63.473  1.00  0.00    -0.271 N 
HETATM    3  C   UNL     1       4.785  34.130  64.801  1.00  0.00     0.153 A 
HETATM    4  N   UNL     1       4.940  32.819  64.876  1.00  0.00    -0.132 NA
HETATM    5  N   UNL     1       5.137  32.338  63.610  1.00  0.00    -0.122 NA
ENDROOT
BRANCH   3   6
HETATM    6  C   UNL     1       4.449  35.004  65.954  1.00  0.00     0.204 C 
BRANCH   6   7
HETATM    7  N   UNL     1       5.503  34.905  66.938  1.00  0.00    -0.350 N 
HETATM    8  C   UNL     1       5.294  34.246  68.130  1.00  0.00     0.252 C 
HETATM    9  O   UNL     1       4.257  33.632  68.370  1.00  0.00    -0.268 OA
HETATM   10  H   UNL     1       6.258  35.573  66.856  1.00  0.00     0.163 HD
BRANCH   8  11
HETATM   11  C   UNL     1       6.368  34.335  69.162  1.00  0.00     0.032 A 
HETATM   12  C   UNL     1       6.616  33.316  70.093  1.00  0.00     0.023 A 
HETATM   13  C   UNL     1       7.658  33.442  71.025  1.00  0.00    -0.061 A 
HETATM   14  C   UNL     1       7.916  32.361  72.034  1.00  0.00     0.048 C 
HETATM   15  C   UNL     1       8.422  34.615  71.046  1.00  0.00     0.007 A 
HETATM   16  C   UNL     1       8.166  35.641  70.137  1.00  0.00     0.002 A 
HETATM   17  C   UNL     1       7.145  35.501  69.198  1.00  0.00     0.017 A 
ENDBRANCH   8  11
ENDBRANCH   6   7
ENDBRANCH   3   6
BRANCH   2  18
HETATM   18  C   UNL     1       4.808  35.855  62.972  1.00  0.00     0.076 A 
HETATM   19  C   UNL     1       3.641  36.355  62.372  1.00  0.00     0.095 A 
HETATM   20  C   UNL     1       3.639  37.668  61.888  1.00  0.00     0.039 A 
HETATM   21  C   UNL     1       4.785  38.462  61.982  1.00  0.00     0.003 A 
HETATM   22  C   UNL     1       5.942  37.957  62.567  1.00  0.00     0.002 A 
HETATM   23  C   UNL     1       5.958  36.655  63.064  1.00  0.00     0.033 A 
BRANCH  19  24
HETATM   24  O   UNL     1       2.518  35.572  62.398  1.00  0.00    -0.354 OA
HETATM   25  C   UNL     1       1.999  35.193  61.126  1.00  0.00     0.210 C 
ENDBRANCH  19  24
ENDBRANCH   2  18
BRANCH   1  26
HETATM   26  S   UNL     1       5.470  33.236  61.092  1.00  0.00    -0.090 SA
BRANCH  26  27
HETATM   27  C   UNL     1       6.754  31.953  61.163  1.00  0.00     0.082 C 
BRANCH  27  28
HETATM   28  C   UNL     1       8.108  32.562  60.809  1.00  0.00     0.006 C 
HETATM   29  C   UNL     1       9.243  31.822  61.501  1.00  0.00     0.006 C 
ENDBRANCH  27  28
ENDBRANCH  26  27
ENDBRANCH   1  26
TORSDOF 8
ENDMDL
MODEL 6
REMARK VINA RESULT:      -8.1      4.757      7.259
REMARK  8 active torsions:
REMARK  status: ('A' for Active; 'I' for Inactive)
REMARK    1  A    between atoms: C_2  and  C_3 
REMARK    2  A    between atoms: C_3  and  S_4 
REMARK    3  A    between atoms: S_4  and  C_5 
REMARK    4  A    between atoms: N_6  and  C_7 
REMARK    5  A    between atoms: C_8  and  O_9 
REMARK    6  A    between atoms: C_15  and  C_16 
REMARK    7  A    between atoms: C_16  and  N_17 
REMARK       I    between atoms: N_17  and  C_18 
REMARK    8  A    between atoms: C_18  and  C_19 
ROOT
HETATM    1  C   UNL     1       4.163  27.136  49.163  1.00  0.00     0.196 A 
HETATM    2  N   UNL     1       4.716  27.940  50.143  1.00  0.00    -0.271 N 
HETATM    3  C   UNL     1       5.261  27.038  51.049  1.00  0.00     0.153 A 
HETATM    4  N   UNL     1       5.036  25.804  50.634  1.00  0.00    -0.132 NA
HETATM    5  N   UNL     1       4.360  25.868  49.446  1.00  0.00    -0.122 NA
ENDROOT
BRANCH   3   6
HETATM    6  C   UNL     1       5.884  27.387  52.351  1.00  0.00     0.204 C 
BRANCH   6   7
HETATM    7  N   UNL     1       6.155  26.168  53.081  1.00  0.00    -0.350 N 
HETATM    8  C   UNL     1       7.369  25.528  52.955  1.00  0.00     0.252 C 
HETATM    9  O   UNL     1       8.302  26.005  52.313  1.00  0.00    -0.268 OA
HETATM   10  H   UNL     1       5.350  25.661  53.423  1.00  0.00     0.163 HD
BRANCH   8  11
HETATM   11  C   UNL     1       7.510  24.191  53.601  1.00  0.00     0.032 A 
HETATM   12  C   UNL     1       7.815  23.026  52.883  1.00  0.00     0.023 A 
HETATM   13  C   UNL     1       7.962  21.798  53.548  1.00  0.00    -0.061 A 
HETATM   14  C   UNL     1       8.273  20.546  52.780  1.00  0.00     0.048 C 
HETATM   15  C   UNL     1       7.759  21.738  54.932  1.00  0.00     0.007 A 
HETATM   16  C   UNL     1       7.434  22.889  55.648  1.00  0.00     0.002 A 
HETATM   17  C   UNL     1       7.312  24.110  54.987  1.00  0.00     0.017 A 
ENDBRANCH   8  11
ENDBRANCH   6   7
ENDBRANCH   3   6
BRANCH   2  18
HETATM   18  C   UNL     1       4.792  29.353  50.186  1.00  0.00     0.076 A 
HETATM   19  C   UNL     1       3.743  30.117  50.724  1.00  0.00     0.095 A 
HETATM   20  C   UNL     1       3.863  31.512  50.740  1.00  0.00     0.039 A 
HETATM   21  C   UNL     1       4.998  32.134  50.213  1.00  0.00     0.003 A 
HETATM   22  C   UNL     1       6.028  31.371  49.672  1.00  0.00     0.002 A 
HETATM   23  C   UNL     1       5.930  29.981  49.657  1.00  0.00     0.033 A 
BRANCH  19  24
HETATM   24  O   UNL     1       2.703  29.454  51.318  1.00  0.00    -0.354 OA
HETATM   25  C   UNL     1       1.522  29.326  50.531  1.00  0.00     0.210 C 
ENDBRANCH  19  24
ENDBRANCH   2  18
BRANCH   1  26
HETATM   26  S   UNL     1       3.513  27.689  47.651  1.00  0.00    -0.090 SA
BRANCH  26  27
HETATM   27  C   UNL     1       2.138  26.518  47.459  1.00  0.00     0.082 C 
BRANCH  27  28
HETATM   28  C   UNL     1       0.812  27.269  47.525  1.00  0.00     0.006 C 
HETATM   29  C   UNL     1       0.213  27.454  46.139  1.00  0.00     0.006 C 
ENDBRANCH  27  28
ENDBRANCH  26  27
ENDBRANCH   1  26
TORSDOF 8
ENDMDL
MODEL 7
REMARK VINA RESULT:      -8.0      2.823      7.662
REMARK  8 active torsions:
REMARK  status: ('A' for Active; 'I' for Inactive)
REMARK    1  A    between atoms: C_2  and  C_3 
REMARK    2  A    between atoms: C_3  and  S_4 
REMARK    3  A    between atoms: S_4  and  C_5 
REMARK    4  A    between atoms: N_6  and  C_7 
REMARK    5  A    between atoms: C_8  and  O_9 
REMARK    6  A    between atoms: C_15  and  C_16 
REMARK    7  A    between atoms: C_16  and  N_17 
REMARK       I    between atoms: N_17  and  C_18 
REMARK    8  A    between atoms: C_18  and  C_19 
ROOT
HETATM    1  C   UNL     1       7.532  25.351  56.646  1.00  0.00     0.196 A 
HETATM    2  N   UNL     1       7.281  26.506  55.927  1.00  0.00    -0.271 N 
HETATM    3  C   UNL     1       7.901  27.504  56.670  1.00  0.00     0.153 A 
HETATM    4  N   UNL     1       8.462  26.974  57.742  1.00  0.00    -0.132 NA
HETATM    5  N   UNL     1       8.241  25.623  57.718  1.00  0.00    -0.122 NA
ENDROOT
BRANCH   3   6
HETATM    6  C   UNL     1       7.836  28.961  56.387  1.00  0.00     0.204 C 
BRANCH   6   7
HETATM    7  N   UNL     1       7.602  29.667  57.627  1.00  0.00    -0.350 N 
HETATM    8  C   UNL     1       8.596  30.427  58.203  1.00  0.00     0.252 C 
HETATM    9  O   UNL     1       9.676  30.627  57.651  1.00  0.00    -0.268 OA
HETATM   10  H   UNL     1       6.825  29.344  58.188  1.00  0.00     0.163 HD
BRANCH   8  11
HETATM   11  C   UNL     1       8.336  30.983  59.563  1.00  0.00     0.032 A 
HETATM   12  C   UNL     1       7.280  31.864  59.837  1.00  0.00     0.023 A 
HETATM   13  C   UNL     1       7.067  32.335  61.143  1.00  0.00    -0.061 A 
HETATM   14  C   UNL     1       5.948  33.291  61.437  1.00  0.00     0.048 C 
HETATM   15  C   UNL     1       7.946  31.951  62.163  1.00  0.00     0.007 A 
HETATM   16  C   UNL     1       9.011  31.092  61.892  1.00  0.00     0.002 A 
HETATM   17  C   UNL     1       9.204  30.609  60.598  1.00  0.00     0.017 A 
ENDBRANCH   8  11
ENDBRANCH   6   7
ENDBRANCH   3   6
BRANCH   2  18
HETATM   18  C   UNL     1       6.623  26.645  54.681  1.00  0.00     0.076 A 
HETATM   19  C   UNL     1       5.274  27.032  54.617  1.00  0.00     0.095 A 
HETATM   20  C   UNL     1       4.666  27.151  53.362  1.00  0.00     0.039 A 
HETATM   21  C   UNL     1       5.381  26.872  52.195  1.00  0.00     0.003 A 
HETATM   22  C   UNL     1       6.714  26.479  52.267  1.00  0.00     0.002 A 
HETATM   23  C   UNL     1       7.339  26.364  53.508  1.00  0.00     0.033 A 
BRANCH  19  24
HETATM   24  O   UNL     1       4.650  27.391  55.781  1.00  0.00    -0.354 OA
HETATM   25  C   UNL     1       4.140  28.721  55.825  1.00  0.00     0.210 C 
ENDBRANCH  19  24
ENDBRANCH   2  18
BRANCH   1  26
HETATM   26  S   UNL     1       7.187  23.735  56.113  1.00  0.00    -0.090 SA
BRANCH  26  27
HETATM   27  C   UNL     1       8.740  23.356  55.251  1.00  0.00     0.082 C 
BRANCH  27  28
HETATM   28  C   UNL     1       8.441  22.937  53.815  1.00  0.00     0.006 C 
HETATM   29  C   UNL     1       7.848  21.537  53.761  1.00  0.00     0.006 C 
ENDBRANCH  27  28
ENDBRANCH  26  27
ENDBRANCH   1  26
TORSDOF 8
ENDMDL
MODEL 8
REMARK VINA RESULT:      -7.9      4.222      7.361
REMARK  8 active torsions:
REMARK  status: ('A' for Active; 'I' for Inactive)
REMARK    1  A    between atoms: C_2  and  C_3 
REMARK    2  A    between atoms: C_3  and  S_4 
REMARK    3  A    between atoms: S_4  and  C_5 
REMARK    4  A    between atoms: N_6  and  C_7 
REMARK    5  A    between atoms: C_8  and  O_9 
REMARK    6  A    between atoms: C_15  and  C_16 
REMARK    7  A    between atoms: C_16  and  N_17 
REMARK       I    between atoms: N_17  and  C_18 
REMARK    8  A    between atoms: C_18  and  C_19 
ROOT
HETATM    1  C   UNL     1       7.024  24.796  53.953  1.00  0.00     0.196 A 
HETATM    2  N   UNL     1       6.543  26.093  53.973  1.00  0.00    -0.271 N 
HETATM    3  C   UNL     1       5.681  26.148  52.884  1.00  0.00     0.153 A 
HETATM    4  N   UNL     1       5.667  24.977  52.271  1.00  0.00    -0.132 NA
HETATM    5  N   UNL     1       6.499  24.129  52.950  1.00  0.00    -0.122 NA
ENDROOT
BRANCH   3   6
HETATM    6  C   UNL     1       4.982  27.363  52.393  1.00  0.00     0.204 C 
BRANCH   6   7
HETATM    7  N   UNL     1       4.186  27.009  51.239  1.00  0.00    -0.350 N 
HETATM    8  C   UNL     1       4.516  27.478  49.986  1.00  0.00     0.252 C 
HETATM    9  O   UNL     1       5.541  28.120  49.771  1.00  0.00    -0.268 OA
HETATM   10  H   UNL     1       3.248  26.680  51.424  1.00  0.00     0.163 HD
BRANCH   8  11
HETATM   11  C   UNL     1       3.553  27.212  48.877  1.00  0.00     0.032 A 
HETATM   12  C   UNL     1       2.566  28.130  48.489  1.00  0.00     0.023 A 
HETATM   13  C   UNL     1       1.703  27.837  47.420  1.00  0.00    -0.061 A 
HETATM   14  C   UNL     1       0.636  28.810  47.012  1.00  0.00     0.048 C 
HETATM   15  C   UNL     1       1.808  26.600  46.772  1.00  0.00     0.007 A 
HETATM   16  C   UNL     1       2.773  25.674  47.169  1.00  0.00     0.002 A 
HETATM   17  C   UNL     1       3.643  25.980  48.215  1.00  0.00     0.017 A 
ENDBRANCH   8  11
ENDBRANCH   6   7
ENDBRANCH   3   6
BRANCH   2  18
HETATM   18  C   UNL     1       6.793  27.112  54.923  1.00  0.00     0.076 A 
HETATM   19  C   UNL     1       5.940  27.299  56.024  1.00  0.00     0.095 A 
HETATM   20  C   UNL     1       6.227  28.324  56.933  1.00  0.00     0.039 A 
HETATM   21  C   UNL     1       7.331  29.158  56.740  1.00  0.00     0.003 A 
HETATM   22  C   UNL     1       8.165  28.973  55.642  1.00  0.00     0.002 A 
HETATM   23  C   UNL     1       7.901  27.952  54.732  1.00  0.00     0.033 A 
BRANCH  19  24
HETATM   24  O   UNL     1       4.934  26.392  56.220  1.00  0.00    -0.354 OA
HETATM   25  C   UNL     1       5.159  25.431  57.248  1.00  0.00     0.210 C 
ENDBRANCH  19  24
ENDBRANCH   2  18
BRANCH   1  26
HETATM   26  S   UNL     1       7.988  24.057  55.193  1.00  0.00    -0.090 SA
BRANCH  26  27
HETATM   27  C   UNL     1       7.631  22.308  54.861  1.00  0.00     0.082 C 
BRANCH  27  28
HETATM   28  C   UNL     1       8.741  21.712  54.001  1.00  0.00     0.006 C 
HETATM   29  C   UNL     1       8.192  20.678  53.030  1.00  0.00     0.006 C 
ENDBRANCH  27  28
ENDBRANCH  26  27
ENDBRANCH   1  26
TORSDOF 8
ENDMDL
MODEL 9
REMARK VINA RESULT:      -7.9      2.616      7.377
REMARK  8 active torsions:
REMARK  status: ('A' for Active; 'I' for Inactive)
REMARK    1  A    between atoms: C_2  and  C_3 
REMARK    2  A    between atoms: C_3  and  S_4 
REMARK    3  A    between atoms: S_4  and  C_5 
REMARK    4  A    between atoms: N_6  and  C_7 
REMARK    5  A    between atoms: C_8  and  O_9 
REMARK    6  A    between atoms: C_15  and  C_16 
REMARK    7  A    between atoms: C_16  and  N_17 
REMARK       I    between atoms: N_17  and  C_18 
REMARK    8  A    between atoms: C_18  and  C_19 
ROOT
HETATM    1  C   UNL     1       7.388  23.770  55.447  1.00  0.00     0.196 A 
HETATM    2  N   UNL     1       6.704  24.955  55.247  1.00  0.00    -0.271 N 
HETATM    3  C   UNL     1       6.721  25.567  56.495  1.00  0.00     0.153 A 
HETATM    4  N   UNL     1       7.357  24.794  57.357  1.00  0.00    -0.132 NA
HETATM    5  N   UNL     1       7.786  23.675  56.696  1.00  0.00    -0.122 NA
ENDROOT
BRANCH   3   6
HETATM    6  C   UNL     1       6.021  26.827  56.851  1.00  0.00     0.204 C 
BRANCH   6   7
HETATM    7  N   UNL     1       6.965  27.723  57.482  1.00  0.00    -0.350 N 
HETATM    8  C   UNL     1       6.681  29.065  57.615  1.00  0.00     0.252 C 
HETATM    9  O   UNL     1       5.590  29.541  57.309  1.00  0.00    -0.268 OA
HETATM   10  H   UNL     1       7.923  27.402  57.533  1.00  0.00     0.163 HD
BRANCH   8  11
HETATM   11  C   UNL     1       7.771  29.951  58.117  1.00  0.00     0.032 A 
HETATM   12  C   UNL     1       7.582  30.881  59.150  1.00  0.00     0.023 A 
HETATM   13  C   UNL     1       8.652  31.672  59.600  1.00  0.00    -0.061 A 
HETATM   14  C   UNL     1       8.450  32.679  60.694  1.00  0.00     0.048 C 
HETATM   15  C   UNL     1       9.901  31.555  58.978  1.00  0.00     0.007 A 
HETATM   16  C   UNL     1      10.089  30.648  57.936  1.00  0.00     0.002 A 
HETATM   17  C   UNL     1       9.030  29.848  57.508  1.00  0.00     0.017 A 
ENDBRANCH   8  11
ENDBRANCH   6   7
ENDBRANCH   3   6
BRANCH   2  18
HETATM   18  C   UNL     1       6.178  25.478  54.041  1.00  0.00     0.076 A 
HETATM   19  C   UNL     1       6.809  26.546  53.381  1.00  0.00     0.095 A 
HETATM   20  C   UNL     1       6.248  27.031  52.193  1.00  0.00     0.039 A 
HETATM   21  C   UNL     1       5.071  26.476  51.684  1.00  0.00     0.003 A 
HETATM   22  C   UNL     1       4.446  25.426  52.349  1.00  0.00     0.002 A 
HETATM   23  C   UNL     1       4.996  24.924  53.527  1.00  0.00     0.033 A 
BRANCH  19  24
HETATM   24  O   UNL     1       8.012  26.983  53.867  1.00  0.00    -0.354 OA
HETATM   25  C   UNL     1       8.083  28.371  54.182  1.00  0.00     0.210 C 
ENDBRANCH  19  24
ENDBRANCH   2  18
BRANCH   1  26
HETATM   26  S   UNL     1       7.877  22.664  54.201  1.00  0.00    -0.090 SA
BRANCH  26  27
HETATM   27  C   UNL     1       7.911  21.119  55.156  1.00  0.00     0.082 C 
BRANCH  27  28
HETATM   28  C   UNL     1       8.660  20.047  54.370  1.00  0.00     0.006 C 
HETATM   29  C   UNL     1       8.527  20.269  52.871  1.00  0.00     0.006 C 
ENDBRANCH  27  28
ENDBRANCH  26  27
ENDBRANCH   1  26
TORSDOF 8
ENDMDL
MODEL 10
REMARK VINA RESULT:      -7.8      4.732      8.016
REMARK  8 active torsions:
REMARK  status: ('A' for Active; 'I' for Inactive)
REMARK    1  A    between atoms: C_2  and  C_3 
REMARK    2  A    between atoms: C_3  and  S_4 
REMARK    3  A    between atoms: S_4  and  C_5 
REMARK    4  A    between atoms: N_6  and  C_7 
REMARK    5  A    between atoms: C_8  and  O_9 
REMARK    6  A    between atoms: C_15  and  C_16 
REMARK    7  A    between atoms: C_16  and  N_17 
REMARK       I    between atoms: N_17  and  C_18 
REMARK    8  A    between atoms: C_18  and  C_19 
ROOT
HETATM    1  C   UNL     1       6.660  27.907  53.136  1.00  0.00     0.196 A 
HETATM    2  N   UNL     1       6.368  26.679  52.570  1.00  0.00    -0.271 N 
HETATM    3  C   UNL     1       5.616  26.998  51.445  1.00  0.00     0.153 A 
HETATM    4  N   UNL     1       5.475  28.309  51.365  1.00  0.00    -0.132 NA
HETATM    5  N   UNL     1       6.139  28.877  52.418  1.00  0.00    -0.122 NA
ENDROOT
BRANCH   3   6
HETATM    6  C   UNL     1       4.956  26.024  50.539  1.00  0.00     0.204 C 
BRANCH   6   7
HETATM    7  N   UNL     1       3.938  26.711  49.776  1.00  0.00    -0.350 N 
HETATM    8  C   UNL     1       4.039  26.821  48.406  1.00  0.00     0.252 C 
HETATM    9  O   UNL     1       4.925  26.261  47.764  1.00  0.00    -0.268 OA
HETATM   10  H   UNL     1       3.344  27.347  50.291  1.00  0.00     0.163 HD
BRANCH   8  11
HETATM   11  C   UNL     1       3.045  27.689  47.711  1.00  0.00     0.032 A 
HETATM   12  C   UNL     1       1.822  27.206  47.222  1.00  0.00     0.023 A 
HETATM   13  C   UNL     1       0.913  28.076  46.599  1.00  0.00    -0.061 A 
HETATM   14  C   UNL     1      -0.390  27.560  46.060  1.00  0.00     0.048 C 
HETATM   15  C   UNL     1       1.255  29.423  46.430  1.00  0.00     0.007 A 
HETATM   16  C   UNL     1       2.479  29.904  46.895  1.00  0.00     0.002 A 
HETATM   17  C   UNL     1       3.369  29.041  47.534  1.00  0.00     0.017 A 
ENDBRANCH   8  11
ENDBRANCH   6   7
ENDBRANCH   3   6
BRANCH   2  18
HETATM   18  C   UNL     1       6.797  25.394  52.981  1.00  0.00     0.076 A 
HETATM   19  C   UNL     1       6.309  24.812  54.162  1.00  0.00     0.095 A 
HETATM   20  C   UNL     1       6.767  23.541  54.528  1.00  0.00     0.039 A 
HETATM   21  C   UNL     1       7.708  22.870  53.742  1.00  0.00     0.003 A 
HETATM   22  C   UNL     1       8.194  23.457  52.579  1.00  0.00     0.002 A 
HETATM   23  C   UNL     1       7.742  24.718  52.193  1.00  0.00     0.033 A 
BRANCH  19  24
HETATM   24  O   UNL     1       5.316  25.467  54.840  1.00  0.00    -0.354 OA
HETATM   25  C   UNL     1       5.506  25.594  56.246  1.00  0.00     0.210 C 
ENDBRANCH  19  24
ENDBRANCH   2  18
BRANCH   1  26
HETATM   26  S   UNL     1       7.752  28.176  54.458  1.00  0.00    -0.090 SA
BRANCH  26  27
HETATM   27  C   UNL     1       6.654  29.082  55.586  1.00  0.00     0.082 C 
BRANCH  27  28
HETATM   28  C   UNL     1       7.409  29.435  56.863  1.00  0.00     0.006 C 
HETATM   29  C   UNL     1       7.643  28.202  57.724  1.00  0.00     0.006 C 
ENDBRANCH  27  28
ENDBRANCH  26  27
ENDBRANCH   1  26
TORSDOF 8
ENDMDL
