MODEL 1
REMARK VINA RESULT:      -8.0      0.000      0.000
REMARK  2 active torsions:
REMARK  status: ('A' for Active; 'I' for Inactive)
REMARK    1  A    between atoms: C_8  and  S_9 
REMARK    2  A    between atoms: S_9  and  C_10 
ROOT
HETATM    1  C   UNL     1       8.673  20.387  53.436  1.00  0.00     0.002 A 
HETATM    2  C   UNL     1       8.411  21.709  53.078  1.00  0.00     0.034 A 
HETATM    3  C   UNL     1       8.040  22.653  54.027  1.00  0.00     0.087 A 
HETATM    4  C   UNL     1       7.932  22.262  55.387  1.00  0.00     0.087 A 
HETATM    5  N   UNL     1       7.576  23.140  56.344  1.00  0.00    -0.232 NA
HETATM    6  C   UNL     1       7.362  24.418  55.955  1.00  0.00     0.164 A 
HETATM    7 CL   UNL     1       6.850  25.438  57.232  1.00  0.00    -0.059 Cl
HETATM    8  C   UNL     1       7.468  24.797  54.629  1.00  0.00     0.165 A 
HETATM    9  N   UNL     1       7.786  23.921  53.640  1.00  0.00    -0.234 NA
HETATM   10  C   UNL     1       8.193  20.941  55.729  1.00  0.00     0.034 A 
HETATM   11  C   UNL     1       8.562  20.002  54.766  1.00  0.00     0.002 A 
ENDROOT
BRANCH   8  12
HETATM   12  S   UNL     1       7.189  26.408  53.920  1.00  0.00     0.076 S 
HETATM   13  O   UNL     1       7.610  27.443  54.914  1.00  0.00    -0.251 OA
BRANCH  12  14
HETATM   14  C   UNL     1       5.350  26.395  53.900  1.00  0.00     0.089 C 
HETATM   15  C   UNL     1       4.805  25.281  52.999  1.00  0.00     0.045 C 
HETATM   16  C   UNL     1       5.070  25.538  51.521  1.00  0.00     0.233 C 
HETATM   17  N   UNL     1       4.544  26.884  51.149  1.00  0.00    -0.075 N 
HETATM   18  H   UNL     1       3.515  26.888  51.211  1.00  0.00     0.277 HD
HETATM   19  H   UNL     1       4.751  27.057  50.153  1.00  0.00     0.277 HD
HETATM   20  C   UNL     1       5.099  28.015  51.952  1.00  0.00     0.233 C 
HETATM   21  C   UNL     1       4.828  27.761  53.428  1.00  0.00     0.045 C 
ENDBRANCH  12  14
ENDBRANCH   8  12
TORSDOF 2
ENDMDL
MODEL 2
REMARK VINA RESULT:      -7.9      2.563      3.561
REMARK  2 active torsions:
REMARK  status: ('A' for Active; 'I' for Inactive)
REMARK    1  A    between atoms: C_8  and  S_9 
REMARK    2  A    between atoms: S_9  and  C_10 
ROOT
HETATM    1  C   UNL     1       8.357  20.174  55.702  1.00  0.00     0.002 A 
HETATM    2  C   UNL     1       7.731  21.382  56.006  1.00  0.00     0.034 A 
HETATM    3  C   UNL     1       7.549  22.363  55.040  1.00  0.00     0.087 A 
HETATM    4  C   UNL     1       8.007  22.125  53.717  1.00  0.00     0.087 A 
HETATM    5  N   UNL     1       7.853  23.045  52.746  1.00  0.00    -0.232 NA
HETATM    6  C   UNL     1       7.212  24.188  53.079  1.00  0.00     0.164 A 
HETATM    7 CL   UNL     1       7.129  25.317  51.793  1.00  0.00    -0.059 Cl
HETATM    8  C   UNL     1       6.767  24.418  54.368  1.00  0.00     0.165 A 
HETATM    9  N   UNL     1       6.946  23.523  55.374  1.00  0.00    -0.234 NA
HETATM   10  C   UNL     1       8.632  20.918  53.430  1.00  0.00     0.034 A 
HETATM   11  C   UNL     1       8.811  19.942  54.410  1.00  0.00     0.002 A 
ENDROOT
BRANCH   8  12
HETATM   12  S   UNL     1       5.944  25.864  55.006  1.00  0.00     0.076 S 
HETATM   13  O   UNL     1       5.067  26.423  53.931  1.00  0.00    -0.251 OA
BRANCH  12  14
HETATM   14  C   UNL     1       7.400  26.978  55.150  1.00  0.00     0.089 C 
HETATM   15  C   UNL     1       8.058  26.869  56.530  1.00  0.00     0.045 C 
HETATM   16  C   UNL     1       7.191  27.445  57.642  1.00  0.00     0.233 C 
HETATM   17  N   UNL     1       6.809  28.846  57.300  1.00  0.00    -0.075 N 
HETATM   18  H   UNL     1       7.644  29.450  57.312  1.00  0.00     0.277 HD
HETATM   19  H   UNL     1       6.202  29.216  58.048  1.00  0.00     0.277 HD
HETATM   20  C   UNL     1       6.099  28.998  55.993  1.00  0.00     0.233 C 
HETATM   21  C   UNL     1       6.969  28.429  54.882  1.00  0.00     0.045 C 
ENDBRANCH  12  14
ENDBRANCH   8  12
TORSDOF 2
ENDMDL
MODEL 3
REMARK VINA RESULT:      -7.7      1.991      2.722
REMARK  2 active torsions:
REMARK  status: ('A' for Active; 'I' for Inactive)
REMARK    1  A    between atoms: C_8  and  S_9 
REMARK    2  A    between atoms: S_9  and  C_10 
ROOT
HETATM    1  C   UNL     1       8.612  20.454  56.212  1.00  0.00     0.002 A 
HETATM    2  C   UNL     1       8.371  21.811  56.425  1.00  0.00     0.034 A 
HETATM    3  C   UNL     1       8.144  22.678  55.364  1.00  0.00     0.087 A 
HETATM    4  C   UNL     1       8.155  22.169  54.039  1.00  0.00     0.087 A 
HETATM    5  N   UNL     1       7.940  22.970  52.978  1.00  0.00    -0.232 NA
HETATM    6  C   UNL     1       7.679  24.271  53.235  1.00  0.00     0.164 A 
HETATM    7 CL   UNL     1       7.488  25.216  51.819  1.00  0.00    -0.059 Cl
HETATM    8  C   UNL     1       7.670  24.766  54.527  1.00  0.00     0.165 A 
HETATM    9  N   UNL     1       7.923  23.986  55.610  1.00  0.00    -0.234 NA
HETATM   10  C   UNL     1       8.400  20.816  53.842  1.00  0.00     0.034 A 
HETATM   11  C   UNL     1       8.628  19.955  54.915  1.00  0.00     0.002 A 
ENDROOT
BRANCH   8  12
HETATM   12  S   UNL     1       7.389  26.443  55.061  1.00  0.00     0.076 S 
HETATM   13  O   UNL     1       7.859  26.575  56.475  1.00  0.00    -0.251 OA
BRANCH  12  14
HETATM   14  C   UNL     1       5.550  26.423  55.103  1.00  0.00     0.089 C 
HETATM   15  C   UNL     1       4.952  26.844  53.756  1.00  0.00     0.045 C 
HETATM   16  C   UNL     1       5.179  28.318  53.447  1.00  0.00     0.233 C 
HETATM   17  N   UNL     1       4.676  29.147  54.581  1.00  0.00    -0.075 N 
HETATM   18  H   UNL     1       3.650  29.072  54.642  1.00  0.00     0.277 HD
HETATM   19  H   UNL     1       4.858  30.140  54.371  1.00  0.00     0.277 HD
HETATM   20  C   UNL     1       5.282  28.823  55.908  1.00  0.00     0.233 C 
HETATM   21  C   UNL     1       5.048  27.352  56.219  1.00  0.00     0.045 C 
ENDBRANCH  12  14
ENDBRANCH   8  12
TORSDOF 2
ENDMDL
MODEL 4
REMARK VINA RESULT:      -7.7      1.830      2.203
REMARK  2 active torsions:
REMARK  status: ('A' for Active; 'I' for Inactive)
REMARK    1  A    between atoms: C_8  and  S_9 
REMARK    2  A    between atoms: S_9  and  C_10 
ROOT
HETATM    1  C   UNL     1       8.707  20.460  53.524  1.00  0.00     0.002 A 
HETATM    2  C   UNL     1       7.891  21.542  53.194  1.00  0.00     0.034 A 
HETATM    3  C   UNL     1       7.520  22.483  54.147  1.00  0.00     0.087 A 
HETATM    4  C   UNL     1       7.988  22.339  55.479  1.00  0.00     0.087 A 
HETATM    5  N   UNL     1       7.657  23.225  56.438  1.00  0.00    -0.232 NA
HETATM    6  C   UNL     1       6.890  24.274  56.065  1.00  0.00     0.164 A 
HETATM    7 CL   UNL     1       6.470  25.303  57.368  1.00  0.00    -0.059 Cl
HETATM    8  C   UNL     1       6.434  24.412  54.766  1.00  0.00     0.165 A 
HETATM    9  N   UNL     1       6.722  23.511  53.791  1.00  0.00    -0.234 NA
HETATM   10  C   UNL     1       8.798  21.255  55.794  1.00  0.00     0.034 A 
HETATM   11  C   UNL     1       9.161  20.316  54.829  1.00  0.00     0.002 A 
ENDROOT
BRANCH   8  12
HETATM   12  S   UNL     1       5.391  25.691  54.096  1.00  0.00     0.076 S 
HETATM   13  O   UNL     1       4.747  25.173  52.848  1.00  0.00    -0.251 OA
BRANCH  12  14
HETATM   14  C   UNL     1       6.695  26.879  53.577  1.00  0.00     0.089 C 
HETATM   15  C   UNL     1       7.279  27.633  54.777  1.00  0.00     0.045 C 
HETATM   16  C   UNL     1       6.287  28.607  55.399  1.00  0.00     0.233 C 
HETATM   17  N   UNL     1       5.765  29.525  54.344  1.00  0.00    -0.075 N 
HETATM   18  H   UNL     1       6.522  30.138  54.008  1.00  0.00     0.277 HD
HETATM   19  H   UNL     1       5.076  30.163  54.772  1.00  0.00     0.277 HD
HETATM   20  C   UNL     1       5.120  28.840  53.183  1.00  0.00     0.233 C 
HETATM   21  C   UNL     1       6.115  27.872  52.558  1.00  0.00     0.045 C 
ENDBRANCH  12  14
ENDBRANCH   8  12
TORSDOF 2
ENDMDL
MODEL 5
REMARK VINA RESULT:      -7.3      2.199      6.019
REMARK  2 active torsions:
REMARK  status: ('A' for Active; 'I' for Inactive)
REMARK    1  A    between atoms: C_8  and  S_9 
REMARK    2  A    between atoms: S_9  and  C_10 
ROOT
HETATM    1  C   UNL     1       4.303  27.958  54.327  1.00  0.00     0.002 A 
HETATM    2  C   UNL     1       5.115  26.922  53.866  1.00  0.00     0.034 A 
HETATM    3  C   UNL     1       6.021  26.287  54.705  1.00  0.00     0.087 A 
HETATM    4  C   UNL     1       6.116  26.701  56.060  1.00  0.00     0.087 A 
HETATM    5  N   UNL     1       6.979  26.116  56.913  1.00  0.00    -0.232 NA
HETATM    6  C   UNL     1       7.723  25.095  56.429  1.00  0.00     0.164 A 
HETATM    7 CL   UNL     1       8.834  24.467  57.572  1.00  0.00    -0.059 Cl
HETATM    8  C   UNL     1       7.629  24.694  55.109  1.00  0.00     0.165 A 
HETATM    9  N   UNL     1       6.795  25.294  54.220  1.00  0.00    -0.234 NA
HETATM   10  C   UNL     1       5.305  27.736  56.505  1.00  0.00     0.034 A 
HETATM   11  C   UNL     1       4.400  28.367  55.651  1.00  0.00     0.002 A 
ENDROOT
BRANCH   8  12
HETATM   12  S   UNL     1       8.544  23.408  54.282  1.00  0.00     0.076 S 
HETATM   13  O   UNL     1       8.467  23.645  52.807  1.00  0.00    -0.251 OA
BRANCH  12  14
HETATM   14  C   UNL     1       7.441  21.987  54.659  1.00  0.00     0.089 C 
HETATM   15  C   UNL     1       7.756  21.378  56.030  1.00  0.00     0.045 C 
HETATM   16  C   UNL     1       9.102  20.665  56.061  1.00  0.00     0.233 C 
HETATM   17  N   UNL     1       9.156  19.658  54.961  1.00  0.00    -0.075 N 
HETATM   18  H   UNL     1       8.481  18.901  55.145  1.00  0.00     0.277 HD
HETATM   19  H   UNL     1      10.080  19.200  54.977  1.00  0.00     0.277 HD
HETATM   20  C   UNL     1       8.926  20.214  53.593  1.00  0.00     0.233 C 
HETATM   21  C   UNL     1       7.578  20.920  53.562  1.00  0.00     0.045 C 
ENDBRANCH  12  14
ENDBRANCH   8  12
TORSDOF 2
ENDMDL
MODEL 6
REMARK VINA RESULT:      -7.3      3.336      4.290
REMARK  2 active torsions:
REMARK  status: ('A' for Active; 'I' for Inactive)
REMARK    1  A    between atoms: C_8  and  S_9 
REMARK    2  A    between atoms: S_9  and  C_10 
ROOT
HETATM    1  C   UNL     1       9.077  22.249  54.792  1.00  0.00     0.002 A 
HETATM    2  C   UNL     1       8.618  23.308  55.575  1.00  0.00     0.034 A 
HETATM    3  C   UNL     1       7.704  24.229  55.078  1.00  0.00     0.087 A 
HETATM    4  C   UNL     1       7.228  24.083  53.749  1.00  0.00     0.087 A 
HETATM    5  N   UNL     1       6.342  24.950  53.223  1.00  0.00    -0.232 NA
HETATM    6  C   UNL     1       5.901  25.942  54.029  1.00  0.00     0.164 A 
HETATM    7 CL   UNL     1       4.832  27.026  53.244  1.00  0.00    -0.059 Cl
HETATM    8  C   UNL     1       6.367  26.083  55.323  1.00  0.00     0.165 A 
HETATM    9  N   UNL     1       7.290  25.245  55.864  1.00  0.00    -0.234 NA
HETATM   10  C   UNL     1       7.696  23.026  52.980  1.00  0.00     0.034 A 
HETATM   11  C   UNL     1       8.616  22.108  53.489  1.00  0.00     0.002 A 
ENDROOT
BRANCH   8  12
HETATM   12  S   UNL     1       5.940  27.336  56.516  1.00  0.00     0.076 S 
HETATM   13  O   UNL     1       4.472  27.606  56.415  1.00  0.00    -0.251 OA
BRANCH  12  14
HETATM   14  C   UNL     1       6.806  28.765  55.748  1.00  0.00     0.089 C 
HETATM   15  C   UNL     1       8.321  28.690  55.969  1.00  0.00     0.045 C 
HETATM   16  C   UNL     1       8.715  28.911  57.423  1.00  0.00     0.233 C 
HETATM   17  N   UNL     1       8.129  30.196  57.906  1.00  0.00    -0.075 N 
HETATM   18  H   UNL     1       8.570  30.988  57.417  1.00  0.00     0.277 HD
HETATM   19  H   UNL     1       8.382  30.322  58.899  1.00  0.00     0.277 HD
HETATM   20  C   UNL     1       6.643  30.291  57.779  1.00  0.00     0.233 C 
HETATM   21  C   UNL     1       6.252  30.077  56.324  1.00  0.00     0.045 C 
ENDBRANCH  12  14
ENDBRANCH   8  12
TORSDOF 2
ENDMDL
MODEL 7
REMARK VINA RESULT:      -7.1      6.463      8.296
REMARK  2 active torsions:
REMARK  status: ('A' for Active; 'I' for Inactive)
REMARK    1  A    between atoms: C_8  and  S_9 
REMARK    2  A    between atoms: S_9  and  C_10 
ROOT
HETATM    1  C   UNL     1       7.449  32.605  62.026  1.00  0.00     0.002 A 
HETATM    2  C   UNL     1       6.819  32.327  60.813  1.00  0.00     0.034 A 
HETATM    3  C   UNL     1       7.383  31.455  59.891  1.00  0.00     0.087 A 
HETATM    4  C   UNL     1       8.623  30.833  60.194  1.00  0.00     0.087 A 
HETATM    5  N   UNL     1       9.209  29.981  59.333  1.00  0.00    -0.232 NA
HETATM    6  C   UNL     1       8.546  29.718  58.184  1.00  0.00     0.164 A 
HETATM    7 CL   UNL     1       9.406  28.677  57.129  1.00  0.00    -0.059 Cl
HETATM    8  C   UNL     1       7.339  30.325  57.889  1.00  0.00     0.165 A 
HETATM    9  N   UNL     1       6.747  31.219  58.725  1.00  0.00    -0.234 NA
HETATM   10  C   UNL     1       9.241  31.122  61.405  1.00  0.00     0.034 A 
HETATM   11  C   UNL     1       8.665  32.001  62.322  1.00  0.00     0.002 A 
ENDROOT
BRANCH   8  12
HETATM   12  S   UNL     1       6.343  30.140  56.424  1.00  0.00     0.076 S 
HETATM   13  O   UNL     1       5.497  31.364  56.268  1.00  0.00    -0.251 OA
BRANCH  12  14
HETATM   14  C   UNL     1       5.236  28.790  57.002  1.00  0.00     0.089 C 
HETATM   15  C   UNL     1       5.928  27.424  56.926  1.00  0.00     0.045 C 
HETATM   16  C   UNL     1       6.160  26.961  55.493  1.00  0.00     0.233 C 
HETATM   17  N   UNL     1       4.868  26.991  54.746  1.00  0.00    -0.075 N 
HETATM   18  H   UNL     1       4.227  26.280  55.126  1.00  0.00     0.277 HD
HETATM   19  H   UNL     1       5.042  26.700  53.772  1.00  0.00     0.277 HD
HETATM   20  C   UNL     1       4.187  28.322  54.730  1.00  0.00     0.233 C 
HETATM   21  C   UNL     1       3.950  28.780  56.162  1.00  0.00     0.045 C 
ENDBRANCH  12  14
ENDBRANCH   8  12
TORSDOF 2
ENDMDL
MODEL 8
REMARK VINA RESULT:      -7.1      2.995      6.077
REMARK  2 active torsions:
REMARK  status: ('A' for Active; 'I' for Inactive)
REMARK    1  A    between atoms: C_8  and  S_9 
REMARK    2  A    between atoms: S_9  and  C_10 
ROOT
HETATM    1  C   UNL     1       7.766  29.035  57.737  1.00  0.00     0.002 A 
HETATM    2  C   UNL     1       8.249  28.060  56.864  1.00  0.00     0.034 A 
HETATM    3  C   UNL     1       7.420  27.456  55.927  1.00  0.00     0.087 A 
HETATM    4  C   UNL     1       6.056  27.845  55.858  1.00  0.00     0.087 A 
HETATM    5  N   UNL     1       5.213  27.288  54.967  1.00  0.00    -0.232 NA
HETATM    6  C   UNL     1       5.733  26.371  54.120  1.00  0.00     0.164 A 
HETATM    7 CL   UNL     1       4.566  25.677  53.075  1.00  0.00    -0.059 Cl
HETATM    8  C   UNL     1       7.061  25.994  54.190  1.00  0.00     0.165 A 
HETATM    9  N   UNL     1       7.922  26.511  55.105  1.00  0.00    -0.234 NA
HETATM   10  C   UNL     1       5.588  28.814  56.736  1.00  0.00     0.034 A 
HETATM   11  C   UNL     1       6.430  29.411  57.674  1.00  0.00     0.002 A 
ENDROOT
BRANCH   8  12
HETATM   12  S   UNL     1       7.915  24.785  53.197  1.00  0.00     0.076 S 
HETATM   13  O   UNL     1       7.465  24.933  51.778  1.00  0.00    -0.251 OA
BRANCH  12  14
HETATM   14  C   UNL     1       7.124  23.264  53.860  1.00  0.00     0.089 C 
HETATM   15  C   UNL     1       7.228  23.194  55.387  1.00  0.00     0.045 C 
HETATM   16  C   UNL     1       8.654  22.964  55.870  1.00  0.00     0.233 C 
HETATM   17  N   UNL     1       9.215  21.753  55.202  1.00  0.00    -0.075 N 
HETATM   18  H   UNL     1       8.716  20.912  55.526  1.00  0.00     0.277 HD
HETATM   19  H   UNL     1      10.188  21.623  55.518  1.00  0.00     0.277 HD
HETATM   20  C   UNL     1       9.202  21.801  53.709  1.00  0.00     0.233 C 
HETATM   21  C   UNL     1       7.776  22.024  53.228  1.00  0.00     0.045 C 
ENDBRANCH  12  14
ENDBRANCH   8  12
TORSDOF 2
ENDMDL
MODEL 9
REMARK VINA RESULT:      -7.1      3.049      6.233
REMARK  2 active torsions:
REMARK  status: ('A' for Active; 'I' for Inactive)
REMARK    1  A    between atoms: C_8  and  S_9 
REMARK    2  A    between atoms: S_9  and  C_10 
ROOT
HETATM    1  C   UNL     1       8.083  28.917  57.503  1.00  0.00     0.002 A 
HETATM    2  C   UNL     1       8.190  27.527  57.467  1.00  0.00     0.034 A 
HETATM    3  C   UNL     1       7.545  26.779  56.491  1.00  0.00     0.087 A 
HETATM    4  C   UNL     1       6.766  27.447  55.510  1.00  0.00     0.087 A 
HETATM    5  N   UNL     1       6.122  26.767  54.543  1.00  0.00    -0.232 NA
HETATM    6  C   UNL     1       6.280  25.424  54.528  1.00  0.00     0.164 A 
HETATM    7 CL   UNL     1       5.367  24.648  53.304  1.00  0.00    -0.059 Cl
HETATM    8  C   UNL     1       7.038  24.774  55.485  1.00  0.00     0.165 A 
HETATM    9  N   UNL     1       7.665  25.435  56.494  1.00  0.00    -0.234 NA
HETATM   10  C   UNL     1       6.666  28.832  55.560  1.00  0.00     0.034 A 
HETATM   11  C   UNL     1       7.317  29.571  56.547  1.00  0.00     0.002 A 
ENDROOT
BRANCH   8  12
HETATM   12  S   UNL     1       7.330  23.025  55.657  1.00  0.00     0.076 S 
HETATM   13  O   UNL     1       7.960  22.779  56.992  1.00  0.00    -0.251 OA
BRANCH  12  14
HETATM   14  C   UNL     1       8.651  22.833  54.392  1.00  0.00     0.089 C 
HETATM   15  C   UNL     1       8.087  22.321  53.063  1.00  0.00     0.045 C 
HETATM   16  C   UNL     1       7.607  20.878  53.144  1.00  0.00     0.233 C 
HETATM   17  N   UNL     1       8.707  20.017  53.668  1.00  0.00    -0.075 N 
HETATM   18  H   UNL     1       9.475  19.974  52.983  1.00  0.00     0.277 HD
HETATM   19  H   UNL     1       8.362  19.047  53.742  1.00  0.00     0.277 HD
HETATM   20  C   UNL     1       9.245  20.433  54.999  1.00  0.00     0.233 C 
HETATM   21  C   UNL     1       9.731  21.873  54.914  1.00  0.00     0.045 C 
ENDBRANCH  12  14
ENDBRANCH   8  12
TORSDOF 2
ENDMDL
MODEL 10
REMARK VINA RESULT:      -7.0      3.486      4.394
REMARK  2 active torsions:
REMARK  status: ('A' for Active; 'I' for Inactive)
REMARK    1  A    between atoms: C_8  and  S_9 
REMARK    2  A    between atoms: S_9  and  C_10 
ROOT
HETATM    1  C   UNL     1       8.552  22.457  55.504  1.00  0.00     0.002 A 
HETATM    2  C   UNL     1       8.451  23.797  55.879  1.00  0.00     0.034 A 
HETATM    3  C   UNL     1       7.872  24.739  55.039  1.00  0.00     0.087 A 
HETATM    4  C   UNL     1       7.370  24.325  53.777  1.00  0.00     0.087 A 
HETATM    5  N   UNL     1       6.800  25.201  52.928  1.00  0.00    -0.232 NA
HETATM    6  C   UNL     1       6.696  26.482  53.346  1.00  0.00     0.164 A 
HETATM    7 CL   UNL     1       6.020  27.527  52.169  1.00  0.00    -0.059 Cl
HETATM    8  C   UNL     1       7.186  26.884  54.576  1.00  0.00     0.165 A 
HETATM    9  N   UNL     1       7.801  26.027  55.433  1.00  0.00    -0.234 NA
HETATM   10  C   UNL     1       7.480  22.988  53.415  1.00  0.00     0.034 A 
HETATM   11  C   UNL     1       8.066  22.052  54.267  1.00  0.00     0.002 A 
ENDROOT
BRANCH   8  12
HETATM   12  S   UNL     1       7.179  28.519  55.283  1.00  0.00     0.076 S 
HETATM   13  O   UNL     1       8.579  29.045  55.275  1.00  0.00    -0.251 OA
BRANCH  12  14
HETATM   14  C   UNL     1       6.778  28.075  57.021  1.00  0.00     0.089 C 
HETATM   15  C   UNL     1       5.296  28.309  57.334  1.00  0.00     0.045 C 
HETATM   16  C   UNL     1       4.927  29.787  57.362  1.00  0.00     0.233 C 
HETATM   17  N   UNL     1       5.832  30.507  58.305  1.00  0.00    -0.075 N 
HETATM   18  H   UNL     1       5.650  30.198  59.271  1.00  0.00     0.277 HD
HETATM   19  H   UNL     1       5.588  31.509  58.297  1.00  0.00     0.277 HD
HETATM   20  C   UNL     1       7.288  30.369  58.001  1.00  0.00     0.233 C 
HETATM   21  C   UNL     1       7.657  28.893  57.980  1.00  0.00     0.045 C 
ENDBRANCH  12  14
ENDBRANCH   8  12
TORSDOF 2
ENDMDL
