MODEL 1
REMARK VINA RESULT:      -9.7      0.000      0.000
REMARK  6 active torsions:
REMARK  status: ('A' for Active; 'I' for Inactive)
REMARK    1  A    between atoms: C_4  and  C_5 
REMARK    2  A    between atoms: C_6  and  O_7 
REMARK    3  A    between atoms: O_7  and  C_8 
REMARK    4  A    between atoms: C_8  and  C_9 
REMARK       I    between atoms: C_9  and  N_10 
REMARK    5  A    between atoms: N_10  and  N_11 
REMARK       I    between atoms: N_11  and  C_12 
REMARK    6  A    between atoms: C_12  and  C_13 
ROOT
HETATM    1  C   UNL     1       6.124  25.432  52.306  1.00  0.00     0.260 C 
HETATM    2  N   UNL     1       6.019  26.309  53.360  1.00  0.00    -0.265 N 
HETATM    3  O   UNL     1       5.120  25.116  51.666  1.00  0.00    -0.269 OA
HETATM    4  H   UNL     1       5.110  26.766  53.447  1.00  0.00     0.190 HD
ENDROOT
BRANCH   1   5
HETATM    5  C   UNL     1       7.500  24.852  51.986  1.00  0.00     0.280 C 
BRANCH   5   6
HETATM    6  O   UNL     1       8.255  24.547  53.158  1.00  0.00    -0.341 OA
BRANCH   6   7
HETATM    7  C   UNL     1       8.144  23.237  53.562  1.00  0.00     0.080 A 
HETATM    8  C   UNL     1       7.805  22.972  54.906  1.00  0.00     0.007 A 
HETATM    9  C   UNL     1       7.665  21.623  55.296  1.00  0.00     0.015 A 
HETATM   10  C   UNL     1       7.829  20.579  54.385  1.00  0.00     0.001 A 
HETATM   11  C   UNL     1       8.127  20.861  53.058  1.00  0.00     0.003 A 
HETATM   12  C   UNL     1       8.276  22.185  52.645  1.00  0.00     0.037 A 
BRANCH   8  13
HETATM   13  C   UNL     1       7.606  24.034  55.912  1.00  0.00    -0.023 A 
HETATM   14  C   UNL     1       6.316  24.515  56.198  1.00  0.00     0.012 A 
HETATM   15  C   UNL     1       6.110  25.492  57.175  1.00  0.00     0.001 A 
HETATM   16  C   UNL     1       7.192  26.008  57.883  1.00  0.00     0.000 A 
HETATM   17  C   UNL     1       8.479  25.546  57.614  1.00  0.00     0.001 A 
HETATM   18  C   UNL     1       8.682  24.566  56.639  1.00  0.00     0.012 A 
ENDBRANCH   8  13
ENDBRANCH   6   7
ENDBRANCH   5   6
ENDBRANCH   1   5
BRANCH   2  19
HETATM   19  N   UNL     1       7.112  27.058  53.809  1.00  0.00    -0.262 N 
HETATM   20  C   UNL     1       6.867  28.161  54.614  1.00  0.00     0.291 C 
HETATM   21  O   UNL     1       5.731  28.578  54.835  1.00  0.00    -0.264 OA
HETATM   22  H   UNL     1       8.046  26.646  53.820  1.00  0.00     0.190 HD
BRANCH  20  23
HETATM   23  C   UNL     1       8.081  28.758  55.182  1.00  0.00     0.158 A 
HETATM   24  N   UNL     1       9.212  28.887  54.454  1.00  0.00    -0.168 NA
HETATM   25  N   UNL     1      10.078  29.467  55.307  1.00  0.00    -0.277 N 
HETATM   26  H   UNL     1      11.014  29.671  54.976  1.00  0.00     0.189 HD
HETATM   27  C   UNL     1       9.569  29.712  56.552  1.00  0.00     0.063 A 
HETATM   28  C   UNL     1       8.256  29.257  56.507  1.00  0.00     0.028 A 
HETATM   29  C   UNL     1      10.141  30.284  57.693  1.00  0.00     0.032 A 
HETATM   30  C   UNL     1       7.458  29.372  57.663  1.00  0.00     0.016 A 
HETATM   31  C   UNL     1       8.011  29.939  58.817  1.00  0.00     0.001 A 
HETATM   32  C   UNL     1       9.331  30.388  58.830  1.00  0.00     0.002 A 
ENDBRANCH  20  23
ENDBRANCH   2  19
TORSDOF 6
ENDMDL
MODEL 2
REMARK VINA RESULT:      -9.6      2.497      7.782
REMARK  6 active torsions:
REMARK  status: ('A' for Active; 'I' for Inactive)
REMARK    1  A    between atoms: C_4  and  C_5 
REMARK    2  A    between atoms: C_6  and  O_7 
REMARK    3  A    between atoms: O_7  and  C_8 
REMARK    4  A    between atoms: C_8  and  C_9 
REMARK       I    between atoms: C_9  and  N_10 
REMARK    5  A    between atoms: N_10  and  N_11 
REMARK       I    between atoms: N_11  and  C_12 
REMARK    6  A    between atoms: C_12  and  C_13 
ROOT
HETATM    1  C   UNL     1       5.907  27.611  57.024  1.00  0.00     0.260 C 
HETATM    2  N   UNL     1       5.511  26.603  56.178  1.00  0.00    -0.265 N 
HETATM    3  O   UNL     1       5.174  28.585  57.207  1.00  0.00    -0.269 OA
HETATM    4  H   UNL     1       4.541  26.663  55.864  1.00  0.00     0.190 HD
ENDROOT
BRANCH   1   5
HETATM    5  C   UNL     1       7.275  27.496  57.693  1.00  0.00     0.280 C 
BRANCH   5   6
HETATM    6  O   UNL     1       7.593  28.632  58.496  1.00  0.00    -0.341 OA
BRANCH   6   7
HETATM    7  C   UNL     1       8.689  29.333  58.054  1.00  0.00     0.080 A 
HETATM    8  C   UNL     1       9.141  30.432  58.816  1.00  0.00     0.007 A 
HETATM    9  C   UNL     1      10.286  31.121  58.363  1.00  0.00     0.015 A 
HETATM   10  C   UNL     1      10.971  30.723  57.215  1.00  0.00     0.001 A 
HETATM   11  C   UNL     1      10.533  29.617  56.497  1.00  0.00     0.003 A 
HETATM   12  C   UNL     1       9.401  28.919  56.918  1.00  0.00     0.037 A 
BRANCH   8  13
HETATM   13  C   UNL     1       8.467  30.891  60.045  1.00  0.00    -0.023 A 
HETATM   14  C   UNL     1       8.979  30.556  61.311  1.00  0.00     0.012 A 
HETATM   15  C   UNL     1       8.372  31.017  62.482  1.00  0.00     0.001 A 
HETATM   16  C   UNL     1       7.239  31.822  62.408  1.00  0.00     0.000 A 
HETATM   17  C   UNL     1       6.713  32.165  61.164  1.00  0.00     0.001 A 
HETATM   18  C   UNL     1       7.324  31.705  59.994  1.00  0.00     0.012 A 
ENDBRANCH   8  13
ENDBRANCH   6   7
ENDBRANCH   5   6
ENDBRANCH   1   5
BRANCH   2  19
HETATM   19  N   UNL     1       6.028  25.306  56.282  1.00  0.00    -0.262 N 
HETATM   20  C   UNL     1       6.987  24.906  55.364  1.00  0.00     0.291 C 
HETATM   21  O   UNL     1       7.298  25.592  54.391  1.00  0.00    -0.264 OA
HETATM   22  H   UNL     1       5.954  24.794  57.162  1.00  0.00     0.190 HD
BRANCH  20  23
HETATM   23  C   UNL     1       7.598  23.609  55.677  1.00  0.00     0.158 A 
HETATM   24  N   UNL     1       8.000  23.302  56.929  1.00  0.00    -0.168 NA
HETATM   25  N   UNL     1       8.493  22.054  56.811  1.00  0.00    -0.277 N 
HETATM   26  H   UNL     1       8.859  21.601  57.641  1.00  0.00     0.189 HD
HETATM   27  C   UNL     1       8.439  21.541  55.544  1.00  0.00     0.063 A 
HETATM   28  C   UNL     1       7.856  22.538  54.771  1.00  0.00     0.028 A 
HETATM   29  C   UNL     1       8.846  20.308  55.024  1.00  0.00     0.032 A 
HETATM   30  C   UNL     1       7.664  22.303  53.394  1.00  0.00     0.016 A 
HETATM   31  C   UNL     1       8.067  21.077  52.851  1.00  0.00     0.001 A 
HETATM   32  C   UNL     1       8.647  20.097  53.655  1.00  0.00     0.002 A 
ENDBRANCH  20  23
ENDBRANCH   2  19
TORSDOF 6
ENDMDL
MODEL 3
REMARK VINA RESULT:      -9.2      1.605      2.090
REMARK  6 active torsions:
REMARK  status: ('A' for Active; 'I' for Inactive)
REMARK    1  A    between atoms: C_4  and  C_5 
REMARK    2  A    between atoms: C_6  and  O_7 
REMARK    3  A    between atoms: O_7  and  C_8 
REMARK    4  A    between atoms: C_8  and  C_9 
REMARK       I    between atoms: C_9  and  N_10 
REMARK    5  A    between atoms: N_10  and  N_11 
REMARK       I    between atoms: N_11  and  C_12 
REMARK    6  A    between atoms: C_12  and  C_13 
ROOT
HETATM    1  C   UNL     1       5.129  25.678  51.944  1.00  0.00     0.260 C 
HETATM    2  N   UNL     1       4.628  26.842  52.476  1.00  0.00    -0.265 N 
HETATM    3  O   UNL     1       5.229  25.552  50.722  1.00  0.00    -0.269 OA
HETATM    4  H   UNL     1       4.508  27.603  51.805  1.00  0.00     0.190 HD
ENDROOT
BRANCH   1   5
HETATM    5  C   UNL     1       5.520  24.556  52.904  1.00  0.00     0.280 C 
BRANCH   5   6
HETATM    6  O   UNL     1       6.906  24.576  53.239  1.00  0.00    -0.341 OA
BRANCH   6   7
HETATM    7  C   UNL     1       7.411  23.344  53.582  1.00  0.00     0.080 A 
HETATM    8  C   UNL     1       7.699  23.086  54.939  1.00  0.00     0.007 A 
HETATM    9  C   UNL     1       8.187  21.806  55.277  1.00  0.00     0.015 A 
HETATM   10  C   UNL     1       8.359  20.812  54.312  1.00  0.00     0.001 A 
HETATM   11  C   UNL     1       8.036  21.073  52.986  1.00  0.00     0.003 A 
HETATM   12  C   UNL     1       7.556  22.331  52.622  1.00  0.00     0.037 A 
BRANCH   8  13
HETATM   13  C   UNL     1       7.525  24.091  56.005  1.00  0.00    -0.023 A 
HETATM   14  C   UNL     1       8.640  24.622  56.678  1.00  0.00     0.012 A 
HETATM   15  C   UNL     1       8.491  25.602  57.661  1.00  0.00     0.001 A 
HETATM   16  C   UNL     1       7.222  26.069  57.992  1.00  0.00     0.000 A 
HETATM   17  C   UNL     1       6.104  25.556  57.340  1.00  0.00     0.001 A 
HETATM   18  C   UNL     1       6.255  24.578  56.353  1.00  0.00     0.012 A 
ENDBRANCH   8  13
ENDBRANCH   6   7
ENDBRANCH   5   6
ENDBRANCH   1   5
BRANCH   2  19
HETATM   19  N   UNL     1       4.917  27.239  53.787  1.00  0.00    -0.262 N 
HETATM   20  C   UNL     1       5.962  28.129  53.988  1.00  0.00     0.291 C 
HETATM   21  O   UNL     1       6.720  28.473  53.083  1.00  0.00    -0.264 OA
HETATM   22  H   UNL     1       4.212  27.142  54.519  1.00  0.00     0.190 HD
BRANCH  20  23
HETATM   23  C   UNL     1       6.057  28.624  55.367  1.00  0.00     0.158 A 
HETATM   24  N   UNL     1       4.955  28.819  56.124  1.00  0.00    -0.168 NA
HETATM   25  N   UNL     1       5.446  29.265  57.295  1.00  0.00    -0.277 N 
HETATM   26  H   UNL     1       4.793  29.481  58.040  1.00  0.00     0.189 HD
HETATM   27  C   UNL     1       6.809  29.377  57.333  1.00  0.00     0.063 A 
HETATM   28  C   UNL     1       7.244  28.964  56.079  1.00  0.00     0.028 A 
HETATM   29  C   UNL     1       7.678  29.799  58.344  1.00  0.00     0.032 A 
HETATM   30  C   UNL     1       8.627  28.970  55.805  1.00  0.00     0.016 A 
HETATM   31  C   UNL     1       9.516  29.392  56.802  1.00  0.00     0.001 A 
HETATM   32  C   UNL     1       9.047  29.798  58.050  1.00  0.00     0.002 A 
ENDBRANCH  20  23
ENDBRANCH   2  19
TORSDOF 6
ENDMDL
MODEL 4
REMARK VINA RESULT:      -9.2      2.424      7.312
REMARK  6 active torsions:
REMARK  status: ('A' for Active; 'I' for Inactive)
REMARK    1  A    between atoms: C_4  and  C_5 
REMARK    2  A    between atoms: C_6  and  O_7 
REMARK    3  A    between atoms: O_7  and  C_8 
REMARK    4  A    between atoms: C_8  and  C_9 
REMARK       I    between atoms: C_9  and  N_10 
REMARK    5  A    between atoms: N_10  and  N_11 
REMARK       I    between atoms: N_11  and  C_12 
REMARK    6  A    between atoms: C_12  and  C_13 
ROOT
HETATM    1  C   UNL     1       4.665  29.004  56.636  1.00  0.00     0.260 C 
HETATM    2  N   UNL     1       4.213  27.716  56.473  1.00  0.00    -0.265 N 
HETATM    3  O   UNL     1       3.872  29.906  56.912  1.00  0.00    -0.269 OA
HETATM    4  H   UNL     1       3.240  27.567  56.747  1.00  0.00     0.190 HD
ENDROOT
BRANCH   1   5
HETATM    5  C   UNL     1       6.155  29.276  56.435  1.00  0.00     0.280 C 
BRANCH   5   6
HETATM    6  O   UNL     1       6.900  29.179  57.648  1.00  0.00    -0.341 OA
BRANCH   6   7
HETATM    7  C   UNL     1       8.197  29.625  57.537  1.00  0.00     0.080 A 
HETATM    8  C   UNL     1       8.655  30.601  58.447  1.00  0.00     0.007 A 
HETATM    9  C   UNL     1       9.997  31.024  58.339  1.00  0.00     0.015 A 
HETATM   10  C   UNL     1      10.858  30.483  57.384  1.00  0.00     0.001 A 
HETATM   11  C   UNL     1      10.399  29.496  56.520  1.00  0.00     0.003 A 
HETATM   12  C   UNL     1       9.076  29.062  56.601  1.00  0.00     0.037 A 
BRANCH   8  13
HETATM   13  C   UNL     1       7.796  31.200  59.487  1.00  0.00    -0.023 A 
HETATM   14  C   UNL     1       8.113  31.054  60.849  1.00  0.00     0.012 A 
HETATM   15  C   UNL     1       7.329  31.649  61.841  1.00  0.00     0.001 A 
HETATM   16  C   UNL     1       6.212  32.401  61.488  1.00  0.00     0.000 A 
HETATM   17  C   UNL     1       5.880  32.557  60.144  1.00  0.00     0.001 A 
HETATM   18  C   UNL     1       6.667  31.964  59.153  1.00  0.00     0.012 A 
ENDBRANCH   8  13
ENDBRANCH   6   7
ENDBRANCH   5   6
ENDBRANCH   1   5
BRANCH   2  19
HETATM   19  N   UNL     1       5.057  26.612  56.632  1.00  0.00    -0.262 N 
HETATM   20  C   UNL     1       5.558  25.999  55.492  1.00  0.00     0.291 C 
HETATM   21  O   UNL     1       5.185  26.303  54.360  1.00  0.00    -0.264 OA
HETATM   22  H   UNL     1       5.539  26.459  57.518  1.00  0.00     0.190 HD
BRANCH  20  23
HETATM   23  C   UNL     1       6.578  24.981  55.770  1.00  0.00     0.158 A 
HETATM   24  N   UNL     1       7.084  24.810  57.011  1.00  0.00    -0.168 NA
HETATM   25  N   UNL     1       7.968  23.805  56.860  1.00  0.00    -0.277 N 
HETATM   26  H   UNL     1       8.482  23.490  57.676  1.00  0.00     0.189 HD
HETATM   27  C   UNL     1       8.065  23.322  55.584  1.00  0.00     0.063 A 
HETATM   28  C   UNL     1       7.164  24.074  54.839  1.00  0.00     0.028 A 
HETATM   29  C   UNL     1       8.855  22.307  55.033  1.00  0.00     0.032 A 
HETATM   30  C   UNL     1       7.036  23.808  53.461  1.00  0.00     0.016 A 
HETATM   31  C   UNL     1       7.819  22.799  52.887  1.00  0.00     0.001 A 
HETATM   32  C   UNL     1       8.712  22.061  53.663  1.00  0.00     0.002 A 
ENDBRANCH  20  23
ENDBRANCH   2  19
TORSDOF 6
ENDMDL
MODEL 5
REMARK VINA RESULT:      -9.2      5.247     10.068
REMARK  6 active torsions:
REMARK  status: ('A' for Active; 'I' for Inactive)
REMARK    1  A    between atoms: C_4  and  C_5 
REMARK    2  A    between atoms: C_6  and  O_7 
REMARK    3  A    between atoms: O_7  and  C_8 
REMARK    4  A    between atoms: C_8  and  C_9 
REMARK       I    between atoms: C_9  and  N_10 
REMARK    5  A    between atoms: N_10  and  N_11 
REMARK       I    between atoms: N_11  and  C_12 
REMARK    6  A    between atoms: C_12  and  C_13 
ROOT
HETATM    1  C   UNL     1       4.210  33.736  60.984  1.00  0.00     0.260 C 
HETATM    2  N   UNL     1       4.930  33.362  59.874  1.00  0.00    -0.265 N 
HETATM    3  O   UNL     1       3.913  34.920  61.154  1.00  0.00    -0.269 OA
HETATM    4  H   UNL     1       5.044  34.093  59.170  1.00  0.00     0.190 HD
ENDROOT
BRANCH   1   5
HETATM    5  C   UNL     1       3.828  32.656  61.994  1.00  0.00     0.280 C 
BRANCH   5   6
HETATM    6  O   UNL     1       4.961  31.959  62.510  1.00  0.00    -0.341 OA
BRANCH   6   7
HETATM    7  C   UNL     1       5.571  32.598  63.564  1.00  0.00     0.080 A 
HETATM    8  C   UNL     1       6.977  32.715  63.561  1.00  0.00     0.007 A 
HETATM    9  C   UNL     1       7.583  33.400  64.635  1.00  0.00     0.015 A 
HETATM   10  C   UNL     1       6.825  33.971  65.658  1.00  0.00     0.001 A 
HETATM   11  C   UNL     1       5.439  33.877  65.625  1.00  0.00     0.003 A 
HETATM   12  C   UNL     1       4.812  33.202  64.578  1.00  0.00     0.037 A 
BRANCH   8  13
HETATM   13  C   UNL     1       7.831  32.145  62.501  1.00  0.00    -0.023 A 
HETATM   14  C   UNL     1       8.035  32.840  61.295  1.00  0.00     0.012 A 
HETATM   15  C   UNL     1       8.871  32.329  60.300  1.00  0.00     0.001 A 
HETATM   16  C   UNL     1       9.519  31.111  60.492  1.00  0.00     0.000 A 
HETATM   17  C   UNL     1       9.329  30.405  61.678  1.00  0.00     0.001 A 
HETATM   18  C   UNL     1       8.494  30.920  62.674  1.00  0.00     0.012 A 
ENDBRANCH   8  13
ENDBRANCH   6   7
ENDBRANCH   5   6
ENDBRANCH   1   5
BRANCH   2  19
HETATM   19  N   UNL     1       4.894  32.053  59.378  1.00  0.00    -0.262 N 
HETATM   20  C   UNL     1       5.384  31.821  58.102  1.00  0.00     0.291 C 
HETATM   21  O   UNL     1       5.722  32.732  57.347  1.00  0.00    -0.264 OA
HETATM   22  H   UNL     1       4.816  31.264  60.021  1.00  0.00     0.190 HD
BRANCH  20  23
HETATM   23  C   UNL     1       5.477  30.397  57.756  1.00  0.00     0.158 A 
HETATM   24  N   UNL     1       4.372  29.643  57.570  1.00  0.00    -0.168 NA
HETATM   25  N   UNL     1       4.863  28.425  57.272  1.00  0.00    -0.277 N 
HETATM   26  H   UNL     1       4.206  27.675  57.084  1.00  0.00     0.189 HD
HETATM   27  C   UNL     1       6.228  28.350  57.264  1.00  0.00     0.063 A 
HETATM   28  C   UNL     1       6.666  29.630  57.579  1.00  0.00     0.028 A 
HETATM   29  C   UNL     1       7.098  27.284  57.012  1.00  0.00     0.032 A 
HETATM   30  C   UNL     1       8.053  29.874  57.652  1.00  0.00     0.016 A 
HETATM   31  C   UNL     1       8.942  28.821  57.406  1.00  0.00     0.001 A 
HETATM   32  C   UNL     1       8.470  27.548  57.090  1.00  0.00     0.002 A 
ENDBRANCH  20  23
ENDBRANCH   2  19
TORSDOF 6
ENDMDL
MODEL 6
REMARK VINA RESULT:      -9.2      1.833      3.811
REMARK  6 active torsions:
REMARK  status: ('A' for Active; 'I' for Inactive)
REMARK    1  A    between atoms: C_4  and  C_5 
REMARK    2  A    between atoms: C_6  and  O_7 
REMARK    3  A    between atoms: O_7  and  C_8 
REMARK    4  A    between atoms: C_8  and  C_9 
REMARK       I    between atoms: C_9  and  N_10 
REMARK    5  A    between atoms: N_10  and  N_11 
REMARK       I    between atoms: N_11  and  C_12 
REMARK    6  A    between atoms: C_12  and  C_13 
ROOT
HETATM    1  C   UNL     1       5.040  25.838  52.728  1.00  0.00     0.260 C 
HETATM    2  N   UNL     1       4.213  26.593  53.525  1.00  0.00    -0.265 N 
HETATM    3  O   UNL     1       4.745  25.638  51.549  1.00  0.00    -0.269 OA
HETATM    4  H   UNL     1       3.461  27.073  53.029  1.00  0.00     0.190 HD
ENDROOT
BRANCH   1   5
HETATM    5  C   UNL     1       6.300  25.243  53.355  1.00  0.00     0.280 C 
BRANCH   5   6
HETATM    6  O   UNL     1       6.012  24.383  54.456  1.00  0.00    -0.341 OA
BRANCH   6   7
HETATM    7  C   UNL     1       6.848  24.564  55.533  1.00  0.00     0.080 A 
HETATM    8  C   UNL     1       7.883  23.628  55.750  1.00  0.00     0.007 A 
HETATM    9  C   UNL     1       8.750  23.847  56.841  1.00  0.00     0.015 A 
HETATM   10  C   UNL     1       8.614  24.961  57.670  1.00  0.00     0.001 A 
HETATM   11  C   UNL     1       7.612  25.889  57.420  1.00  0.00     0.003 A 
HETATM   12  C   UNL     1       6.737  25.698  56.351  1.00  0.00     0.037 A 
BRANCH   8  13
HETATM   13  C   UNL     1       8.085  22.439  54.899  1.00  0.00    -0.023 A 
HETATM   14  C   UNL     1       8.383  22.579  53.532  1.00  0.00     0.012 A 
HETATM   15  C   UNL     1       8.615  21.463  52.726  1.00  0.00     0.001 A 
HETATM   16  C   UNL     1       8.551  20.184  53.272  1.00  0.00     0.000 A 
HETATM   17  C   UNL     1       8.256  20.022  54.623  1.00  0.00     0.001 A 
HETATM   18  C   UNL     1       8.028  21.141  55.430  1.00  0.00     0.012 A 
ENDBRANCH   8  13
ENDBRANCH   6   7
ENDBRANCH   5   6
ENDBRANCH   1   5
BRANCH   2  19
HETATM   19  N   UNL     1       4.683  27.241  54.673  1.00  0.00    -0.262 N 
HETATM   20  C   UNL     1       5.029  28.581  54.575  1.00  0.00     0.291 C 
HETATM   21  O   UNL     1       5.065  29.177  53.500  1.00  0.00    -0.264 OA
HETATM   22  H   UNL     1       4.484  26.856  55.597  1.00  0.00     0.190 HD
BRANCH  20  23
HETATM   23  C   UNL     1       5.325  29.209  55.868  1.00  0.00     0.158 A 
HETATM   24  N   UNL     1       4.340  29.662  56.674  1.00  0.00    -0.168 NA
HETATM   25  N   UNL     1       4.999  30.155  57.740  1.00  0.00    -0.277 N 
HETATM   26  H   UNL     1       4.457  30.555  58.498  1.00  0.00     0.189 HD
HETATM   27  C   UNL     1       6.361  30.053  57.661  1.00  0.00     0.063 A 
HETATM   28  C   UNL     1       6.611  29.435  56.441  1.00  0.00     0.028 A 
HETATM   29  C   UNL     1       7.374  30.444  58.543  1.00  0.00     0.032 A 
HETATM   30  C   UNL     1       7.948  29.190  56.066  1.00  0.00     0.016 A 
HETATM   31  C   UNL     1       8.978  29.576  56.932  1.00  0.00     0.001 A 
HETATM   32  C   UNL     1       8.693  30.192  58.150  1.00  0.00     0.002 A 
ENDBRANCH  20  23
ENDBRANCH   2  19
TORSDOF 6
ENDMDL
MODEL 7
REMARK VINA RESULT:      -9.0      3.871      7.399
REMARK  6 active torsions:
REMARK  status: ('A' for Active; 'I' for Inactive)
REMARK    1  A    between atoms: C_4  and  C_5 
REMARK    2  A    between atoms: C_6  and  O_7 
REMARK    3  A    between atoms: O_7  and  C_8 
REMARK    4  A    between atoms: C_8  and  C_9 
REMARK       I    between atoms: C_9  and  N_10 
REMARK    5  A    between atoms: N_10  and  N_11 
REMARK       I    between atoms: N_11  and  C_12 
REMARK    6  A    between atoms: C_12  and  C_13 
ROOT
HETATM    1  C   UNL     1       6.599  26.319  52.720  1.00  0.00     0.260 C 
HETATM    2  N   UNL     1       6.579  26.010  51.380  1.00  0.00    -0.265 N 
HETATM    3  O   UNL     1       7.601  26.835  53.218  1.00  0.00    -0.269 OA
HETATM    4  H   UNL     1       7.367  26.378  50.844  1.00  0.00     0.190 HD
ENDROOT
BRANCH   1   5
HETATM    5  C   UNL     1       5.368  25.977  53.557  1.00  0.00     0.280 C 
BRANCH   5   6
HETATM    6  O   UNL     1       5.558  24.818  54.367  1.00  0.00    -0.341 OA
BRANCH   6   7
HETATM    7  C   UNL     1       6.356  25.036  55.466  1.00  0.00     0.080 A 
HETATM    8  C   UNL     1       7.390  24.117  55.743  1.00  0.00     0.007 A 
HETATM    9  C   UNL     1       8.217  24.373  56.857  1.00  0.00     0.015 A 
HETATM   10  C   UNL     1       8.044  25.508  57.650  1.00  0.00     0.001 A 
HETATM   11  C   UNL     1       7.043  26.420  57.340  1.00  0.00     0.003 A 
HETATM   12  C   UNL     1       6.207  26.191  56.248  1.00  0.00     0.037 A 
BRANCH   8  13
HETATM   13  C   UNL     1       7.631  22.907  54.934  1.00  0.00    -0.023 A 
HETATM   14  C   UNL     1       7.939  23.010  53.565  1.00  0.00     0.012 A 
HETATM   15  C   UNL     1       8.207  21.875  52.797  1.00  0.00     0.001 A 
HETATM   16  C   UNL     1       8.170  20.613  53.384  1.00  0.00     0.000 A 
HETATM   17  C   UNL     1       7.865  20.487  54.737  1.00  0.00     0.001 A 
HETATM   18  C   UNL     1       7.601  21.625  55.505  1.00  0.00     0.012 A 
ENDBRANCH   8  13
ENDBRANCH   6   7
ENDBRANCH   5   6
ENDBRANCH   1   5
BRANCH   2  19
HETATM   19  N   UNL     1       5.380  25.881  50.671  1.00  0.00    -0.262 N 
HETATM   20  C   UNL     1       4.972  26.938  49.870  1.00  0.00     0.291 C 
HETATM   21  O   UNL     1       5.550  28.024  49.865  1.00  0.00    -0.264 OA
HETATM   22  H   UNL     1       4.989  24.955  50.491  1.00  0.00     0.190 HD
BRANCH  20  23
HETATM   23  C   UNL     1       3.812  26.626  49.027  1.00  0.00     0.158 A 
HETATM   24  N   UNL     1       3.521  25.357  48.669  1.00  0.00    -0.168 NA
HETATM   25  N   UNL     1       2.410  25.483  47.918  1.00  0.00    -0.277 N 
HETATM   26  H   UNL     1       1.993  24.643  47.531  1.00  0.00     0.189 HD
HETATM   27  C   UNL     1       1.971  26.769  47.766  1.00  0.00     0.063 A 
HETATM   28  C   UNL     1       2.871  27.549  48.482  1.00  0.00     0.028 A 
HETATM   29  C   UNL     1       0.881  27.302  47.071  1.00  0.00     0.032 A 
HETATM   30  C   UNL     1       2.683  28.946  48.513  1.00  0.00     0.016 A 
HETATM   31  C   UNL     1       1.600  29.502  47.823  1.00  0.00     0.001 A 
HETATM   32  C   UNL     1       0.714  28.691  47.115  1.00  0.00     0.002 A 
ENDBRANCH  20  23
ENDBRANCH   2  19
TORSDOF 6
ENDMDL
MODEL 8
REMARK VINA RESULT:      -8.9      2.091      7.267
REMARK  6 active torsions:
REMARK  status: ('A' for Active; 'I' for Inactive)
REMARK    1  A    between atoms: C_4  and  C_5 
REMARK    2  A    between atoms: C_6  and  O_7 
REMARK    3  A    between atoms: O_7  and  C_8 
REMARK    4  A    between atoms: C_8  and  C_9 
REMARK       I    between atoms: C_9  and  N_10 
REMARK    5  A    between atoms: N_10  and  N_11 
REMARK       I    between atoms: N_11  and  C_12 
REMARK    6  A    between atoms: C_12  and  C_13 
ROOT
HETATM    1  C   UNL     1       5.984  29.392  56.492  1.00  0.00     0.260 C 
HETATM    2  N   UNL     1       6.279  29.310  55.152  1.00  0.00    -0.265 N 
HETATM    3  O   UNL     1       5.177  30.232  56.895  1.00  0.00    -0.269 OA
HETATM    4  H   UNL     1       5.679  29.870  54.546  1.00  0.00     0.190 HD
ENDROOT
BRANCH   1   5
HETATM    5  C   UNL     1       6.702  28.442  57.449  1.00  0.00     0.280 C 
BRANCH   5   6
HETATM    6  O   UNL     1       7.432  29.131  58.463  1.00  0.00    -0.341 OA
BRANCH   6   7
HETATM    7  C   UNL     1       8.668  29.574  58.052  1.00  0.00     0.080 A 
HETATM    8  C   UNL     1       9.261  30.654  58.740  1.00  0.00     0.007 A 
HETATM    9  C   UNL     1      10.542  31.075  58.324  1.00  0.00     0.015 A 
HETATM   10  C   UNL     1      11.219  30.437  57.284  1.00  0.00     0.001 A 
HETATM   11  C   UNL     1      10.633  29.352  56.642  1.00  0.00     0.003 A 
HETATM   12  C   UNL     1       9.367  28.916  57.029  1.00  0.00     0.037 A 
BRANCH   8  13
HETATM   13  C   UNL     1       8.601  31.360  59.855  1.00  0.00    -0.023 A 
HETATM   14  C   UNL     1       7.371  32.014  59.659  1.00  0.00     0.012 A 
HETATM   15  C   UNL     1       6.718  32.653  60.715  1.00  0.00     0.001 A 
HETATM   16  C   UNL     1       7.282  32.650  61.988  1.00  0.00     0.000 A 
HETATM   17  C   UNL     1       8.500  32.010  62.203  1.00  0.00     0.001 A 
HETATM   18  C   UNL     1       9.152  31.368  61.145  1.00  0.00     0.012 A 
ENDBRANCH   8  13
ENDBRANCH   6   7
ENDBRANCH   5   6
ENDBRANCH   1   5
BRANCH   2  19
HETATM   19  N   UNL     1       6.782  28.136  54.579  1.00  0.00    -0.262 N 
HETATM   20  C   UNL     1       5.881  27.230  54.041  1.00  0.00     0.291 C 
HETATM   21  O   UNL     1       4.663  27.354  54.167  1.00  0.00    -0.264 OA
HETATM   22  H   UNL     1       7.757  28.090  54.279  1.00  0.00     0.190 HD
BRANCH  20  23
HETATM   23  C   UNL     1       6.517  26.135  53.299  1.00  0.00     0.158 A 
HETATM   24  N   UNL     1       6.796  26.243  51.981  1.00  0.00    -0.168 NA
HETATM   25  N   UNL     1       7.365  25.062  51.676  1.00  0.00    -0.277 N 
HETATM   26  H   UNL     1       7.669  24.907  50.721  1.00  0.00     0.189 HD
HETATM   27  C   UNL     1       7.461  24.190  52.726  1.00  0.00     0.063 A 
HETATM   28  C   UNL     1       6.912  24.864  53.811  1.00  0.00     0.028 A 
HETATM   29  C   UNL     1       7.974  22.892  52.811  1.00  0.00     0.032 A 
HETATM   30  C   UNL     1       6.865  24.212  55.060  1.00  0.00     0.016 A 
HETATM   31  C   UNL     1       7.370  22.911  55.168  1.00  0.00     0.001 A 
HETATM   32  C   UNL     1       7.916  22.264  54.060  1.00  0.00     0.002 A 
ENDBRANCH  20  23
ENDBRANCH   2  19
TORSDOF 6
ENDMDL
MODEL 9
REMARK VINA RESULT:      -8.8      3.933      6.494
REMARK  6 active torsions:
REMARK  status: ('A' for Active; 'I' for Inactive)
REMARK    1  A    between atoms: C_4  and  C_5 
REMARK    2  A    between atoms: C_6  and  O_7 
REMARK    3  A    between atoms: O_7  and  C_8 
REMARK    4  A    between atoms: C_8  and  C_9 
REMARK       I    between atoms: C_9  and  N_10 
REMARK    5  A    between atoms: N_10  and  N_11 
REMARK       I    between atoms: N_11  and  C_12 
REMARK    6  A    between atoms: C_12  and  C_13 
ROOT
HETATM    1  C   UNL     1      10.415  29.923  57.046  1.00  0.00     0.260 C 
HETATM    2  N   UNL     1      10.284  30.838  58.063  1.00  0.00    -0.265 N 
HETATM    3  O   UNL     1      11.535  29.532  56.709  1.00  0.00    -0.269 OA
HETATM    4  H   UNL     1      11.142  31.025  58.584  1.00  0.00     0.190 HD
ENDROOT
BRANCH   1   5
HETATM    5  C   UNL     1       9.148  29.441  56.342  1.00  0.00     0.280 C 
BRANCH   5   6
HETATM    6  O   UNL     1       8.499  28.380  57.042  1.00  0.00    -0.341 OA
BRANCH   6   7
HETATM    7  C   UNL     1       7.143  28.319  56.821  1.00  0.00     0.080 A 
HETATM    8  C   UNL     1       6.570  27.078  56.474  1.00  0.00     0.007 A 
HETATM    9  C   UNL     1       5.174  27.028  56.281  1.00  0.00     0.015 A 
HETATM   10  C   UNL     1       4.372  28.157  56.451  1.00  0.00     0.001 A 
HETATM   11  C   UNL     1       4.950  29.363  56.829  1.00  0.00     0.003 A 
HETATM   12  C   UNL     1       6.328  29.444  57.022  1.00  0.00     0.037 A 
BRANCH   8  13
HETATM   13  C   UNL     1       7.364  25.846  56.293  1.00  0.00    -0.023 A 
HETATM   14  C   UNL     1       8.021  25.252  57.385  1.00  0.00     0.012 A 
HETATM   15  C   UNL     1       8.743  24.065  57.235  1.00  0.00     0.001 A 
HETATM   16  C   UNL     1       8.823  23.452  55.988  1.00  0.00     0.000 A 
HETATM   17  C   UNL     1       8.181  24.025  54.892  1.00  0.00     0.001 A 
HETATM   18  C   UNL     1       7.456  25.211  55.045  1.00  0.00     0.012 A 
ENDBRANCH   8  13
ENDBRANCH   6   7
ENDBRANCH   5   6
ENDBRANCH   1   5
BRANCH   2  19
HETATM   19  N   UNL     1       9.099  30.962  58.796  1.00  0.00    -0.262 N 
HETATM   20  C   UNL     1       9.087  31.819  59.887  1.00  0.00     0.291 C 
HETATM   21  O   UNL     1      10.106  32.364  60.309  1.00  0.00    -0.264 OA
HETATM   22  H   UNL     1       8.207  30.697  58.376  1.00  0.00     0.190 HD
BRANCH  20  23
HETATM   23  C   UNL     1       7.753  32.020  60.464  1.00  0.00     0.158 A 
HETATM   24  N   UNL     1       6.635  31.899  59.717  1.00  0.00    -0.168 NA
HETATM   25  N   UNL     1       5.639  32.150  60.587  1.00  0.00    -0.277 N 
HETATM   26  H   UNL     1       4.683  32.112  60.249  1.00  0.00     0.189 HD
HETATM   27  C   UNL     1       6.055  32.436  61.858  1.00  0.00     0.063 A 
HETATM   28  C   UNL     1       7.442  32.361  61.814  1.00  0.00     0.028 A 
HETATM   29  C   UNL     1       5.342  32.750  63.020  1.00  0.00     0.032 A 
HETATM   30  C   UNL     1       8.173  32.613  62.993  1.00  0.00     0.016 A 
HETATM   31  C   UNL     1       7.480  32.932  64.167  1.00  0.00     0.001 A 
HETATM   32  C   UNL     1       6.088  32.997  64.178  1.00  0.00     0.002 A 
ENDBRANCH  20  23
ENDBRANCH   2  19
TORSDOF 6
ENDMDL
MODEL 10
REMARK VINA RESULT:      -8.8      4.917      7.689
REMARK  6 active torsions:
REMARK  status: ('A' for Active; 'I' for Inactive)
REMARK    1  A    between atoms: C_4  and  C_5 
REMARK    2  A    between atoms: C_6  and  O_7 
REMARK    3  A    between atoms: O_7  and  C_8 
REMARK    4  A    between atoms: C_8  and  C_9 
REMARK       I    between atoms: C_9  and  N_10 
REMARK    5  A    between atoms: N_10  and  N_11 
REMARK       I    between atoms: N_11  and  C_12 
REMARK    6  A    between atoms: C_12  and  C_13 
ROOT
HETATM    1  C   UNL     1       4.231  30.757  57.636  1.00  0.00     0.260 C 
HETATM    2  N   UNL     1       3.631  30.597  58.863  1.00  0.00    -0.265 N 
HETATM    3  O   UNL     1       3.562  30.659  56.606  1.00  0.00    -0.269 OA
HETATM    4  H   UNL     1       2.611  30.553  58.838  1.00  0.00     0.190 HD
ENDROOT
BRANCH   1   5
HETATM    5  C   UNL     1       5.734  31.025  57.598  1.00  0.00     0.280 C 
BRANCH   5   6
HETATM    6  O   UNL     1       6.501  29.933  58.103  1.00  0.00    -0.341 OA
BRANCH   6   7
HETATM    7  C   UNL     1       7.860  30.137  58.042  1.00  0.00     0.080 A 
HETATM    8  C   UNL     1       8.643  29.243  57.282  1.00  0.00     0.007 A 
HETATM    9  C   UNL     1      10.031  29.485  57.206  1.00  0.00     0.015 A 
HETATM   10  C   UNL     1      10.616  30.583  57.837  1.00  0.00     0.001 A 
HETATM   11  C   UNL     1       9.824  31.472  58.552  1.00  0.00     0.003 A 
HETATM   12  C   UNL     1       8.450  31.256  58.648  1.00  0.00     0.037 A 
BRANCH   8  13
HETATM   13  C   UNL     1       8.080  28.073  56.581  1.00  0.00    -0.023 A 
HETATM   14  C   UNL     1       7.943  26.839  57.243  1.00  0.00     0.012 A 
HETATM   15  C   UNL     1       7.376  25.735  56.603  1.00  0.00     0.001 A 
HETATM   16  C   UNL     1       6.935  25.843  55.287  1.00  0.00     0.000 A 
HETATM   17  C   UNL     1       7.063  27.055  54.612  1.00  0.00     0.001 A 
HETATM   18  C   UNL     1       7.628  28.160  55.256  1.00  0.00     0.012 A 
ENDBRANCH   8  13
ENDBRANCH   6   7
ENDBRANCH   5   6
ENDBRANCH   1   5
BRANCH   2  19
HETATM   19  N   UNL     1       4.179  31.143  60.029  1.00  0.00    -0.262 N 
HETATM   20  C   UNL     1       3.568  32.258  60.583  1.00  0.00     0.291 C 
HETATM   21  O   UNL     1       2.654  32.858  60.021  1.00  0.00    -0.264 OA
HETATM   22  H   UNL     1       4.789  30.578  60.621  1.00  0.00     0.190 HD
BRANCH  20  23
HETATM   23  C   UNL     1       4.102  32.630  61.899  1.00  0.00     0.158 A 
HETATM   24  N   UNL     1       3.292  33.039  62.899  1.00  0.00    -0.168 NA
HETATM   25  N   UNL     1       4.139  33.280  63.918  1.00  0.00    -0.277 N 
HETATM   26  H   UNL     1       3.752  33.602  64.799  1.00  0.00     0.189 HD
HETATM   27  C   UNL     1       5.456  33.057  63.626  1.00  0.00     0.063 A 
HETATM   28  C   UNL     1       5.469  32.628  62.304  1.00  0.00     0.028 A 
HETATM   29  C   UNL     1       6.614  33.193  64.398  1.00  0.00     0.032 A 
HETATM   30  C   UNL     1       6.707  32.316  61.705  1.00  0.00     0.016 A 
HETATM   31  C   UNL     1       7.879  32.448  62.458  1.00  0.00     0.001 A 
HETATM   32  C   UNL     1       7.831  32.878  63.783  1.00  0.00     0.002 A 
ENDBRANCH  20  23
ENDBRANCH   2  19
TORSDOF 6
ENDMDL
