MODEL 1
REMARK VINA RESULT:      -9.9      0.000      0.000
REMARK  7 active torsions:
REMARK  status: ('A' for Active; 'I' for Inactive)
REMARK    1  A    between atoms: C_8  and  C_9 
REMARK    2  A    between atoms: C_9  and  N_10 
REMARK    3  A    between atoms: C_14  and  C_15 
REMARK    4  A    between atoms: C_15  and  C_16 
REMARK    5  A    between atoms: C_16  and  C_17 
REMARK    6  A    between atoms: N_27  and  C_28 
REMARK    7  A    between atoms: C_28  and  C_29 
ROOT
HETATM    1  C   UNL     1       7.161  25.240  54.683  1.00  0.00     0.123 C 
HETATM    2  N   UNL     1       7.624  26.522  54.169  1.00  0.00    -0.324 N 
HETATM    3  C   UNL     1       7.495  27.521  55.116  1.00  0.00     0.326 C 
HETATM    4  O   UNL     1       8.009  28.615  54.971  1.00  0.00    -0.247 OA
HETATM    5  N   UNL     1       6.746  27.061  56.148  1.00  0.00    -0.268 N 
HETATM    6  C   UNL     1       6.433  25.744  55.954  1.00  0.00     0.257 C 
HETATM    7  O   UNL     1       5.708  25.064  56.663  1.00  0.00    -0.270 OA
HETATM    8  H   UNL     1       8.446  26.634  53.583  1.00  0.00     0.165 HD
ENDROOT
BRANCH   1   9
HETATM    9  C   UNL     1       6.171  24.524  53.706  1.00  0.00     0.027 C 
HETATM   10  C   UNL     1       6.687  24.337  52.268  1.00  0.00     0.035 C 
HETATM   11  C   UNL     1       6.647  25.596  51.408  1.00  0.00     0.235 C 
HETATM   12  N   UNL     1       5.277  26.219  51.412  1.00  0.00    -0.067 N 
HETATM   13  H   UNL     1       4.645  25.579  50.909  1.00  0.00     0.280 HD
HETATM   14  C   UNL     1       4.697  26.433  52.786  1.00  0.00     0.235 C 
HETATM   15  C   UNL     1       4.764  25.156  53.611  1.00  0.00     0.035 C 
BRANCH  12  16
HETATM   16  C   UNL     1       5.242  27.526  50.630  1.00  0.00     0.278 C 
BRANCH  16  17
HETATM   17  C   UNL     1       3.941  27.819  49.994  1.00  0.00     0.034 A 
HETATM   18  C   UNL     1       2.959  28.774  50.384  1.00  0.00     0.062 A 
HETATM   19  C   UNL     1       2.992  29.736  51.518  1.00  0.00     0.073 C 
HETATM   20  N   UNL     1       1.904  28.766  49.564  1.00  0.00    -0.176 NA
HETATM   21  N   UNL     1       2.156  27.774  48.686  1.00  0.00    -0.262 N 
HETATM   22  C   UNL     1       1.161  27.430  47.697  1.00  0.00     0.181 C 
HETATM   23  C   UNL     1       3.381  27.216  48.893  1.00  0.00     0.131 A 
HETATM   24 CL   UNL     1       3.977  25.985  47.883  1.00  0.00    -0.062 Cl
ENDBRANCH  16  17
ENDBRANCH  12  16
ENDBRANCH   1   9
BRANCH   1  25
HETATM   25  C   UNL     1       8.411  24.414  55.105  1.00  0.00     0.080 C 
BRANCH  25  26
HETATM   26  C   UNL     1       8.325  22.912  54.997  1.00  0.00    -0.052 A 
HETATM   27  C   UNL     1       8.807  22.232  53.874  1.00  0.00     0.049 A 
HETATM   28  C   UNL     1       8.725  20.841  53.812  1.00  0.00     0.116 A 
HETATM   29  F   UNL     1       9.187  20.209  52.727  1.00  0.00    -0.206 F 
HETATM   30  C   UNL     1       8.176  20.105  54.853  1.00  0.00     0.042 A 
HETATM   31  C   UNL     1       7.701  20.770  55.981  1.00  0.00     0.003 A 
HETATM   32  C   UNL     1       7.776  22.163  56.052  1.00  0.00     0.007 A 
ENDBRANCH  25  26
ENDBRANCH   1  25
BRANCH   5  33
HETATM   33  C   UNL     1       6.398  27.832  57.330  1.00  0.00     0.140 C 
BRANCH  33  34
HETATM   34  C   UNL     1       5.218  28.807  57.154  1.00  0.00    -0.004 C 
HETATM   35  C   UNL     1       5.670  30.259  57.004  1.00  0.00     0.011 C 
HETATM   36  C   UNL     1       4.293  28.415  56.003  1.00  0.00     0.011 C 
ENDBRANCH  33  34
ENDBRANCH   5  33
TORSDOF 7
ENDMDL
MODEL 2
REMARK VINA RESULT:      -9.4      3.385      6.626
REMARK  7 active torsions:
REMARK  status: ('A' for Active; 'I' for Inactive)
REMARK    1  A    between atoms: C_8  and  C_9 
REMARK    2  A    between atoms: C_9  and  N_10 
REMARK    3  A    between atoms: C_14  and  C_15 
REMARK    4  A    between atoms: C_15  and  C_16 
REMARK    5  A    between atoms: C_16  and  C_17 
REMARK    6  A    between atoms: N_27  and  C_28 
REMARK    7  A    between atoms: C_28  and  C_29 
ROOT
HETATM    1  C   UNL     1       6.607  25.340  54.937  1.00  0.00     0.123 C 
HETATM    2  N   UNL     1       5.553  24.605  54.250  1.00  0.00    -0.324 N 
HETATM    3  C   UNL     1       5.191  25.229  53.070  1.00  0.00     0.326 C 
HETATM    4  O   UNL     1       4.484  24.681  52.244  1.00  0.00    -0.247 OA
HETATM    5  N   UNL     1       5.745  26.465  53.034  1.00  0.00    -0.268 N 
HETATM    6  C   UNL     1       6.541  26.659  54.128  1.00  0.00     0.257 C 
HETATM    7  O   UNL     1       7.118  27.693  54.426  1.00  0.00    -0.270 OA
HETATM    8  H   UNL     1       5.516  23.592  54.191  1.00  0.00     0.165 HD
ENDROOT
BRANCH   1   9
HETATM    9  C   UNL     1       6.281  25.581  56.448  1.00  0.00     0.027 C 
HETATM   10  C   UNL     1       5.235  26.675  56.728  1.00  0.00     0.035 C 
HETATM   11  C   UNL     1       5.756  28.102  56.600  1.00  0.00     0.235 C 
HETATM   12  N   UNL     1       6.993  28.311  57.434  1.00  0.00    -0.067 N 
HETATM   13  H   UNL     1       6.710  28.260  58.423  1.00  0.00     0.280 HD
HETATM   14  C   UNL     1       8.067  27.276  57.220  1.00  0.00     0.235 C 
HETATM   15  C   UNL     1       7.502  25.870  57.349  1.00  0.00     0.035 C 
BRANCH  12  16
HETATM   16  C   UNL     1       7.577  29.705  57.247  1.00  0.00     0.278 C 
BRANCH  16  17
HETATM   17  C   UNL     1       7.075  30.709  58.209  1.00  0.00     0.034 A 
HETATM   18  C   UNL     1       5.962  31.587  58.073  1.00  0.00     0.062 A 
HETATM   19  C   UNL     1       5.006  31.712  56.940  1.00  0.00     0.073 C 
HETATM   20  N   UNL     1       5.801  32.356  59.154  1.00  0.00    -0.176 NA
HETATM   21  N   UNL     1       6.832  32.037  59.962  1.00  0.00    -0.262 N 
HETATM   22  C   UNL     1       7.014  32.759  61.200  1.00  0.00     0.181 C 
HETATM   23  C   UNL     1       7.588  31.030  59.443  1.00  0.00     0.131 A 
HETATM   24 CL   UNL     1       8.915  30.389  60.291  1.00  0.00    -0.062 Cl
ENDBRANCH  16  17
ENDBRANCH  12  16
ENDBRANCH   1   9
BRANCH   1  25
HETATM   25  C   UNL     1       7.959  24.628  54.642  1.00  0.00     0.080 C 
BRANCH  25  26
HETATM   26  C   UNL     1       7.962  23.120  54.610  1.00  0.00    -0.052 A 
HETATM   27  C   UNL     1       8.152  22.416  53.417  1.00  0.00     0.049 A 
HETATM   28  C   UNL     1       8.163  21.022  53.424  1.00  0.00     0.116 A 
HETATM   29  F   UNL     1       8.341  20.366  52.270  1.00  0.00    -0.206 F 
HETATM   30  C   UNL     1       7.996  20.306  54.601  1.00  0.00     0.042 A 
HETATM   31  C   UNL     1       7.815  20.995  55.797  1.00  0.00     0.003 A 
HETATM   32  C   UNL     1       7.800  22.392  55.802  1.00  0.00     0.007 A 
ENDBRANCH  25  26
ENDBRANCH   1  25
BRANCH   5  33
HETATM   33  C   UNL     1       5.584  27.416  51.945  1.00  0.00     0.140 C 
BRANCH  33  34
HETATM   34  C   UNL     1       4.205  28.096  51.866  1.00  0.00    -0.004 C 
HETATM   35  C   UNL     1       3.754  28.672  53.208  1.00  0.00     0.011 C 
HETATM   36  C   UNL     1       4.133  29.165  50.776  1.00  0.00     0.011 C 
ENDBRANCH  33  34
ENDBRANCH   5  33
TORSDOF 7
ENDMDL
MODEL 3
REMARK VINA RESULT:      -9.3      1.668      2.165
REMARK  7 active torsions:
REMARK  status: ('A' for Active; 'I' for Inactive)
REMARK    1  A    between atoms: C_8  and  C_9 
REMARK    2  A    between atoms: C_9  and  N_10 
REMARK    3  A    between atoms: C_14  and  C_15 
REMARK    4  A    between atoms: C_15  and  C_16 
REMARK    5  A    between atoms: C_16  and  C_17 
REMARK    6  A    between atoms: N_27  and  C_28 
REMARK    7  A    between atoms: C_28  and  C_29 
ROOT
HETATM    1  C   UNL     1       6.980  25.630  53.960  1.00  0.00     0.123 C 
HETATM    2  N   UNL     1       7.339  27.005  53.638  1.00  0.00    -0.324 N 
HETATM    3  C   UNL     1       7.907  27.644  54.724  1.00  0.00     0.326 C 
HETATM    4  O   UNL     1       8.465  28.721  54.617  1.00  0.00    -0.247 OA
HETATM    5  N   UNL     1       7.729  26.882  55.831  1.00  0.00    -0.268 N 
HETATM    6  C   UNL     1       7.123  25.703  55.500  1.00  0.00     0.257 C 
HETATM    7  O   UNL     1       6.758  24.836  56.280  1.00  0.00    -0.270 OA
HETATM    8  H   UNL     1       7.744  27.292  52.752  1.00  0.00     0.165 HD
ENDROOT
BRANCH   1   9
HETATM    9  C   UNL     1       5.515  25.280  53.539  1.00  0.00     0.027 C 
HETATM   10  C   UNL     1       5.358  24.707  52.119  1.00  0.00     0.035 C 
HETATM   11  C   UNL     1       5.445  25.741  51.002  1.00  0.00     0.235 C 
HETATM   12  N   UNL     1       4.488  26.880  51.234  1.00  0.00    -0.067 N 
HETATM   13  H   UNL     1       3.533  26.507  51.125  1.00  0.00     0.280 HD
HETATM   14  C   UNL     1       4.576  27.496  52.606  1.00  0.00     0.235 C 
HETATM   15  C   UNL     1       4.493  26.429  53.688  1.00  0.00     0.035 C 
BRANCH  12  16
HETATM   16  C   UNL     1       4.626  27.965  50.173  1.00  0.00     0.278 C 
BRANCH  16  17
HETATM   17  C   UNL     1       3.431  28.137  49.320  1.00  0.00     0.034 A 
HETATM   18  C   UNL     1       2.842  27.200  48.422  1.00  0.00     0.062 A 
HETATM   19  C   UNL     1       3.260  25.805  48.123  1.00  0.00     0.073 C 
HETATM   20  N   UNL     1       1.759  27.703  47.821  1.00  0.00    -0.176 NA
HETATM   21  N   UNL     1       1.675  28.973  48.264  1.00  0.00    -0.262 N 
HETATM   22  C   UNL     1       0.651  29.844  47.736  1.00  0.00     0.181 C 
HETATM   23  C   UNL     1       2.636  29.250  49.189  1.00  0.00     0.131 A 
HETATM   24 CL   UNL     1       2.717  30.764  49.959  1.00  0.00    -0.062 Cl
ENDBRANCH  16  17
ENDBRANCH  12  16
ENDBRANCH   1   9
BRANCH   1  25
HETATM   25  C   UNL     1       8.089  24.700  53.388  1.00  0.00     0.080 C 
BRANCH  25  26
HETATM   26  C   UNL     1       8.104  23.264  53.851  1.00  0.00    -0.052 A 
HETATM   27  C   UNL     1       8.465  22.923  55.158  1.00  0.00     0.049 A 
HETATM   28  C   UNL     1       8.455  21.587  55.558  1.00  0.00     0.116 A 
HETATM   29  F   UNL     1       8.809  21.281  56.812  1.00  0.00    -0.206 F 
HETATM   30  C   UNL     1       8.084  20.576  54.683  1.00  0.00     0.042 A 
HETATM   31  C   UNL     1       7.713  20.904  53.382  1.00  0.00     0.003 A 
HETATM   32  C   UNL     1       7.722  22.238  52.969  1.00  0.00     0.007 A 
ENDBRANCH  25  26
ENDBRANCH   1  25
BRANCH   5  33
HETATM   33  C   UNL     1       8.193  27.232  57.164  1.00  0.00     0.140 C 
BRANCH  33  34
HETATM   34  C   UNL     1       7.316  28.250  57.918  1.00  0.00    -0.004 C 
HETATM   35  C   UNL     1       7.983  29.618  58.052  1.00  0.00     0.011 C 
HETATM   36  C   UNL     1       5.921  28.393  57.312  1.00  0.00     0.011 C 
ENDBRANCH  33  34
ENDBRANCH   5  33
TORSDOF 7
ENDMDL
MODEL 4
REMARK VINA RESULT:      -9.1      3.493      7.154
REMARK  7 active torsions:
REMARK  status: ('A' for Active; 'I' for Inactive)
REMARK    1  A    between atoms: C_8  and  C_9 
REMARK    2  A    between atoms: C_9  and  N_10 
REMARK    3  A    between atoms: C_14  and  C_15 
REMARK    4  A    between atoms: C_15  and  C_16 
REMARK    5  A    between atoms: C_16  and  C_17 
REMARK    6  A    between atoms: N_27  and  C_28 
REMARK    7  A    between atoms: C_28  and  C_29 
ROOT
HETATM    1  C   UNL     1       6.175  26.286  54.512  1.00  0.00     0.123 C 
HETATM    2  N   UNL     1       4.957  27.058  54.722  1.00  0.00    -0.324 N 
HETATM    3  C   UNL     1       4.577  27.721  53.570  1.00  0.00     0.326 C 
HETATM    4  O   UNL     1       3.486  28.252  53.464  1.00  0.00    -0.247 OA
HETATM    5  N   UNL     1       5.586  27.657  52.667  1.00  0.00    -0.268 N 
HETATM    6  C   UNL     1       6.609  26.893  53.156  1.00  0.00     0.257 C 
HETATM    7  O   UNL     1       7.689  26.705  52.617  1.00  0.00    -0.270 OA
HETATM    8  H   UNL     1       4.168  26.732  55.271  1.00  0.00     0.165 HD
ENDROOT
BRANCH   1   9
HETATM    9  C   UNL     1       7.247  26.545  55.622  1.00  0.00     0.027 C 
HETATM   10  C   UNL     1       6.699  26.630  57.058  1.00  0.00     0.035 C 
HETATM   11  C   UNL     1       6.009  27.947  57.398  1.00  0.00     0.235 C 
HETATM   12  N   UNL     1       6.893  29.125  57.087  1.00  0.00    -0.067 N 
HETATM   13  H   UNL     1       7.682  29.103  57.749  1.00  0.00     0.280 HD
HETATM   14  C   UNL     1       7.474  29.115  55.696  1.00  0.00     0.235 C 
HETATM   15  C   UNL     1       8.144  27.782  55.397  1.00  0.00     0.035 C 
BRANCH  12  16
HETATM   16  C   UNL     1       6.185  30.451  57.337  1.00  0.00     0.278 C 
BRANCH  16  17
HETATM   17  C   UNL     1       6.643  31.165  58.548  1.00  0.00     0.034 A 
HETATM   18  C   UNL     1       5.905  32.045  59.390  1.00  0.00     0.062 A 
HETATM   19  C   UNL     1       4.481  32.461  59.284  1.00  0.00     0.073 C 
HETATM   20  N   UNL     1       6.647  32.503  60.403  1.00  0.00    -0.176 NA
HETATM   21  N   UNL     1       7.875  31.986  60.193  1.00  0.00    -0.262 N 
HETATM   22  C   UNL     1       8.962  32.357  61.070  1.00  0.00     0.181 C 
HETATM   23  C   UNL     1       7.895  31.152  59.116  1.00  0.00     0.131 A 
HETATM   24 CL   UNL     1       9.305  30.315  58.668  1.00  0.00    -0.062 Cl
ENDBRANCH  16  17
ENDBRANCH  12  16
ENDBRANCH   1   9
BRANCH   1  25
HETATM   25  C   UNL     1       5.768  24.798  54.298  1.00  0.00     0.080 C 
BRANCH  25  26
HETATM   26  C   UNL     1       6.855  23.757  54.386  1.00  0.00    -0.052 A 
HETATM   27  C   UNL     1       7.236  23.200  55.612  1.00  0.00     0.049 A 
HETATM   28  C   UNL     1       8.235  22.230  55.656  1.00  0.00     0.116 A 
HETATM   29  F   UNL     1       8.589  21.713  56.840  1.00  0.00    -0.206 F 
HETATM   30  C   UNL     1       8.865  21.790  54.500  1.00  0.00     0.042 A 
HETATM   31  C   UNL     1       8.489  22.329  53.273  1.00  0.00     0.003 A 
HETATM   32  C   UNL     1       7.490  23.304  53.216  1.00  0.00     0.007 A 
ENDBRANCH  25  26
ENDBRANCH   1  25
BRANCH   5  33
HETATM   33  C   UNL     1       5.549  28.244  51.337  1.00  0.00     0.140 C 
BRANCH  33  34
HETATM   34  C   UNL     1       4.735  27.456  50.294  1.00  0.00    -0.004 C 
HETATM   35  C   UNL     1       4.948  27.969  48.870  1.00  0.00     0.011 C 
HETATM   36  C   UNL     1       4.986  25.950  50.361  1.00  0.00     0.011 C 
ENDBRANCH  33  34
ENDBRANCH   5  33
TORSDOF 7
ENDMDL
MODEL 5
REMARK VINA RESULT:      -9.1      3.524      7.169
REMARK  7 active torsions:
REMARK  status: ('A' for Active; 'I' for Inactive)
REMARK    1  A    between atoms: C_8  and  C_9 
REMARK    2  A    between atoms: C_9  and  N_10 
REMARK    3  A    between atoms: C_14  and  C_15 
REMARK    4  A    between atoms: C_15  and  C_16 
REMARK    5  A    between atoms: C_16  and  C_17 
REMARK    6  A    between atoms: N_27  and  C_28 
REMARK    7  A    between atoms: C_28  and  C_29 
ROOT
HETATM    1  C   UNL     1       6.130  26.295  54.593  1.00  0.00     0.123 C 
HETATM    2  N   UNL     1       4.901  27.066  54.736  1.00  0.00    -0.324 N 
HETATM    3  C   UNL     1       4.573  27.714  53.560  1.00  0.00     0.326 C 
HETATM    4  O   UNL     1       3.487  28.240  53.397  1.00  0.00    -0.247 OA
HETATM    5  N   UNL     1       5.622  27.641  52.705  1.00  0.00    -0.268 N 
HETATM    6  C   UNL     1       6.624  26.887  53.250  1.00  0.00     0.257 C 
HETATM    7  O   UNL     1       7.728  26.695  52.763  1.00  0.00    -0.270 OA
HETATM    8  H   UNL     1       4.088  26.745  55.253  1.00  0.00     0.165 HD
ENDROOT
BRANCH   1   9
HETATM    9  C   UNL     1       7.148  26.571  55.747  1.00  0.00     0.027 C 
HETATM   10  C   UNL     1       6.529  26.729  57.147  1.00  0.00     0.035 C 
HETATM   11  C   UNL     1       5.859  28.076  57.399  1.00  0.00     0.235 C 
HETATM   12  N   UNL     1       6.790  29.217  57.089  1.00  0.00    -0.067 N 
HETATM   13  H   UNL     1       7.542  29.202  57.793  1.00  0.00     0.280 HD
HETATM   14  C   UNL     1       7.443  29.136  55.733  1.00  0.00     0.235 C 
HETATM   15  C   UNL     1       8.090  27.775  55.522  1.00  0.00     0.035 C 
BRANCH  12  16
HETATM   16  C   UNL     1       6.107  30.570  57.250  1.00  0.00     0.278 C 
BRANCH  16  17
HETATM   17  C   UNL     1       6.486  31.299  58.478  1.00  0.00     0.034 A 
HETATM   18  C   UNL     1       7.784  31.479  59.037  1.00  0.00     0.062 A 
HETATM   19  C   UNL     1       9.095  30.997  58.525  1.00  0.00     0.073 C 
HETATM   20  N   UNL     1       7.746  32.206  60.158  1.00  0.00    -0.176 NA
HETATM   21  N   UNL     1       6.437  32.445  60.371  1.00  0.00    -0.262 N 
HETATM   22  C   UNL     1       6.027  33.143  61.567  1.00  0.00     0.181 C 
HETATM   23  C   UNL     1       5.662  31.950  59.366  1.00  0.00     0.131 A 
HETATM   24 CL   UNL     1       3.977  32.171  59.352  1.00  0.00    -0.062 Cl
ENDBRANCH  16  17
ENDBRANCH  12  16
ENDBRANCH   1   9
BRANCH   1  25
HETATM   25  C   UNL     1       5.737  24.804  54.380  1.00  0.00     0.080 C 
BRANCH  25  26
HETATM   26  C   UNL     1       6.839  23.776  54.436  1.00  0.00    -0.052 A 
HETATM   27  C   UNL     1       7.275  23.240  55.652  1.00  0.00     0.049 A 
HETATM   28  C   UNL     1       8.287  22.281  55.668  1.00  0.00     0.116 A 
HETATM   29  F   UNL     1       8.695  21.785  56.843  1.00  0.00    -0.206 F 
HETATM   30  C   UNL     1       8.874  21.833  54.493  1.00  0.00     0.042 A 
HETATM   31  C   UNL     1       8.442  22.352  53.275  1.00  0.00     0.003 A 
HETATM   32  C   UNL     1       7.430  23.315  53.247  1.00  0.00     0.007 A 
ENDBRANCH  25  26
ENDBRANCH   1  25
BRANCH   5  33
HETATM   33  C   UNL     1       5.645  28.211  51.368  1.00  0.00     0.140 C 
BRANCH  33  34
HETATM   34  C   UNL     1       4.784  27.474  50.325  1.00  0.00    -0.004 C 
HETATM   35  C   UNL     1       4.985  28.012  48.908  1.00  0.00     0.011 C 
HETATM   36  C   UNL     1       4.986  25.960  50.354  1.00  0.00     0.011 C 
ENDBRANCH  33  34
ENDBRANCH   5  33
TORSDOF 7
ENDMDL
MODEL 6
REMARK VINA RESULT:      -8.7      2.626      5.435
REMARK  7 active torsions:
REMARK  status: ('A' for Active; 'I' for Inactive)
REMARK    1  A    between atoms: C_8  and  C_9 
REMARK    2  A    between atoms: C_9  and  N_10 
REMARK    3  A    between atoms: C_14  and  C_15 
REMARK    4  A    between atoms: C_15  and  C_16 
REMARK    5  A    between atoms: C_16  and  C_17 
REMARK    6  A    between atoms: N_27  and  C_28 
REMARK    7  A    between atoms: C_28  and  C_29 
ROOT
HETATM    1  C   UNL     1       6.642  26.047  54.692  1.00  0.00     0.123 C 
HETATM    2  N   UNL     1       6.756  25.447  56.014  1.00  0.00    -0.324 N 
HETATM    3  C   UNL     1       7.574  24.332  55.993  1.00  0.00     0.326 C 
HETATM    4  O   UNL     1       7.970  23.805  57.016  1.00  0.00    -0.247 OA
HETATM    5  N   UNL     1       7.820  23.987  54.705  1.00  0.00    -0.268 N 
HETATM    6  C   UNL     1       7.251  24.895  53.856  1.00  0.00     0.257 C 
HETATM    7  O   UNL     1       7.227  24.824  52.637  1.00  0.00    -0.270 OA
HETATM    8  H   UNL     1       6.836  25.981  56.874  1.00  0.00     0.165 HD
ENDROOT
BRANCH   1   9
HETATM    9  C   UNL     1       5.157  26.323  54.286  1.00  0.00     0.027 C 
HETATM   10  C   UNL     1       4.463  25.185  53.516  1.00  0.00     0.035 C 
HETATM   11  C   UNL     1       4.858  25.077  52.047  1.00  0.00     0.235 C 
HETATM   12  N   UNL     1       4.687  26.392  51.335  1.00  0.00    -0.067 N 
HETATM   13  H   UNL     1       3.677  26.586  51.286  1.00  0.00     0.280 HD
HETATM   14  C   UNL     1       5.336  27.562  52.028  1.00  0.00     0.235 C 
HETATM   15  C   UNL     1       4.921  27.627  53.491  1.00  0.00     0.035 C 
BRANCH  12  16
HETATM   16  C   UNL     1       5.162  26.324  49.889  1.00  0.00     0.278 C 
BRANCH  16  17
HETATM   17  C   UNL     1       4.198  26.863  48.907  1.00  0.00     0.034 A 
HETATM   18  C   UNL     1       3.277  26.149  48.086  1.00  0.00     0.062 A 
HETATM   19  C   UNL     1       3.032  24.684  48.016  1.00  0.00     0.073 C 
HETATM   20  N   UNL     1       2.554  26.972  47.320  1.00  0.00    -0.176 NA
HETATM   21  N   UNL     1       3.038  28.203  47.582  1.00  0.00    -0.262 N 
HETATM   22  C   UNL     1       2.531  29.338  46.845  1.00  0.00     0.181 C 
HETATM   23  C   UNL     1       3.993  28.175  48.553  1.00  0.00     0.131 A 
HETATM   24 CL   UNL     1       4.723  29.601  49.121  1.00  0.00    -0.062 Cl
ENDBRANCH  16  17
ENDBRANCH  12  16
ENDBRANCH   1   9
BRANCH   1  25
HETATM   25  C   UNL     1       7.597  27.275  54.639  1.00  0.00     0.080 C 
BRANCH  25  26
HETATM   26  C   UNL     1       7.703  28.131  55.876  1.00  0.00    -0.052 A 
HETATM   27  C   UNL     1       8.945  28.487  56.413  1.00  0.00     0.049 A 
HETATM   28  C   UNL     1       9.009  29.290  57.550  1.00  0.00     0.116 A 
HETATM   29  F   UNL     1      10.207  29.615  58.052  1.00  0.00    -0.206 F 
HETATM   30  C   UNL     1       7.857  29.760  58.166  1.00  0.00     0.042 A 
HETATM   31  C   UNL     1       6.615  29.421  57.636  1.00  0.00     0.003 A 
HETATM   32  C   UNL     1       6.539  28.614  56.498  1.00  0.00     0.007 A 
ENDBRANCH  25  26
ENDBRANCH   1  25
BRANCH   5  33
HETATM   33  C   UNL     1       8.643  22.863  54.289  1.00  0.00     0.140 C 
BRANCH  33  34
HETATM   34  C   UNL     1       7.902  21.517  54.168  1.00  0.00    -0.004 C 
HETATM   35  C   UNL     1       8.282  20.747  52.904  1.00  0.00     0.011 C 
HETATM   36  C   UNL     1       8.074  20.634  55.403  1.00  0.00     0.011 C 
ENDBRANCH  33  34
ENDBRANCH   5  33
TORSDOF 7
ENDMDL
MODEL 7
REMARK VINA RESULT:      -8.5      2.611      5.249
REMARK  7 active torsions:
REMARK  status: ('A' for Active; 'I' for Inactive)
REMARK    1  A    between atoms: C_8  and  C_9 
REMARK    2  A    between atoms: C_9  and  N_10 
REMARK    3  A    between atoms: C_14  and  C_15 
REMARK    4  A    between atoms: C_15  and  C_16 
REMARK    5  A    between atoms: C_16  and  C_17 
REMARK    6  A    between atoms: N_27  and  C_28 
REMARK    7  A    between atoms: C_28  and  C_29 
ROOT
HETATM    1  C   UNL     1       6.336  25.447  54.233  1.00  0.00     0.123 C 
HETATM    2  N   UNL     1       6.302  24.984  55.614  1.00  0.00    -0.324 N 
HETATM    3  C   UNL     1       7.244  23.997  55.838  1.00  0.00     0.326 C 
HETATM    4  O   UNL     1       7.526  23.620  56.960  1.00  0.00    -0.247 OA
HETATM    5  N   UNL     1       7.742  23.580  54.648  1.00  0.00    -0.268 N 
HETATM    6  C   UNL     1       7.213  24.323  53.629  1.00  0.00     0.257 C 
HETATM    7  O   UNL     1       7.402  24.146  52.435  1.00  0.00    -0.270 OA
HETATM    8  H   UNL     1       6.171  25.596  56.414  1.00  0.00     0.165 HD
ENDROOT
BRANCH   1   9
HETATM    9  C   UNL     1       4.917  25.477  53.576  1.00  0.00     0.027 C 
HETATM   10  C   UNL     1       4.836  24.884  52.158  1.00  0.00     0.035 C 
HETATM   11  C   UNL     1       5.378  25.790  51.058  1.00  0.00     0.235 C 
HETATM   12  N   UNL     1       4.745  27.155  51.110  1.00  0.00    -0.067 N 
HETATM   13  H   UNL     1       3.754  27.045  50.847  1.00  0.00     0.280 HD
HETATM   14  C   UNL     1       4.780  27.804  52.469  1.00  0.00     0.235 C 
HETATM   15  C   UNL     1       4.238  26.864  53.535  1.00  0.00     0.035 C 
BRANCH  12  16
HETATM   16  C   UNL     1       5.341  28.099  50.073  1.00  0.00     0.278 C 
BRANCH  16  17
HETATM   17  C   UNL     1       4.356  28.659  49.124  1.00  0.00     0.034 A 
HETATM   18  C   UNL     1       4.146  30.022  48.765  1.00  0.00     0.062 A 
HETATM   19  C   UNL     1       4.872  31.232  49.234  1.00  0.00     0.073 C 
HETATM   20  N   UNL     1       3.167  30.153  47.864  1.00  0.00    -0.176 NA
HETATM   21  N   UNL     1       2.694  28.904  47.683  1.00  0.00    -0.262 N 
HETATM   22  C   UNL     1       1.551  28.695  46.824  1.00  0.00     0.181 C 
HETATM   23  C   UNL     1       3.407  27.985  48.391  1.00  0.00     0.131 A 
HETATM   24 CL   UNL     1       3.061  26.324  48.292  1.00  0.00    -0.062 Cl
ENDBRANCH  16  17
ENDBRANCH  12  16
ENDBRANCH   1   9
BRANCH   1  25
HETATM   25  C   UNL     1       7.127  26.787  54.197  1.00  0.00     0.080 C 
BRANCH  25  26
HETATM   26  C   UNL     1       7.222  27.577  55.478  1.00  0.00    -0.052 A 
HETATM   27  C   UNL     1       6.117  28.257  56.000  1.00  0.00     0.049 A 
HETATM   28  C   UNL     1       6.236  28.967  57.194  1.00  0.00     0.116 A 
HETATM   29  F   UNL     1       5.168  29.615  57.675  1.00  0.00    -0.206 F 
HETATM   30  C   UNL     1       7.435  29.010  57.891  1.00  0.00     0.042 A 
HETATM   31  C   UNL     1       8.540  28.329  57.387  1.00  0.00     0.003 A 
HETATM   32  C   UNL     1       8.434  27.617  56.190  1.00  0.00     0.007 A 
ENDBRANCH  25  26
ENDBRANCH   1  25
BRANCH   5  33
HETATM   33  C   UNL     1       8.754  22.550  54.486  1.00  0.00     0.140 C 
BRANCH  33  34
HETATM   34  C   UNL     1       8.215  21.113  54.359  1.00  0.00    -0.004 C 
HETATM   35  C   UNL     1       8.412  20.530  52.960  1.00  0.00     0.011 C 
HETATM   36  C   UNL     1       8.789  20.170  55.415  1.00  0.00     0.011 C 
ENDBRANCH  33  34
ENDBRANCH   5  33
TORSDOF 7
ENDMDL
MODEL 8
REMARK VINA RESULT:      -8.3      3.197      6.348
REMARK  7 active torsions:
REMARK  status: ('A' for Active; 'I' for Inactive)
REMARK    1  A    between atoms: C_8  and  C_9 
REMARK    2  A    between atoms: C_9  and  N_10 
REMARK    3  A    between atoms: C_14  and  C_15 
REMARK    4  A    between atoms: C_15  and  C_16 
REMARK    5  A    between atoms: C_16  and  C_17 
REMARK    6  A    between atoms: N_27  and  C_28 
REMARK    7  A    between atoms: C_28  and  C_29 
ROOT
HETATM    1  C   UNL     1       5.688  26.735  54.271  1.00  0.00     0.123 C 
HETATM    2  N   UNL     1       4.423  27.458  54.252  1.00  0.00    -0.324 N 
HETATM    3  C   UNL     1       4.154  27.969  52.996  1.00  0.00     0.326 C 
HETATM    4  O   UNL     1       3.063  28.425  52.708  1.00  0.00    -0.247 OA
HETATM    5  N   UNL     1       5.264  27.860  52.225  1.00  0.00    -0.268 N 
HETATM    6  C   UNL     1       6.253  27.211  52.910  1.00  0.00     0.257 C 
HETATM    7  O   UNL     1       7.395  27.024  52.521  1.00  0.00    -0.270 OA
HETATM    8  H   UNL     1       3.589  27.152  54.744  1.00  0.00     0.165 HD
ENDROOT
BRANCH   1   9
HETATM    9  C   UNL     1       6.611  27.172  55.456  1.00  0.00     0.027 C 
HETATM   10  C   UNL     1       6.076  26.843  56.861  1.00  0.00     0.035 C 
HETATM   11  C   UNL     1       4.975  27.774  57.358  1.00  0.00     0.235 C 
HETATM   12  N   UNL     1       5.395  29.217  57.263  1.00  0.00    -0.067 N 
HETATM   13  H   UNL     1       6.147  29.365  57.952  1.00  0.00     0.280 HD
HETATM   14  C   UNL     1       5.935  29.620  55.916  1.00  0.00     0.235 C 
HETATM   15  C   UNL     1       7.023  28.660  55.457  1.00  0.00     0.035 C 
BRANCH  12  16
HETATM   16  C   UNL     1       4.274  30.164  57.672  1.00  0.00     0.278 C 
BRANCH  16  17
HETATM   17  C   UNL     1       4.540  31.587  57.370  1.00  0.00     0.034 A 
HETATM   18  C   UNL     1       5.442  32.477  58.020  1.00  0.00     0.062 A 
HETATM   19  C   UNL     1       6.362  32.205  59.157  1.00  0.00     0.073 C 
HETATM   20  N   UNL     1       5.423  33.694  57.469  1.00  0.00    -0.176 NA
HETATM   21  N   UNL     1       4.475  33.626  56.513  1.00  0.00    -0.262 N 
HETATM   22  C   UNL     1       4.129  34.816  55.769  1.00  0.00     0.181 C 
HETATM   23  C   UNL     1       3.956  32.372  56.404  1.00  0.00     0.131 A 
HETATM   24 CL   UNL     1       2.787  31.994  55.230  1.00  0.00    -0.062 Cl
ENDBRANCH  16  17
ENDBRANCH  12  16
ENDBRANCH   1   9
BRANCH   1  25
HETATM   25  C   UNL     1       5.371  25.213  54.186  1.00  0.00     0.080 C 
BRANCH  25  26
HETATM   26  C   UNL     1       6.536  24.256  54.169  1.00  0.00    -0.052 A 
HETATM   27  C   UNL     1       7.142  23.821  55.352  1.00  0.00     0.049 A 
HETATM   28  C   UNL     1       8.208  22.925  55.301  1.00  0.00     0.116 A 
HETATM   29  F   UNL     1       8.778  22.526  56.445  1.00  0.00    -0.206 F 
HETATM   30  C   UNL     1       8.685  22.441  54.091  1.00  0.00     0.042 A 
HETATM   31  C   UNL     1       8.085  22.858  52.907  1.00  0.00     0.003 A 
HETATM   32  C   UNL     1       7.017  23.758  52.945  1.00  0.00     0.007 A 
ENDBRANCH  25  26
ENDBRANCH   1  25
BRANCH   5  33
HETATM   33  C   UNL     1       5.359  28.294  50.841  1.00  0.00     0.140 C 
BRANCH  33  34
HETATM   34  C   UNL     1       4.571  27.441  49.829  1.00  0.00    -0.004 C 
HETATM   35  C   UNL     1       4.875  27.816  48.379  1.00  0.00     0.011 C 
HETATM   36  C   UNL     1       4.763  25.941  50.043  1.00  0.00     0.011 C 
ENDBRANCH  33  34
ENDBRANCH   5  33
TORSDOF 7
ENDMDL
MODEL 9
REMARK VINA RESULT:      -8.3      1.847      2.331
REMARK  7 active torsions:
REMARK  status: ('A' for Active; 'I' for Inactive)
REMARK    1  A    between atoms: C_8  and  C_9 
REMARK    2  A    between atoms: C_9  and  N_10 
REMARK    3  A    between atoms: C_14  and  C_15 
REMARK    4  A    between atoms: C_15  and  C_16 
REMARK    5  A    between atoms: C_16  and  C_17 
REMARK    6  A    between atoms: N_27  and  C_28 
REMARK    7  A    between atoms: C_28  and  C_29 
ROOT
HETATM    1  C   UNL     1       7.097  25.213  54.771  1.00  0.00     0.123 C 
HETATM    2  N   UNL     1       8.034  25.328  55.880  1.00  0.00    -0.324 N 
HETATM    3  C   UNL     1       7.482  26.029  56.935  1.00  0.00     0.326 C 
HETATM    4  O   UNL     1       8.010  26.063  58.032  1.00  0.00    -0.247 OA
HETATM    5  N   UNL     1       6.330  26.614  56.526  1.00  0.00    -0.268 N 
HETATM    6  C   UNL     1       6.051  26.255  55.236  1.00  0.00     0.257 C 
HETATM    7  O   UNL     1       5.126  26.673  54.556  1.00  0.00    -0.270 OA
HETATM    8  H   UNL     1       8.651  24.579  56.180  1.00  0.00     0.165 HD
ENDROOT
BRANCH   1   9
HETATM    9  C   UNL     1       7.735  25.618  53.402  1.00  0.00     0.027 C 
HETATM   10  C   UNL     1       7.834  27.133  53.146  1.00  0.00     0.035 C 
HETATM   11  C   UNL     1       6.522  27.798  52.745  1.00  0.00     0.235 C 
HETATM   12  N   UNL     1       5.885  27.093  51.577  1.00  0.00    -0.067 N 
HETATM   13  H   UNL     1       6.484  27.257  50.755  1.00  0.00     0.280 HD
HETATM   14  C   UNL     1       5.754  25.602  51.748  1.00  0.00     0.235 C 
HETATM   15  C   UNL     1       7.083  24.982  52.154  1.00  0.00     0.035 C 
BRANCH  12  16
HETATM   16  C   UNL     1       4.529  27.691  51.221  1.00  0.00     0.278 C 
BRANCH  16  17
HETATM   17  C   UNL     1       4.400  28.107  49.809  1.00  0.00     0.034 A 
HETATM   18  C   UNL     1       4.032  27.316  48.683  1.00  0.00     0.062 A 
HETATM   19  C   UNL     1       3.664  25.875  48.635  1.00  0.00     0.073 C 
HETATM   20  N   UNL     1       4.013  28.034  47.556  1.00  0.00    -0.176 NA
HETATM   21  N   UNL     1       4.427  29.263  47.923  1.00  0.00    -0.262 N 
HETATM   22  C   UNL     1       4.609  30.282  46.914  1.00  0.00     0.181 C 
HETATM   23  C   UNL     1       4.630  29.349  49.267  1.00  0.00     0.131 A 
HETATM   24 CL   UNL     1       5.094  30.809  50.004  1.00  0.00    -0.062 Cl
ENDBRANCH  16  17
ENDBRANCH  12  16
ENDBRANCH   1   9
BRANCH   1  25
HETATM   25  C   UNL     1       6.462  23.792  54.827  1.00  0.00     0.080 C 
BRANCH  25  26
HETATM   26  C   UNL     1       7.396  22.613  54.927  1.00  0.00    -0.052 A 
HETATM   27  C   UNL     1       7.830  21.926  53.788  1.00  0.00     0.049 A 
HETATM   28  C   UNL     1       8.704  20.848  53.915  1.00  0.00     0.116 A 
HETATM   29  F   UNL     1       9.103  20.201  52.813  1.00  0.00    -0.206 F 
HETATM   30  C   UNL     1       9.168  20.439  55.157  1.00  0.00     0.042 A 
HETATM   31  C   UNL     1       8.751  21.119  56.298  1.00  0.00     0.003 A 
HETATM   32  C   UNL     1       7.873  22.199  56.183  1.00  0.00     0.007 A 
ENDBRANCH  25  26
ENDBRANCH   1  25
BRANCH   5  33
HETATM   33  C   UNL     1       5.471  27.435  57.364  1.00  0.00     0.140 C 
BRANCH  33  34
HETATM   34  C   UNL     1       5.610  28.955  57.156  1.00  0.00    -0.004 C 
HETATM   35  C   UNL     1       6.942  29.344  56.516  1.00  0.00     0.011 C 
HETATM   36  C   UNL     1       4.445  29.553  56.368  1.00  0.00     0.011 C 
ENDBRANCH  33  34
ENDBRANCH   5  33
TORSDOF 7
ENDMDL
MODEL 10
REMARK VINA RESULT:      -8.2      3.338      7.135
REMARK  7 active torsions:
REMARK  status: ('A' for Active; 'I' for Inactive)
REMARK    1  A    between atoms: C_8  and  C_9 
REMARK    2  A    between atoms: C_9  and  N_10 
REMARK    3  A    between atoms: C_14  and  C_15 
REMARK    4  A    between atoms: C_15  and  C_16 
REMARK    5  A    between atoms: C_16  and  C_17 
REMARK    6  A    between atoms: N_27  and  C_28 
REMARK    7  A    between atoms: C_28  and  C_29 
ROOT
HETATM    1  C   UNL     1       6.894  26.381  54.562  1.00  0.00     0.123 C 
HETATM    2  N   UNL     1       7.775  26.360  53.401  1.00  0.00    -0.324 N 
HETATM    3  C   UNL     1       7.897  25.084  52.885  1.00  0.00     0.326 C 
HETATM    4  O   UNL     1       8.412  24.874  51.802  1.00  0.00    -0.247 OA
HETATM    5  N   UNL     1       7.364  24.197  53.761  1.00  0.00    -0.268 N 
HETATM    6  C   UNL     1       6.812  24.857  54.823  1.00  0.00     0.257 C 
HETATM    7  O   UNL     1       6.322  24.342  55.816  1.00  0.00    -0.270 OA
HETATM    8  H   UNL     1       7.785  27.081  52.685  1.00  0.00     0.165 HD
ENDROOT
BRANCH   1   9
HETATM    9  C   UNL     1       7.525  27.135  55.778  1.00  0.00     0.027 C 
HETATM   10  C   UNL     1       6.769  26.983  57.110  1.00  0.00     0.035 C 
HETATM   11  C   UNL     1       5.505  27.828  57.225  1.00  0.00     0.235 C 
HETATM   12  N   UNL     1       5.786  29.277  56.927  1.00  0.00    -0.067 N 
HETATM   13  H   UNL     1       6.374  29.641  57.690  1.00  0.00     0.280 HD
HETATM   14  C   UNL     1       6.529  29.512  55.637  1.00  0.00     0.235 C 
HETATM   15  C   UNL     1       7.777  28.644  55.561  1.00  0.00     0.035 C 
BRANCH  12  16
HETATM   16  C   UNL     1       4.518  30.120  56.950  1.00  0.00     0.278 C 
BRANCH  16  17
HETATM   17  C   UNL     1       4.755  31.577  56.867  1.00  0.00     0.034 A 
HETATM   18  C   UNL     1       5.382  32.428  57.822  1.00  0.00     0.062 A 
HETATM   19  C   UNL     1       5.977  32.074  59.138  1.00  0.00     0.073 C 
HETATM   20  N   UNL     1       5.427  33.697  57.402  1.00  0.00    -0.176 NA
HETATM   21  N   UNL     1       4.780  33.693  56.220  1.00  0.00    -0.262 N 
HETATM   22  C   UNL     1       4.566  34.940  55.523  1.00  0.00     0.181 C 
HETATM   23  C   UNL     1       4.400  32.437  55.855  1.00  0.00     0.131 A 
HETATM   24 CL   UNL     1       3.622  32.140  54.373  1.00  0.00    -0.062 Cl
ENDBRANCH  16  17
ENDBRANCH  12  16
ENDBRANCH   1   9
BRANCH   1  25
HETATM   25  C   UNL     1       5.500  26.895  54.096  1.00  0.00     0.080 C 
BRANCH  25  26
HETATM   26  C   UNL     1       5.377  27.392  52.678  1.00  0.00    -0.052 A 
HETATM   27  C   UNL     1       5.017  26.534  51.633  1.00  0.00     0.049 A 
HETATM   28  C   UNL     1       4.898  27.028  50.335  1.00  0.00     0.116 A 
HETATM   29  F   UNL     1       4.558  26.190  49.348  1.00  0.00    -0.206 F 
HETATM   30  C   UNL     1       5.122  28.368  50.050  1.00  0.00     0.042 A 
HETATM   31  C   UNL     1       5.471  29.234  51.083  1.00  0.00     0.003 A 
HETATM   32  C   UNL     1       5.596  28.749  52.387  1.00  0.00     0.007 A 
ENDBRANCH  25  26
ENDBRANCH   1  25
BRANCH   5  33
HETATM   33  C   UNL     1       7.313  22.758  53.559  1.00  0.00     0.140 C 
BRANCH  33  34
HETATM   34  C   UNL     1       8.671  22.036  53.637  1.00  0.00    -0.004 C 
HETATM   35  C   UNL     1       9.292  22.096  55.032  1.00  0.00     0.011 C 
HETATM   36  C   UNL     1       8.601  20.590  53.146  1.00  0.00     0.011 C 
ENDBRANCH  33  34
ENDBRANCH   5  33
TORSDOF 7
ENDMDL
