MODEL 1
REMARK VINA RESULT:      -9.5      0.000      0.000
REMARK  10 active torsions:
REMARK  status: ('A' for Active; 'I' for Inactive)
REMARK    1  A    between atoms: C_6  and  N_7 
REMARK    2  A    between atoms: C_6  and  C_29 
REMARK       I    between atoms: N_7  and  C_8 
REMARK    3  A    between atoms: N_7  and  C_23 
REMARK    4  A    between atoms: C_8  and  C_9 
REMARK    5  A    between atoms: C_9  and  N_10 
REMARK    6  A    between atoms: C_14  and  C_15 
REMARK    7  A    between atoms: C_23  and  C_24 
REMARK       I    between atoms: C_29  and  N_30 
REMARK    8  A    between atoms: N_30  and  C_31 
REMARK    9  A    between atoms: C_32  and  O_33 
REMARK   10  A    between atoms: C_36  and  O_37 
ROOT
HETATM    1  N   UNL     1       5.494  29.914  56.880  1.00  0.00    -0.326 N 
HETATM    2  C   UNL     1       5.236  28.665  56.265  1.00  0.00     0.239 C 
HETATM    3  O   UNL     1       4.348  28.538  55.423  1.00  0.00    -0.271 OA
ENDROOT
BRANCH   1   4
HETATM    4  C   UNL     1       4.459  31.008  56.741  1.00  0.00     0.120 C 
HETATM    5  C   UNL     1       5.088  32.322  56.211  1.00  0.00     0.069 C 
HETATM    6  C   UNL     1       4.081  33.435  55.936  1.00  0.00     0.237 C 
HETATM    7  N   UNL     1       2.939  32.938  55.089  1.00  0.00    -0.075 N 
HETATM    8  C   UNL     1       1.944  34.042  54.832  1.00  0.00     0.269 C 
HETATM    9  H   UNL     1       3.328  32.673  54.171  1.00  0.00     0.279 HD
HETATM   10  C   UNL     1       2.260  31.722  55.660  1.00  0.00     0.237 C 
HETATM   11  C   UNL     1       3.279  30.600  55.808  1.00  0.00     0.069 C 
BRANCH   4  12
HETATM   12  C   UNL     1       3.802  31.238  58.148  1.00  0.00     0.251 C 
HETATM   13  N   UNL     1       4.367  32.283  58.845  1.00  0.00    -0.323 N 
HETATM   14  H   UNL     1       5.008  32.899  58.350  1.00  0.00     0.169 HD
HETATM   15  O   UNL     1       2.992  30.433  58.598  1.00  0.00    -0.270 OA
BRANCH  13  16
HETATM   16  C   UNL     1       4.206  32.626  60.206  1.00  0.00     0.068 A 
HETATM   17  C   UNL     1       3.120  33.472  60.522  1.00  0.00     0.097 A 
HETATM   18  C   UNL     1       2.910  33.882  61.844  1.00  0.00     0.075 A 
HETATM   19  C   UNL     1       3.776  33.454  62.853  1.00  0.00     0.070 A 
HETATM   20  C   UNL     1       4.850  32.622  62.531  1.00  0.00     0.039 A 
HETATM   21  C   UNL     1       5.065  32.204  61.217  1.00  0.00     0.035 A 
BRANCH  17  22
HETATM   22  O   UNL     1       2.349  33.856  59.445  1.00  0.00    -0.354 OA
HETATM   23  C   UNL     1       2.336  35.243  59.118  1.00  0.00     0.210 C 
ENDBRANCH  17  22
BRANCH  19  24
HETATM   24  O   UNL     1       3.696  33.784  64.176  1.00  0.00    -0.356 OA
HETATM   25  C   UNL     1       4.865  33.603  64.966  1.00  0.00     0.210 C 
ENDBRANCH  19  24
ENDBRANCH  13  16
ENDBRANCH   4  12
ENDBRANCH   1   4
BRANCH   1  26
HETATM   26  C   UNL     1       6.906  30.347  56.813  1.00  0.00     0.192 C 
BRANCH  26  27
HETATM   27  C   UNL     1       7.539  30.574  58.136  1.00  0.00     0.070 A 
HETATM   28  O   UNL     1       7.495  31.872  58.560  1.00  0.00    -0.325 OA
HETATM   29  C   UNL     1       8.106  31.928  59.769  1.00  0.00     0.142 A 
HETATM   30  C   UNL     1       8.554  30.681  60.134  1.00  0.00     0.027 A 
HETATM   31  C   UNL     1       8.192  29.806  59.080  1.00  0.00     0.036 A 
ENDBRANCH  26  27
ENDBRANCH   1  26
BRANCH   2  32
HETATM   32  C   UNL     1       6.071  27.475  56.792  1.00  0.00     0.228 C 
BRANCH  32  33
HETATM   33  N   UNL     1       6.545  26.563  55.761  1.00  0.00    -0.347 N 
HETATM   34  C   UNL     1       7.376  26.850  54.679  1.00  0.00     0.171 C 
HETATM   35  S   UNL     1       8.013  28.307  54.223  1.00  0.00    -0.041 SA
HETATM   36  N   UNL     1       7.588  25.667  53.979  1.00  0.00    -0.357 N 
HETATM   37  C   UNL     1       6.666  24.650  54.430  1.00  0.00     0.135 C 
HETATM   38  H   UNL     1       8.008  25.677  53.057  1.00  0.00     0.162 HD
HETATM   39  C   UNL     1       6.296  25.133  55.837  1.00  0.00     0.155 C 
BRANCH  37  40
HETATM   40  C   UNL     1       7.185  23.241  54.383  1.00  0.00    -0.034 A 
HETATM   41  C   UNL     1       7.555  22.624  53.180  1.00  0.00     0.009 A 
HETATM   42  C   UNL     1       8.077  21.328  53.177  1.00  0.00     0.001 A 
HETATM   43  C   UNL     1       8.245  20.638  54.377  1.00  0.00     0.000 A 
HETATM   44  C   UNL     1       7.889  21.240  55.580  1.00  0.00     0.001 A 
HETATM   45  C   UNL     1       7.364  22.533  55.584  1.00  0.00     0.009 A 
ENDBRANCH  37  40
ENDBRANCH  32  33
ENDBRANCH   2  32
TORSDOF 10
ENDMDL
MODEL 2
REMARK VINA RESULT:      -9.2      1.864      2.581
REMARK  10 active torsions:
REMARK  status: ('A' for Active; 'I' for Inactive)
REMARK    1  A    between atoms: C_6  and  N_7 
REMARK    2  A    between atoms: C_6  and  C_29 
REMARK       I    between atoms: N_7  and  C_8 
REMARK    3  A    between atoms: N_7  and  C_23 
REMARK    4  A    between atoms: C_8  and  C_9 
REMARK    5  A    between atoms: C_9  and  N_10 
REMARK    6  A    between atoms: C_14  and  C_15 
REMARK    7  A    between atoms: C_23  and  C_24 
REMARK       I    between atoms: C_29  and  N_30 
REMARK    8  A    between atoms: N_30  and  C_31 
REMARK    9  A    between atoms: C_32  and  O_33 
REMARK   10  A    between atoms: C_36  and  O_37 
ROOT
HETATM    1  N   UNL     1       6.708  29.452  56.974  1.00  0.00    -0.326 N 
HETATM    2  C   UNL     1       6.168  28.143  57.012  1.00  0.00     0.239 C 
HETATM    3  O   UNL     1       4.959  27.947  56.900  1.00  0.00    -0.271 OA
ENDROOT
BRANCH   1   4
HETATM    4  C   UNL     1       5.761  30.622  57.127  1.00  0.00     0.120 C 
HETATM    5  C   UNL     1       5.557  31.367  55.784  1.00  0.00     0.069 C 
HETATM    6  C   UNL     1       4.524  32.488  55.837  1.00  0.00     0.237 C 
HETATM    7  N   UNL     1       3.236  32.011  56.455  1.00  0.00    -0.075 N 
HETATM    8  C   UNL     1       2.225  33.130  56.514  1.00  0.00     0.269 C 
HETATM    9  H   UNL     1       2.842  31.291  55.830  1.00  0.00     0.279 HD
HETATM   10  C   UNL     1       3.422  31.382  57.808  1.00  0.00     0.237 C 
HETATM   11  C   UNL     1       4.370  30.196  57.685  1.00  0.00     0.069 C 
BRANCH   4  12
HETATM   12  C   UNL     1       6.354  31.589  58.212  1.00  0.00     0.251 C 
HETATM   13  N   UNL     1       6.750  30.938  59.359  1.00  0.00    -0.323 N 
HETATM   14  H   UNL     1       6.788  29.921  59.344  1.00  0.00     0.169 HD
HETATM   15  O   UNL     1       6.287  32.806  58.067  1.00  0.00    -0.270 OA
BRANCH  13  16
HETATM   16  C   UNL     1       7.098  31.489  60.612  1.00  0.00     0.068 A 
HETATM   17  C   UNL     1       6.047  32.046  61.373  1.00  0.00     0.097 A 
HETATM   18  C   UNL     1       6.315  32.638  62.614  1.00  0.00     0.075 A 
HETATM   19  C   UNL     1       7.624  32.678  63.099  1.00  0.00     0.070 A 
HETATM   20  C   UNL     1       8.657  32.129  62.339  1.00  0.00     0.039 A 
HETATM   21  C   UNL     1       8.400  31.533  61.103  1.00  0.00     0.035 A 
BRANCH  17  22
HETATM   22  O   UNL     1       4.802  31.978  60.785  1.00  0.00    -0.354 OA
HETATM   23  C   UNL     1       3.683  32.341  61.589  1.00  0.00     0.210 C 
ENDBRANCH  17  22
BRANCH  19  24
HETATM   24  O   UNL     1       8.027  33.231  64.282  1.00  0.00    -0.356 OA
HETATM   25  C   UNL     1       7.012  33.658  65.182  1.00  0.00     0.210 C 
ENDBRANCH  19  24
ENDBRANCH  13  16
ENDBRANCH   4  12
ENDBRANCH   1   4
BRANCH   1  26
HETATM   26  C   UNL     1       7.805  29.630  56.000  1.00  0.00     0.192 C 
BRANCH  26  27
HETATM   27  C   UNL     1       9.146  29.800  56.614  1.00  0.00     0.070 A 
HETATM   28  O   UNL     1       9.136  30.487  57.794  1.00  0.00    -0.325 OA
HETATM   29  C   UNL     1      10.417  30.564  58.233  1.00  0.00     0.142 A 
HETATM   30  C   UNL     1      11.262  29.941  57.346  1.00  0.00     0.027 A 
HETATM   31  C   UNL     1      10.444  29.449  56.299  1.00  0.00     0.036 A 
ENDBRANCH  26  27
ENDBRANCH   1  26
BRANCH   2  32
HETATM   32  C   UNL     1       7.181  27.010  57.300  1.00  0.00     0.228 C 
BRANCH  32  33
HETATM   33  N   UNL     1       7.183  25.935  56.319  1.00  0.00    -0.347 N 
HETATM   34  C   UNL     1       7.188  26.044  54.929  1.00  0.00     0.171 C 
HETATM   35  S   UNL     1       7.137  27.411  53.999  1.00  0.00    -0.041 SA
HETATM   36  N   UNL     1       7.222  24.757  54.401  1.00  0.00    -0.357 N 
HETATM   37  C   UNL     1       6.948  23.787  55.438  1.00  0.00     0.135 C 
HETATM   38  H   UNL     1       7.045  24.594  53.417  1.00  0.00     0.162 HD
HETATM   39  C   UNL     1       7.330  24.544  56.714  1.00  0.00     0.155 C 
BRANCH  37  40
HETATM   40  C   UNL     1       7.640  22.463  55.281  1.00  0.00    -0.034 A 
HETATM   41  C   UNL     1       8.101  21.730  56.384  1.00  0.00     0.009 A 
HETATM   42  C   UNL     1       8.700  20.480  56.206  1.00  0.00     0.001 A 
HETATM   43  C   UNL     1       8.837  19.945  54.926  1.00  0.00     0.000 A 
HETATM   44  C   UNL     1       8.378  20.659  53.822  1.00  0.00     0.001 A 
HETATM   45  C   UNL     1       7.782  21.908  53.999  1.00  0.00     0.009 A 
ENDBRANCH  37  40
ENDBRANCH  32  33
ENDBRANCH   2  32
TORSDOF 10
ENDMDL
MODEL 3
REMARK VINA RESULT:      -9.0      5.487      9.078
REMARK  10 active torsions:
REMARK  status: ('A' for Active; 'I' for Inactive)
REMARK    1  A    between atoms: C_6  and  N_7 
REMARK    2  A    between atoms: C_6  and  C_29 
REMARK       I    between atoms: N_7  and  C_8 
REMARK    3  A    between atoms: N_7  and  C_23 
REMARK    4  A    between atoms: C_8  and  C_9 
REMARK    5  A    between atoms: C_9  and  N_10 
REMARK    6  A    between atoms: C_14  and  C_15 
REMARK    7  A    between atoms: C_23  and  C_24 
REMARK       I    between atoms: C_29  and  N_30 
REMARK    8  A    between atoms: N_30  and  C_31 
REMARK    9  A    between atoms: C_32  and  O_33 
REMARK   10  A    between atoms: C_36  and  O_37 
ROOT
HETATM    1  N   UNL     1       4.775  28.221  52.675  1.00  0.00    -0.326 N 
HETATM    2  C   UNL     1       4.709  26.823  52.459  1.00  0.00     0.239 C 
HETATM    3  O   UNL     1       4.832  26.344  51.332  1.00  0.00    -0.271 OA
ENDROOT
BRANCH   1   4
HETATM    4  C   UNL     1       4.667  29.138  51.476  1.00  0.00     0.120 C 
HETATM    5  C   UNL     1       4.763  30.628  51.889  1.00  0.00     0.069 C 
HETATM    6  C   UNL     1       4.779  31.605  50.717  1.00  0.00     0.237 C 
HETATM    7  N   UNL     1       5.804  31.205  49.689  1.00  0.00    -0.075 N 
HETATM    8  C   UNL     1       5.803  32.170  48.529  1.00  0.00     0.269 C 
HETATM    9  H   UNL     1       6.732  31.279  50.133  1.00  0.00     0.279 HD
HETATM   10  C   UNL     1       5.644  29.788  49.209  1.00  0.00     0.237 C 
HETATM   11  C   UNL     1       5.752  28.841  50.397  1.00  0.00     0.069 C 
BRANCH   4  12
HETATM   12  C   UNL     1       3.298  28.848  50.764  1.00  0.00     0.251 C 
HETATM   13  N   UNL     1       3.445  28.254  49.530  1.00  0.00    -0.323 N 
HETATM   14  H   UNL     1       4.367  27.909  49.270  1.00  0.00     0.169 HD
HETATM   15  O   UNL     1       2.249  29.284  51.227  1.00  0.00    -0.270 OA
BRANCH  13  16
HETATM   16  C   UNL     1       2.478  28.069  48.518  1.00  0.00     0.068 A 
HETATM   17  C   UNL     1       2.407  26.784  47.935  1.00  0.00     0.097 A 
HETATM   18  C   UNL     1       1.494  26.528  46.905  1.00  0.00     0.075 A 
HETATM   19  C   UNL     1       0.651  27.545  46.452  1.00  0.00     0.070 A 
HETATM   20  C   UNL     1       0.730  28.813  47.030  1.00  0.00     0.039 A 
HETATM   21  C   UNL     1       1.634  29.078  48.060  1.00  0.00     0.035 A 
BRANCH  17  22
HETATM   22  O   UNL     1       3.305  25.867  48.440  1.00  0.00    -0.354 OA
HETATM   23  C   UNL     1       3.052  24.492  48.163  1.00  0.00     0.210 C 
ENDBRANCH  17  22
BRANCH  19  24
HETATM   24  O   UNL     1      -0.275  27.438  45.453  1.00  0.00    -0.356 OA
HETATM   25  C   UNL     1      -0.931  28.631  45.041  1.00  0.00     0.210 C 
ENDBRANCH  19  24
ENDBRANCH  13  16
ENDBRANCH   4  12
ENDBRANCH   1   4
BRANCH   1  26
HETATM   26  C   UNL     1       5.739  28.632  53.718  1.00  0.00     0.192 C 
BRANCH  26  27
HETATM   27  C   UNL     1       5.115  29.222  54.928  1.00  0.00     0.070 A 
HETATM   28  O   UNL     1       6.011  29.644  55.868  1.00  0.00    -0.325 OA
HETATM   29  C   UNL     1       5.305  30.155  56.907  1.00  0.00     0.142 A 
HETATM   30  C   UNL     1       3.957  30.062  56.657  1.00  0.00     0.027 A 
HETATM   31  C   UNL     1       3.832  29.458  55.381  1.00  0.00     0.036 A 
ENDBRANCH  26  27
ENDBRANCH   1  26
BRANCH   2  32
HETATM   32  C   UNL     1       4.377  25.969  53.704  1.00  0.00     0.228 C 
BRANCH  32  33
HETATM   33  N   UNL     1       5.501  25.216  54.240  1.00  0.00    -0.347 N 
HETATM   34  C   UNL     1       6.013  25.248  55.536  1.00  0.00     0.171 C 
HETATM   35  S   UNL     1       5.535  26.183  56.814  1.00  0.00    -0.041 SA
HETATM   36  N   UNL     1       7.067  24.341  55.601  1.00  0.00    -0.357 N 
HETATM   37  C   UNL     1       7.440  23.918  54.270  1.00  0.00     0.135 C 
HETATM   38  H   UNL     1       7.700  24.336  56.391  1.00  0.00     0.162 HD
HETATM   39  C   UNL     1       6.162  24.180  53.464  1.00  0.00     0.155 C 
BRANCH  37  40
HETATM   40  C   UNL     1       7.953  22.510  54.162  1.00  0.00    -0.034 A 
HETATM   41  C   UNL     1       7.939  21.804  52.950  1.00  0.00     0.009 A 
HETATM   42  C   UNL     1       8.466  20.513  52.874  1.00  0.00     0.001 A 
HETATM   43  C   UNL     1       9.020  19.915  54.005  1.00  0.00     0.000 A 
HETATM   44  C   UNL     1       9.046  20.605  55.214  1.00  0.00     0.001 A 
HETATM   45  C   UNL     1       8.518  21.895  55.291  1.00  0.00     0.009 A 
ENDBRANCH  37  40
ENDBRANCH  32  33
ENDBRANCH   2  32
TORSDOF 10
ENDMDL
MODEL 4
REMARK VINA RESULT:      -8.9      2.734      9.712
REMARK  10 active torsions:
REMARK  status: ('A' for Active; 'I' for Inactive)
REMARK    1  A    between atoms: C_6  and  N_7 
REMARK    2  A    between atoms: C_6  and  C_29 
REMARK       I    between atoms: N_7  and  C_8 
REMARK    3  A    between atoms: N_7  and  C_23 
REMARK    4  A    between atoms: C_8  and  C_9 
REMARK    5  A    between atoms: C_9  and  N_10 
REMARK    6  A    between atoms: C_14  and  C_15 
REMARK    7  A    between atoms: C_23  and  C_24 
REMARK       I    between atoms: C_29  and  N_30 
REMARK    8  A    between atoms: N_30  and  C_31 
REMARK    9  A    between atoms: C_32  and  O_33 
REMARK   10  A    between atoms: C_36  and  O_37 
ROOT
HETATM    1  N   UNL     1       6.698  30.041  57.578  1.00  0.00    -0.326 N 
HETATM    2  C   UNL     1       5.918  30.929  58.359  1.00  0.00     0.239 C 
HETATM    3  O   UNL     1       4.690  30.849  58.380  1.00  0.00    -0.271 OA
ENDROOT
BRANCH   1   4
HETATM    4  C   UNL     1       6.000  29.214  56.521  1.00  0.00     0.120 C 
HETATM    5  C   UNL     1       4.503  29.595  56.397  1.00  0.00     0.069 C 
HETATM    6  C   UNL     1       3.764  28.881  55.269  1.00  0.00     0.237 C 
HETATM    7  N   UNL     1       4.517  28.994  53.969  1.00  0.00    -0.075 N 
HETATM    8  C   UNL     1       3.785  28.275  52.863  1.00  0.00     0.269 C 
HETATM    9  H   UNL     1       4.536  29.992  53.709  1.00  0.00     0.279 HD
HETATM   10  C   UNL     1       5.943  28.524  54.064  1.00  0.00     0.237 C 
HETATM   11  C   UNL     1       6.672  29.343  55.121  1.00  0.00     0.069 C 
BRANCH   4  12
HETATM   12  C   UNL     1       6.156  27.700  56.906  1.00  0.00     0.251 C 
HETATM   13  N   UNL     1       7.324  27.140  56.439  1.00  0.00    -0.323 N 
HETATM   14  H   UNL     1       8.034  27.761  56.055  1.00  0.00     0.169 HD
HETATM   15  O   UNL     1       5.225  27.088  57.421  1.00  0.00    -0.270 OA
BRANCH  13  16
HETATM   16  C   UNL     1       7.690  25.777  56.383  1.00  0.00     0.068 A 
HETATM   17  C   UNL     1       7.184  25.029  55.297  1.00  0.00     0.097 A 
HETATM   18  C   UNL     1       7.477  23.664  55.187  1.00  0.00     0.075 A 
HETATM   19  C   UNL     1       8.271  23.041  56.151  1.00  0.00     0.070 A 
HETATM   20  C   UNL     1       8.763  23.786  57.224  1.00  0.00     0.039 A 
HETATM   21  C   UNL     1       8.480  25.148  57.341  1.00  0.00     0.035 A 
BRANCH  17  22
HETATM   22  O   UNL     1       6.389  25.739  54.422  1.00  0.00    -0.354 OA
HETATM   23  C   UNL     1       5.363  25.016  53.746  1.00  0.00     0.210 C 
ENDBRANCH  17  22
BRANCH  19  24
HETATM   24  O   UNL     1       8.624  21.721  56.173  1.00  0.00    -0.356 OA
HETATM   25  C   UNL     1       7.622  20.772  55.829  1.00  0.00     0.210 C 
ENDBRANCH  19  24
ENDBRANCH  13  16
ENDBRANCH   4  12
ENDBRANCH   1   4
BRANCH   1  26
HETATM   26  C   UNL     1       7.776  29.360  58.325  1.00  0.00     0.192 C 
BRANCH  26  27
HETATM   27  C   UNL     1       9.147  29.717  57.883  1.00  0.00     0.070 A 
HETATM   28  O   UNL     1       9.715  28.807  57.038  1.00  0.00    -0.325 OA
HETATM   29  C   UNL     1      10.953  29.260  56.721  1.00  0.00     0.142 A 
HETATM   30  C   UNL     1      11.200  30.452  57.357  1.00  0.00     0.027 A 
HETATM   31  C   UNL     1      10.036  30.748  58.110  1.00  0.00     0.036 A 
ENDBRANCH  26  27
ENDBRANCH   1  26
BRANCH   2  32
HETATM   32  C   UNL     1       6.701  32.045  59.086  1.00  0.00     0.228 C 
BRANCH  32  33
HETATM   33  N   UNL     1       6.457  32.122  60.519  1.00  0.00    -0.347 N 
HETATM   34  C   UNL     1       7.281  31.680  61.553  1.00  0.00     0.171 C 
HETATM   35  S   UNL     1       8.734  30.896  61.454  1.00  0.00    -0.041 SA
HETATM   36  N   UNL     1       6.657  31.990  62.758  1.00  0.00    -0.357 N 
HETATM   37  C   UNL     1       5.285  32.380  62.520  1.00  0.00     0.135 C 
HETATM   38  H   UNL     1       6.987  31.597  63.630  1.00  0.00     0.162 HD
HETATM   39  C   UNL     1       5.316  32.842  61.059  1.00  0.00     0.155 C 
BRANCH  37  40
HETATM   40  C   UNL     1       4.731  33.401  63.473  1.00  0.00    -0.034 A 
HETATM   41  C   UNL     1       5.031  33.381  64.842  1.00  0.00     0.009 A 
HETATM   42  C   UNL     1       4.535  34.372  65.693  1.00  0.00     0.001 A 
HETATM   43  C   UNL     1       3.742  35.398  65.184  1.00  0.00     0.000 A 
HETATM   44  C   UNL     1       3.440  35.435  63.826  1.00  0.00     0.001 A 
HETATM   45  C   UNL     1       3.932  34.444  62.976  1.00  0.00     0.009 A 
ENDBRANCH  37  40
ENDBRANCH  32  33
ENDBRANCH   2  32
TORSDOF 10
ENDMDL
MODEL 5
REMARK VINA RESULT:      -8.9      5.554     10.661
REMARK  10 active torsions:
REMARK  status: ('A' for Active; 'I' for Inactive)
REMARK    1  A    between atoms: C_6  and  N_7 
REMARK    2  A    between atoms: C_6  and  C_29 
REMARK       I    between atoms: N_7  and  C_8 
REMARK    3  A    between atoms: N_7  and  C_23 
REMARK    4  A    between atoms: C_8  and  C_9 
REMARK    5  A    between atoms: C_9  and  N_10 
REMARK    6  A    between atoms: C_14  and  C_15 
REMARK    7  A    between atoms: C_23  and  C_24 
REMARK       I    between atoms: C_29  and  N_30 
REMARK    8  A    between atoms: N_30  and  C_31 
REMARK    9  A    between atoms: C_32  and  O_33 
REMARK   10  A    between atoms: C_36  and  O_37 
ROOT
HETATM    1  N   UNL     1       4.721  28.102  51.888  1.00  0.00    -0.326 N 
HETATM    2  C   UNL     1       4.096  29.345  51.627  1.00  0.00     0.239 C 
HETATM    3  O   UNL     1       4.167  30.277  52.429  1.00  0.00    -0.271 OA
ENDROOT
BRANCH   1   4
HETATM    4  C   UNL     1       5.194  27.818  53.297  1.00  0.00     0.120 C 
HETATM    5  C   UNL     1       6.578  28.459  53.572  1.00  0.00     0.069 C 
HETATM    6  C   UNL     1       7.064  28.312  55.011  1.00  0.00     0.237 C 
HETATM    7  N   UNL     1       6.004  28.743  55.989  1.00  0.00    -0.075 N 
HETATM    8  C   UNL     1       6.489  28.582  57.409  1.00  0.00     0.269 C 
HETATM    9  H   UNL     1       5.842  29.751  55.846  1.00  0.00     0.279 HD
HETATM   10  C   UNL     1       4.688  28.042  55.788  1.00  0.00     0.237 C 
HETATM   11  C   UNL     1       4.185  28.312  54.377  1.00  0.00     0.069 C 
BRANCH   4  12
HETATM   12  C   UNL     1       5.257  26.261  53.485  1.00  0.00     0.251 C 
HETATM   13  N   UNL     1       6.500  25.813  53.875  1.00  0.00    -0.323 N 
HETATM   14  H   UNL     1       7.189  26.504  54.165  1.00  0.00     0.169 HD
HETATM   15  O   UNL     1       4.318  25.551  53.138  1.00  0.00    -0.270 OA
BRANCH  13  16
HETATM   16  C   UNL     1       6.992  24.490  53.908  1.00  0.00     0.068 A 
HETATM   17  C   UNL     1       7.037  23.862  55.172  1.00  0.00     0.097 A 
HETATM   18  C   UNL     1       7.539  22.560  55.293  1.00  0.00     0.075 A 
HETATM   19  C   UNL     1       7.996  21.882  54.162  1.00  0.00     0.070 A 
HETATM   20  C   UNL     1       7.953  22.511  52.917  1.00  0.00     0.039 A 
HETATM   21  C   UNL     1       7.450  23.806  52.785  1.00  0.00     0.035 A 
BRANCH  17  22
HETATM   22  O   UNL     1       6.588  24.635  56.222  1.00  0.00    -0.354 OA
HETATM   23  C   UNL     1       7.552  25.034  57.193  1.00  0.00     0.210 C 
ENDBRANCH  17  22
BRANCH  19  24
HETATM   24  O   UNL     1       8.518  20.619  54.137  1.00  0.00    -0.356 OA
HETATM   25  C   UNL     1       8.705  19.965  55.387  1.00  0.00     0.210 C 
ENDBRANCH  19  24
ENDBRANCH  13  16
ENDBRANCH   4  12
ENDBRANCH   1   4
BRANCH   1  26
HETATM   26  C   UNL     1       5.602  27.623  50.802  1.00  0.00     0.192 C 
BRANCH  26  27
HETATM   27  C   UNL     1       4.896  26.897  49.717  1.00  0.00     0.070 A 
HETATM   28  O   UNL     1       5.120  27.404  48.469  1.00  0.00    -0.325 OA
HETATM   29  C   UNL     1       4.418  26.648  47.588  1.00  0.00     0.142 A 
HETATM   30  C   UNL     1       3.732  25.659  48.252  1.00  0.00     0.027 A 
HETATM   31  C   UNL     1       4.037  25.819  49.626  1.00  0.00     0.036 A 
ENDBRANCH  26  27
ENDBRANCH   1  26
BRANCH   2  32
HETATM   32  C   UNL     1       3.250  29.411  50.335  1.00  0.00     0.228 C 
BRANCH  32  33
HETATM   33  N   UNL     1       3.490  30.588  49.512  1.00  0.00    -0.347 N 
HETATM   34  C   UNL     1       2.751  31.769  49.471  1.00  0.00     0.171 C 
HETATM   35  S   UNL     1       1.367  32.152  50.292  1.00  0.00    -0.041 SA
HETATM   36  N   UNL     1       3.368  32.627  48.565  1.00  0.00    -0.357 N 
HETATM   37  C   UNL     1       4.354  31.906  47.791  1.00  0.00     0.135 C 
HETATM   38  H   UNL     1       2.900  33.464  48.241  1.00  0.00     0.162 HD
HETATM   39  C   UNL     1       4.687  30.716  48.698  1.00  0.00     0.155 C 
BRANCH  37  40
HETATM   40  C   UNL     1       5.552  32.707  47.367  1.00  0.00    -0.034 A 
HETATM   41  C   UNL     1       6.489  33.190  48.292  1.00  0.00     0.009 A 
HETATM   42  C   UNL     1       7.616  33.893  47.860  1.00  0.00     0.001 A 
HETATM   43  C   UNL     1       7.825  34.113  46.499  1.00  0.00     0.000 A 
HETATM   44  C   UNL     1       6.907  33.634  45.569  1.00  0.00     0.001 A 
HETATM   45  C   UNL     1       5.779  32.934  46.000  1.00  0.00     0.009 A 
ENDBRANCH  37  40
ENDBRANCH  32  33
ENDBRANCH   2  32
TORSDOF 10
ENDMDL
MODEL 6
REMARK VINA RESULT:      -8.8      6.468      9.734
REMARK  10 active torsions:
REMARK  status: ('A' for Active; 'I' for Inactive)
REMARK    1  A    between atoms: C_6  and  N_7 
REMARK    2  A    between atoms: C_6  and  C_29 
REMARK       I    between atoms: N_7  and  C_8 
REMARK    3  A    between atoms: N_7  and  C_23 
REMARK    4  A    between atoms: C_8  and  C_9 
REMARK    5  A    between atoms: C_9  and  N_10 
REMARK    6  A    between atoms: C_14  and  C_15 
REMARK    7  A    between atoms: C_23  and  C_24 
REMARK       I    between atoms: C_29  and  N_30 
REMARK    8  A    between atoms: N_30  and  C_31 
REMARK    9  A    between atoms: C_32  and  O_33 
REMARK   10  A    between atoms: C_36  and  O_37 
ROOT
HETATM    1  N   UNL     1       4.062  28.095  50.634  1.00  0.00    -0.326 N 
HETATM    2  C   UNL     1       4.637  26.883  51.087  1.00  0.00     0.239 C 
HETATM    3  O   UNL     1       4.852  25.950  50.313  1.00  0.00    -0.271 OA
ENDROOT
BRANCH   1   4
HETATM    4  C   UNL     1       3.413  28.114  49.268  1.00  0.00     0.120 C 
HETATM    5  C   UNL     1       3.140  26.680  48.748  1.00  0.00     0.069 C 
HETATM    6  C   UNL     1       2.380  26.625  47.425  1.00  0.00     0.237 C 
HETATM    7  N   UNL     1       1.146  27.486  47.471  1.00  0.00    -0.075 N 
HETATM    8  C   UNL     1       0.408  27.434  46.156  1.00  0.00     0.269 C 
HETATM    9  H   UNL     1       0.514  27.082  48.180  1.00  0.00     0.279 HD
HETATM   10  C   UNL     1       1.427  28.908  47.875  1.00  0.00     0.237 C 
HETATM   11  C   UNL     1       2.079  28.920  49.251  1.00  0.00     0.069 C 
BRANCH   4  12
HETATM   12  C   UNL     1       4.365  28.887  48.288  1.00  0.00     0.251 C 
HETATM   13  N   UNL     1       4.027  30.214  48.139  1.00  0.00    -0.323 N 
HETATM   14  H   UNL     1       3.338  30.607  48.775  1.00  0.00     0.169 HD
HETATM   15  O   UNL     1       5.197  28.282  47.619  1.00  0.00    -0.270 OA
BRANCH  13  16
HETATM   16  C   UNL     1       4.493  31.142  47.181  1.00  0.00     0.068 A 
HETATM   17  C   UNL     1       5.362  32.153  47.648  1.00  0.00     0.097 A 
HETATM   18  C   UNL     1       5.843  33.128  46.766  1.00  0.00     0.075 A 
HETATM   19  C   UNL     1       5.463  33.101  45.422  1.00  0.00     0.070 A 
HETATM   20  C   UNL     1       4.600  32.102  44.970  1.00  0.00     0.039 A 
HETATM   21  C   UNL     1       4.118  31.123  45.840  1.00  0.00     0.035 A 
BRANCH  17  22
HETATM   22  O   UNL     1       5.646  32.099  48.996  1.00  0.00    -0.354 OA
HETATM   23  C   UNL     1       5.910  33.336  49.653  1.00  0.00     0.210 C 
ENDBRANCH  17  22
BRANCH  19  24
HETATM   24  O   UNL     1       5.847  33.992  44.460  1.00  0.00    -0.356 OA
HETATM   25  C   UNL     1       6.988  34.796  44.733  1.00  0.00     0.210 C 
ENDBRANCH  19  24
ENDBRANCH  13  16
ENDBRANCH   4  12
ENDBRANCH   1   4
BRANCH   1  26
HETATM   26  C   UNL     1       4.824  29.307  51.005  1.00  0.00     0.192 C 
BRANCH  26  27
HETATM   27  C   UNL     1       4.094  30.237  51.903  1.00  0.00     0.070 A 
HETATM   28  O   UNL     1       3.452  31.252  51.252  1.00  0.00    -0.325 OA
HETATM   29  C   UNL     1       2.836  32.014  52.190  1.00  0.00     0.142 A 
HETATM   30  C   UNL     1       3.078  31.510  53.445  1.00  0.00     0.027 A 
HETATM   31  C   UNL     1       3.892  30.364  53.263  1.00  0.00     0.036 A 
ENDBRANCH  26  27
ENDBRANCH   1  26
BRANCH   2  32
HETATM   32  C   UNL     1       4.877  26.784  52.611  1.00  0.00     0.228 C 
BRANCH  32  33
HETATM   33  N   UNL     1       6.030  25.983  52.993  1.00  0.00    -0.347 N 
HETATM   34  C   UNL     1       7.215  26.415  53.586  1.00  0.00     0.171 C 
HETATM   35  S   UNL     1       7.676  27.957  53.972  1.00  0.00    -0.041 SA
HETATM   36  N   UNL     1       8.018  25.299  53.799  1.00  0.00    -0.357 N 
HETATM   37  C   UNL     1       7.485  24.160  53.085  1.00  0.00     0.135 C 
HETATM   38  H   UNL     1       8.994  25.401  54.047  1.00  0.00     0.162 HD
HETATM   39  C   UNL     1       6.007  24.531  52.918  1.00  0.00     0.155 C 
BRANCH  37  40
HETATM   40  C   UNL     1       7.711  22.826  53.737  1.00  0.00    -0.034 A 
HETATM   41  C   UNL     1       7.611  22.651  55.125  1.00  0.00     0.009 A 
HETATM   42  C   UNL     1       7.783  21.387  55.695  1.00  0.00     0.001 A 
HETATM   43  C   UNL     1       8.047  20.283  54.886  1.00  0.00     0.000 A 
HETATM   44  C   UNL     1       8.143  20.441  53.506  1.00  0.00     0.001 A 
HETATM   45  C   UNL     1       7.974  21.704  52.936  1.00  0.00     0.009 A 
ENDBRANCH  37  40
ENDBRANCH  32  33
ENDBRANCH   2  32
TORSDOF 10
ENDMDL
MODEL 7
REMARK VINA RESULT:      -8.7      5.009      7.326
REMARK  10 active torsions:
REMARK  status: ('A' for Active; 'I' for Inactive)
REMARK    1  A    between atoms: C_6  and  N_7 
REMARK    2  A    between atoms: C_6  and  C_29 
REMARK       I    between atoms: N_7  and  C_8 
REMARK    3  A    between atoms: N_7  and  C_23 
REMARK    4  A    between atoms: C_8  and  C_9 
REMARK    5  A    between atoms: C_9  and  N_10 
REMARK    6  A    between atoms: C_14  and  C_15 
REMARK    7  A    between atoms: C_23  and  C_24 
REMARK       I    between atoms: C_29  and  N_30 
REMARK    8  A    between atoms: N_30  and  C_31 
REMARK    9  A    between atoms: C_32  and  O_33 
REMARK   10  A    between atoms: C_36  and  O_37 
ROOT
HETATM    1  N   UNL     1       4.385  29.202  49.893  1.00  0.00    -0.326 N 
HETATM    2  C   UNL     1       5.350  28.592  50.731  1.00  0.00     0.239 C 
HETATM    3  O   UNL     1       6.112  29.265  51.423  1.00  0.00    -0.271 OA
ENDROOT
BRANCH   1   4
HETATM    4  C   UNL     1       4.519  30.681  49.605  1.00  0.00     0.120 C 
HETATM    5  C   UNL     1       6.005  31.119  49.555  1.00  0.00     0.069 C 
HETATM    6  C   UNL     1       6.218  32.575  49.154  1.00  0.00     0.237 C 
HETATM    7  N   UNL     1       5.457  32.911  47.899  1.00  0.00    -0.075 N 
HETATM    8  C   UNL     1       5.665  34.355  47.517  1.00  0.00     0.269 C 
HETATM    9  H   UNL     1       5.856  32.344  47.134  1.00  0.00     0.279 HD
HETATM   10  C   UNL     1       3.991  32.583  47.986  1.00  0.00     0.237 C 
HETATM   11  C   UNL     1       3.825  31.096  48.273  1.00  0.00     0.069 C 
BRANCH   4  12
HETATM   12  C   UNL     1       3.748  31.467  50.724  1.00  0.00     0.251 C 
HETATM   13  N   UNL     1       4.445  31.542  51.910  1.00  0.00    -0.323 N 
HETATM   14  H   UNL     1       5.421  31.254  51.912  1.00  0.00     0.169 HD
HETATM   15  O   UNL     1       2.580  31.805  50.559  1.00  0.00    -0.270 OA
BRANCH  13  16
HETATM   16  C   UNL     1       3.984  31.950  53.181  1.00  0.00     0.068 A 
HETATM   17  C   UNL     1       4.443  33.199  53.652  1.00  0.00     0.097 A 
HETATM   18  C   UNL     1       4.055  33.661  54.915  1.00  0.00     0.075 A 
HETATM   19  C   UNL     1       3.211  32.884  55.712  1.00  0.00     0.070 A 
HETATM   20  C   UNL     1       2.765  31.648  55.242  1.00  0.00     0.039 A 
HETATM   21  C   UNL     1       3.143  31.181  53.982  1.00  0.00     0.035 A 
BRANCH  17  22
HETATM   22  O   UNL     1       5.293  33.866  52.795  1.00  0.00    -0.354 OA
HETATM   23  C   UNL     1       6.081  34.916  53.351  1.00  0.00     0.210 C 
ENDBRANCH  17  22
BRANCH  19  24
HETATM   24  O   UNL     1       2.765  33.206  56.963  1.00  0.00    -0.356 OA
HETATM   25  C   UNL     1       3.647  33.942  57.802  1.00  0.00     0.210 C 
ENDBRANCH  19  24
ENDBRANCH  13  16
ENDBRANCH   4  12
ENDBRANCH   1   4
BRANCH   1  26
HETATM   26  C   UNL     1       3.007  28.704  50.086  1.00  0.00     0.192 C 
BRANCH  26  27
HETATM   27  C   UNL     1       2.443  27.994  48.911  1.00  0.00     0.070 A 
HETATM   28  O   UNL     1       3.384  27.479  48.066  1.00  0.00    -0.325 OA
HETATM   29  C   UNL     1       2.728  26.866  47.049  1.00  0.00     0.142 A 
HETATM   30  C   UNL     1       1.370  26.984  47.219  1.00  0.00     0.027 A 
HETATM   31  C   UNL     1       1.183  27.714  48.419  1.00  0.00     0.036 A 
ENDBRANCH  26  27
ENDBRANCH   1  26
BRANCH   2  32
HETATM   32  C   UNL     1       5.438  27.051  50.636  1.00  0.00     0.228 C 
BRANCH  32  33
HETATM   33  N   UNL     1       5.790  26.387  51.883  1.00  0.00    -0.347 N 
HETATM   34  C   UNL     1       5.204  26.553  53.137  1.00  0.00     0.171 C 
HETATM   35  S   UNL     1       3.990  27.585  53.583  1.00  0.00    -0.041 SA
HETATM   36  N   UNL     1       5.842  25.690  54.023  1.00  0.00    -0.357 N 
HETATM   37  C   UNL     1       7.044  25.159  53.421  1.00  0.00     0.135 C 
HETATM   38  H   UNL     1       5.704  25.778  55.022  1.00  0.00     0.162 HD
HETATM   39  C   UNL     1       6.761  25.306  51.922  1.00  0.00     0.155 C 
BRANCH  37  40
HETATM   40  C   UNL     1       7.413  23.764  53.840  1.00  0.00    -0.034 A 
HETATM   41  C   UNL     1       7.367  23.354  55.180  1.00  0.00     0.009 A 
HETATM   42  C   UNL     1       7.673  22.037  55.530  1.00  0.00     0.001 A 
HETATM   43  C   UNL     1       8.020  21.113  54.545  1.00  0.00     0.000 A 
HETATM   44  C   UNL     1       8.063  21.504  53.210  1.00  0.00     0.001 A 
HETATM   45  C   UNL     1       7.760  22.820  52.860  1.00  0.00     0.009 A 
ENDBRANCH  37  40
ENDBRANCH  32  33
ENDBRANCH   2  32
TORSDOF 10
ENDMDL
MODEL 8
REMARK VINA RESULT:      -8.5      1.401      2.228
REMARK  10 active torsions:
REMARK  status: ('A' for Active; 'I' for Inactive)
REMARK    1  A    between atoms: C_6  and  N_7 
REMARK    2  A    between atoms: C_6  and  C_29 
REMARK       I    between atoms: N_7  and  C_8 
REMARK    3  A    between atoms: N_7  and  C_23 
REMARK    4  A    between atoms: C_8  and  C_9 
REMARK    5  A    between atoms: C_9  and  N_10 
REMARK    6  A    between atoms: C_14  and  C_15 
REMARK    7  A    between atoms: C_23  and  C_24 
REMARK       I    between atoms: C_29  and  N_30 
REMARK    8  A    between atoms: N_30  and  C_31 
REMARK    9  A    between atoms: C_32  and  O_33 
REMARK   10  A    between atoms: C_36  and  O_37 
ROOT
HETATM    1  N   UNL     1       5.986  29.493  56.484  1.00  0.00    -0.326 N 
HETATM    2  C   UNL     1       5.514  28.161  56.392  1.00  0.00     0.239 C 
HETATM    3  O   UNL     1       4.346  27.917  56.091  1.00  0.00    -0.271 OA
ENDROOT
BRANCH   1   4
HETATM    4  C   UNL     1       4.970  30.612  56.534  1.00  0.00     0.120 C 
HETATM    5  C   UNL     1       5.513  31.904  55.872  1.00  0.00     0.069 C 
HETATM    6  C   UNL     1       4.498  33.040  55.783  1.00  0.00     0.237 C 
HETATM    7  N   UNL     1       3.201  32.563  55.183  1.00  0.00    -0.075 N 
HETATM    8  C   UNL     1       2.200  33.690  55.109  1.00  0.00     0.269 C 
HETATM    9  H   UNL     1       3.396  32.280  54.210  1.00  0.00     0.279 HD
HETATM   10  C   UNL     1       2.619  31.371  55.893  1.00  0.00     0.237 C 
HETATM   11  C   UNL     1       3.621  30.225  55.856  1.00  0.00     0.069 C 
BRANCH   4  12
HETATM   12  C   UNL     1       4.606  30.873  58.038  1.00  0.00     0.251 C 
HETATM   13  N   UNL     1       5.361  31.871  58.613  1.00  0.00    -0.323 N 
HETATM   14  H   UNL     1       5.937  32.447  58.003  1.00  0.00     0.169 HD
HETATM   15  O   UNL     1       3.844  30.119  58.636  1.00  0.00    -0.270 OA
BRANCH  13  16
HETATM   16  C   UNL     1       5.483  32.212  59.978  1.00  0.00     0.068 A 
HETATM   17  C   UNL     1       6.786  32.478  60.452  1.00  0.00     0.097 A 
HETATM   18  C   UNL     1       6.993  32.795  61.800  1.00  0.00     0.075 A 
HETATM   19  C   UNL     1       5.909  32.848  62.678  1.00  0.00     0.070 A 
HETATM   20  C   UNL     1       4.625  32.580  62.203  1.00  0.00     0.039 A 
HETATM   21  C   UNL     1       4.407  32.267  60.861  1.00  0.00     0.035 A 
BRANCH  17  22
HETATM   22  O   UNL     1       7.782  32.369  59.505  1.00  0.00    -0.354 OA
HETATM   23  C   UNL     1       9.127  32.361  59.976  1.00  0.00     0.210 C 
ENDBRANCH  17  22
BRANCH  19  24
HETATM   24  O   UNL     1       5.968  33.132  64.013  1.00  0.00    -0.356 OA
HETATM   25  C   UNL     1       7.260  33.275  64.593  1.00  0.00     0.210 C 
ENDBRANCH  19  24
ENDBRANCH  13  16
ENDBRANCH   4  12
ENDBRANCH   1   4
BRANCH   1  26
HETATM   26  C   UNL     1       7.207  29.763  55.694  1.00  0.00     0.192 C 
BRANCH  26  27
HETATM   27  C   UNL     1       8.464  29.727  56.481  1.00  0.00     0.070 A 
HETATM   28  O   UNL     1       9.599  29.771  55.722  1.00  0.00    -0.325 OA
HETATM   29  C   UNL     1      10.659  29.731  56.567  1.00  0.00     0.142 A 
HETATM   30  C   UNL     1      10.226  29.652  57.868  1.00  0.00     0.027 A 
HETATM   31  C   UNL     1       8.810  29.647  57.816  1.00  0.00     0.036 A 
ENDBRANCH  26  27
ENDBRANCH   1  26
BRANCH   2  32
HETATM   32  C   UNL     1       6.528  27.063  56.789  1.00  0.00     0.228 C 
BRANCH  32  33
HETATM   33  N   UNL     1       6.736  26.037  55.777  1.00  0.00    -0.347 N 
HETATM   34  C   UNL     1       7.058  26.212  54.433  1.00  0.00     0.171 C 
HETATM   35  S   UNL     1       7.240  27.623  53.588  1.00  0.00    -0.041 SA
HETATM   36  N   UNL     1       7.191  24.952  53.859  1.00  0.00    -0.357 N 
HETATM   37  C   UNL     1       6.675  23.941  54.754  1.00  0.00     0.135 C 
HETATM   38  H   UNL     1       7.240  24.842  52.853  1.00  0.00     0.162 HD
HETATM   39  C   UNL     1       6.769  24.625  56.122  1.00  0.00     0.155 C 
BRANCH  37  40
HETATM   40  C   UNL     1       7.364  22.608  54.688  1.00  0.00    -0.034 A 
HETATM   41  C   UNL     1       7.765  22.038  53.471  1.00  0.00     0.009 A 
HETATM   42  C   UNL     1       8.444  20.817  53.449  1.00  0.00     0.001 A 
HETATM   43  C   UNL     1       8.739  20.157  54.641  1.00  0.00     0.000 A 
HETATM   44  C   UNL     1       8.352  20.714  55.857  1.00  0.00     0.001 A 
HETATM   45  C   UNL     1       7.671  21.932  55.880  1.00  0.00     0.009 A 
ENDBRANCH  37  40
ENDBRANCH  32  33
ENDBRANCH   2  32
TORSDOF 10
ENDMDL
MODEL 9
REMARK VINA RESULT:      -8.4      5.318     10.230
REMARK  10 active torsions:
REMARK  status: ('A' for Active; 'I' for Inactive)
REMARK    1  A    between atoms: C_6  and  N_7 
REMARK    2  A    between atoms: C_6  and  C_29 
REMARK       I    between atoms: N_7  and  C_8 
REMARK    3  A    between atoms: N_7  and  C_23 
REMARK    4  A    between atoms: C_8  and  C_9 
REMARK    5  A    between atoms: C_9  and  N_10 
REMARK    6  A    between atoms: C_14  and  C_15 
REMARK    7  A    between atoms: C_23  and  C_24 
REMARK       I    between atoms: C_29  and  N_30 
REMARK    8  A    between atoms: N_30  and  C_31 
REMARK    9  A    between atoms: C_32  and  O_33 
REMARK   10  A    between atoms: C_36  and  O_37 
ROOT
HETATM    1  N   UNL     1       4.792  28.076  52.907  1.00  0.00    -0.326 N 
HETATM    2  C   UNL     1       4.430  28.511  54.205  1.00  0.00     0.239 C 
HETATM    3  O   UNL     1       3.766  29.533  54.375  1.00  0.00    -0.271 OA
ENDROOT
BRANCH   1   4
HETATM    4  C   UNL     1       4.642  29.048  51.758  1.00  0.00     0.120 C 
HETATM    5  C   UNL     1       4.660  30.518  52.250  1.00  0.00     0.069 C 
HETATM    6  C   UNL     1       4.630  31.556  51.132  1.00  0.00     0.237 C 
HETATM    7  N   UNL     1       5.677  31.264  50.090  1.00  0.00    -0.075 N 
HETATM    8  C   UNL     1       5.631  32.288  48.984  1.00  0.00     0.269 C 
HETATM    9  H   UNL     1       6.599  31.361  50.543  1.00  0.00     0.279 HD
HETATM   10  C   UNL     1       5.592  29.868  49.535  1.00  0.00     0.237 C 
HETATM   11  C   UNL     1       5.744  28.865  50.672  1.00  0.00     0.069 C 
BRANCH   4  12
HETATM   12  C   UNL     1       3.292  28.728  51.023  1.00  0.00     0.251 C 
HETATM   13  N   UNL     1       3.473  28.246  49.745  1.00  0.00    -0.323 N 
HETATM   14  H   UNL     1       4.414  27.984  49.460  1.00  0.00     0.169 HD
HETATM   15  O   UNL     1       2.218  29.055  51.518  1.00  0.00    -0.270 OA
BRANCH  13  16
HETATM   16  C   UNL     1       2.515  28.080  48.720  1.00  0.00     0.068 A 
HETATM   17  C   UNL     1       2.441  26.802  48.124  1.00  0.00     0.097 A 
HETATM   18  C   UNL     1       1.537  26.565  47.081  1.00  0.00     0.075 A 
HETATM   19  C   UNL     1       0.708  27.594  46.629  1.00  0.00     0.070 A 
HETATM   20  C   UNL     1       0.791  28.855  47.220  1.00  0.00     0.039 A 
HETATM   21  C   UNL     1       1.685  29.101  48.264  1.00  0.00     0.035 A 
BRANCH  17  22
HETATM   22  O   UNL     1       3.325  25.872  48.628  1.00  0.00    -0.354 OA
HETATM   23  C   UNL     1       3.166  24.524  48.194  1.00  0.00     0.210 C 
ENDBRANCH  17  22
BRANCH  19  24
HETATM   24  O   UNL     1      -0.207  27.505  45.617  1.00  0.00    -0.356 OA
HETATM   25  C   UNL     1      -0.809  28.715  45.174  1.00  0.00     0.210 C 
ENDBRANCH  19  24
ENDBRANCH  13  16
ENDBRANCH   4  12
ENDBRANCH   1   4
BRANCH   1  26
HETATM   26  C   UNL     1       4.440  26.670  52.615  1.00  0.00     0.192 C 
BRANCH  26  27
HETATM   27  C   UNL     1       5.598  25.743  52.592  1.00  0.00     0.070 A 
HETATM   28  O   UNL     1       5.623  24.856  53.631  1.00  0.00    -0.325 OA
HETATM   29  C   UNL     1       6.726  24.081  53.481  1.00  0.00     0.142 A 
HETATM   30  C   UNL     1       7.423  24.459  52.359  1.00  0.00     0.027 A 
HETATM   31  C   UNL     1       6.699  25.533  51.785  1.00  0.00     0.036 A 
ENDBRANCH  26  27
ENDBRANCH   1  26
BRANCH   2  32
HETATM   32  C   UNL     1       5.004  27.678  55.374  1.00  0.00     0.228 C 
BRANCH  32  33
HETATM   33  N   UNL     1       6.124  28.298  56.067  1.00  0.00    -0.347 N 
HETATM   34  C   UNL     1       7.416  28.509  55.589  1.00  0.00     0.171 C 
HETATM   35  S   UNL     1       8.065  28.070  54.132  1.00  0.00    -0.041 SA
HETATM   36  N   UNL     1       8.137  29.162  56.584  1.00  0.00    -0.357 N 
HETATM   37  C   UNL     1       7.407  29.128  57.831  1.00  0.00     0.135 C 
HETATM   38  H   UNL     1       9.144  29.248  56.524  1.00  0.00     0.162 HD
HETATM   39  C   UNL     1       5.960  28.929  57.366  1.00  0.00     0.155 C 
BRANCH  37  40
HETATM   40  C   UNL     1       7.603  30.318  58.727  1.00  0.00    -0.034 A 
HETATM   41  C   UNL     1       6.614  31.298  58.889  1.00  0.00     0.009 A 
HETATM   42  C   UNL     1       6.812  32.368  59.765  1.00  0.00     0.001 A 
HETATM   43  C   UNL     1       7.995  32.467  60.495  1.00  0.00     0.000 A 
HETATM   44  C   UNL     1       8.984  31.498  60.349  1.00  0.00     0.001 A 
HETATM   45  C   UNL     1       8.788  30.430  59.472  1.00  0.00     0.009 A 
ENDBRANCH  37  40
ENDBRANCH  32  33
ENDBRANCH   2  32
TORSDOF 10
ENDMDL
MODEL 10
REMARK VINA RESULT:      -8.4      3.182      9.608
REMARK  10 active torsions:
REMARK  status: ('A' for Active; 'I' for Inactive)
REMARK    1  A    between atoms: C_6  and  N_7 
REMARK    2  A    between atoms: C_6  and  C_29 
REMARK       I    between atoms: N_7  and  C_8 
REMARK    3  A    between atoms: N_7  and  C_23 
REMARK    4  A    between atoms: C_8  and  C_9 
REMARK    5  A    between atoms: C_9  and  N_10 
REMARK    6  A    between atoms: C_14  and  C_15 
REMARK    7  A    between atoms: C_23  and  C_24 
REMARK       I    between atoms: C_29  and  N_30 
REMARK    8  A    between atoms: N_30  and  C_31 
REMARK    9  A    between atoms: C_32  and  O_33 
REMARK   10  A    between atoms: C_36  and  O_37 
ROOT
HETATM    1  N   UNL     1       6.067  28.981  56.230  1.00  0.00    -0.326 N 
HETATM    2  C   UNL     1       5.003  29.585  56.942  1.00  0.00     0.239 C 
HETATM    3  O   UNL     1       3.831  29.292  56.710  1.00  0.00    -0.271 OA
ENDROOT
BRANCH   1   4
HETATM    4  C   UNL     1       5.742  28.222  54.962  1.00  0.00     0.120 C 
HETATM    5  C   UNL     1       4.288  28.489  54.497  1.00  0.00     0.069 C 
HETATM    6  C   UNL     1       3.927  27.847  53.161  1.00  0.00     0.237 C 
HETATM    7  N   UNL     1       4.957  28.167  52.109  1.00  0.00    -0.075 N 
HETATM    8  C   UNL     1       4.598  27.518  50.795  1.00  0.00     0.269 C 
HETATM    9  H   UNL     1       4.931  29.186  51.951  1.00  0.00     0.279 HD
HETATM   10  C   UNL     1       6.359  27.809  52.521  1.00  0.00     0.237 C 
HETATM   11  C   UNL     1       6.716  28.562  53.795  1.00  0.00     0.069 C 
BRANCH   4  12
HETATM   12  C   UNL     1       5.962  26.693  55.241  1.00  0.00     0.251 C 
HETATM   13  N   UNL     1       7.109  26.197  54.661  1.00  0.00    -0.323 N 
HETATM   14  H   UNL     1       7.774  26.860  54.270  1.00  0.00     0.169 HD
HETATM   15  O   UNL     1       5.085  26.023  55.777  1.00  0.00    -0.270 OA
BRANCH  13  16
HETATM   16  C   UNL     1       7.504  24.851  54.494  1.00  0.00     0.068 A 
HETATM   17  C   UNL     1       8.274  24.283  55.533  1.00  0.00     0.097 A 
HETATM   18  C   UNL     1       8.729  22.963  55.429  1.00  0.00     0.075 A 
HETATM   19  C   UNL     1       8.421  22.206  54.297  1.00  0.00     0.070 A 
HETATM   20  C   UNL     1       7.663  22.776  53.273  1.00  0.00     0.039 A 
HETATM   21  C   UNL     1       7.201  24.089  53.368  1.00  0.00     0.035 A 
BRANCH  17  22
HETATM   22  O   UNL     1       8.542  25.130  56.587  1.00  0.00    -0.354 OA
HETATM   23  C   UNL     1       8.797  24.528  57.854  1.00  0.00     0.210 C 
ENDBRANCH  17  22
BRANCH  19  24
HETATM   24  O   UNL     1       8.807  20.916  54.062  1.00  0.00    -0.356 OA
HETATM   25  C   UNL     1       8.406  20.330  52.829  1.00  0.00     0.210 C 
ENDBRANCH  19  24
ENDBRANCH  13  16
ENDBRANCH   4  12
ENDBRANCH   1   4
BRANCH   1  26
HETATM   26  C   UNL     1       7.115  28.387  57.088  1.00  0.00     0.192 C 
BRANCH  26  27
HETATM   27  C   UNL     1       8.432  29.064  57.001  1.00  0.00     0.070 A 
HETATM   28  O   UNL     1       8.816  29.690  58.153  1.00  0.00    -0.325 OA
HETATM   29  C   UNL     1      10.026  30.259  57.927  1.00  0.00     0.142 A 
HETATM   30  C   UNL     1      10.430  30.018  56.636  1.00  0.00     0.027 A 
HETATM   31  C   UNL     1       9.403  29.249  56.035  1.00  0.00     0.036 A 
ENDBRANCH  26  27
ENDBRANCH   1  26
BRANCH   2  32
HETATM   32  C   UNL     1       5.411  30.692  57.942  1.00  0.00     0.228 C 
BRANCH  32  33
HETATM   33  N   UNL     1       5.176  32.050  57.472  1.00  0.00    -0.347 N 
HETATM   34  C   UNL     1       4.942  33.192  58.235  1.00  0.00     0.171 C 
HETATM   35  S   UNL     1       4.805  33.328  59.878  1.00  0.00    -0.041 SA
HETATM   36  N   UNL     1       4.806  34.268  57.362  1.00  0.00    -0.357 N 
HETATM   37  C   UNL     1       4.665  33.791  56.005  1.00  0.00     0.135 C 
HETATM   38  H   UNL     1       4.449  35.158  57.687  1.00  0.00     0.162 HD
HETATM   39  C   UNL     1       5.311  32.403  56.068  1.00  0.00     0.155 C 
BRANCH  37  40
HETATM   40  C   UNL     1       5.241  34.686  54.944  1.00  0.00    -0.034 A 
HETATM   41  C   UNL     1       5.605  36.014  55.209  1.00  0.00     0.009 A 
HETATM   42  C   UNL     1       6.179  36.805  54.211  1.00  0.00     0.001 A 
HETATM   43  C   UNL     1       6.405  36.276  52.941  1.00  0.00     0.000 A 
HETATM   44  C   UNL     1       6.054  34.957  52.665  1.00  0.00     0.001 A 
HETATM   45  C   UNL     1       5.478  34.167  53.661  1.00  0.00     0.009 A 
ENDBRANCH  37  40
ENDBRANCH  32  33
ENDBRANCH   2  32
TORSDOF 10
ENDMDL
