MODEL 1
REMARK VINA RESULT:     -10.0      0.000      0.000
REMARK  9 active torsions:
REMARK  status: ('A' for Active; 'I' for Inactive)
REMARK    1  A    between atoms: C_2  and  N_3 
REMARK    2  A    between atoms: C_4  and  S_5 
REMARK    3  A    between atoms: S_5  and  C_6 
REMARK    4  A    between atoms: C_6  and  C_7 
REMARK       I    between atoms: C_7  and  N_8 
REMARK    5  A    between atoms: N_8  and  C_9 
REMARK    6  A    between atoms: C_12  and  O_13 
REMARK    7  A    between atoms: C_19  and  C_20 
REMARK    8  A    between atoms: C_23  and  S_24 
REMARK    9  A    between atoms: S_24  and  N_25 
ROOT
HETATM    1  N   UNL     1       7.429  29.671  56.956  1.00  0.00    -0.308 N 
HETATM    2  C   UNL     1       8.187  28.900  56.114  1.00  0.00     0.192 A 
HETATM    3  N   UNL     1       9.419  28.834  56.557  1.00  0.00    -0.122 NA
HETATM    4  N   UNL     1       9.474  29.528  57.735  1.00  0.00    -0.128 NA
HETATM    5  C   UNL     1       8.272  30.016  57.995  1.00  0.00     0.164 A 
ENDROOT
BRANCH   5   6
HETATM    6  C   UNL     1       7.954  30.837  59.163  1.00  0.00     0.012 A 
HETATM    7  C   UNL     1       8.492  30.484  60.410  1.00  0.00     0.017 A 
HETATM    8  C   UNL     1       8.197  31.230  61.553  1.00  0.00     0.026 A 
HETATM    9  C   UNL     1       7.342  32.329  61.453  1.00  0.00     0.074 A 
HETATM   10  C   UNL     1       6.779  32.684  60.225  1.00  0.00     0.026 A 
HETATM   11  C   UNL     1       7.083  31.933  59.085  1.00  0.00     0.017 A 
BRANCH   9  12
HETATM   12  S   UNL     1       6.958  33.264  62.903  1.00  0.00     0.243 S 
HETATM   13  O   UNL     1       8.074  33.161  63.813  1.00  0.00    -0.206 OA
HETATM   14  O   UNL     1       6.417  34.549  62.516  1.00  0.00    -0.206 OA
BRANCH  12  15
HETATM   15  N   UNL     1       5.643  32.413  63.600  1.00  0.00    -0.203 NA
HETATM   16  C   UNL     1       4.710  31.741  62.641  1.00  0.00     0.135 C 
HETATM   17  C   UNL     1       3.672  32.709  62.032  1.00  0.00     0.250 C 
HETATM   18  N   UNL     1       2.962  33.515  63.117  1.00  0.00    -0.073 N 
HETATM   19  H   UNL     1       2.425  32.853  63.691  1.00  0.00     0.279 HD
HETATM   20  C   UNL     1       1.979  34.489  62.530  1.00  0.00     0.269 C 
HETATM   21  C   UNL     1       3.957  34.216  64.040  1.00  0.00     0.250 C 
HETATM   22  C   UNL     1       4.909  33.180  64.655  1.00  0.00     0.135 C 
ENDBRANCH  12  15
ENDBRANCH   9  12
ENDBRANCH   5   6
BRANCH   1  23
HETATM   23  C   UNL     1       6.085  30.162  56.714  1.00  0.00     0.128 C 
HETATM   24  C   UNL     1       5.000  29.346  57.397  1.00  0.00     0.027 C 
ENDBRANCH   1  23
BRANCH   2  25
HETATM   25  S   UNL     1       7.585  28.135  54.688  1.00  0.00    -0.081 SA
BRANCH  25  26
HETATM   26  C   UNL     1       6.598  26.782  55.387  1.00  0.00     0.185 C 
BRANCH  26  27
HETATM   27  C   UNL     1       7.441  25.534  55.610  1.00  0.00     0.231 C 
HETATM   28  N   UNL     1       7.168  24.530  54.696  1.00  0.00    -0.327 N 
HETATM   29  H   UNL     1       6.646  24.815  53.868  1.00  0.00     0.169 HD
HETATM   30  O   UNL     1       8.254  25.476  56.529  1.00  0.00    -0.272 OA
BRANCH  28  31
HETATM   31  C   UNL     1       7.641  23.205  54.693  1.00  0.00     0.034 A 
HETATM   32  C   UNL     1       8.179  22.728  53.488  1.00  0.00     0.032 A 
HETATM   33  C   UNL     1       8.636  21.411  53.381  1.00  0.00     0.039 A 
HETATM   34  C   UNL     1       8.558  20.573  54.485  1.00  0.00     0.065 A 
HETATM   35  C   UNL     1       8.038  21.032  55.689  1.00  0.00     0.039 A 
HETATM   36  C   UNL     1       7.574  22.347  55.792  1.00  0.00     0.032 A 
BRANCH  34  37
HETATM   37  O   UNL     1       8.981  19.278  54.427  1.00  0.00    -0.361 OA
HETATM   38  H   UNL     1       9.850  19.215  54.856  1.00  0.00     0.217 HD
ENDBRANCH  34  37
ENDBRANCH  28  31
ENDBRANCH  26  27
ENDBRANCH  25  26
ENDBRANCH   2  25
TORSDOF 9
ENDMDL
MODEL 2
REMARK VINA RESULT:      -9.9      6.125     10.225
REMARK  9 active torsions:
REMARK  status: ('A' for Active; 'I' for Inactive)
REMARK    1  A    between atoms: C_2  and  N_3 
REMARK    2  A    between atoms: C_4  and  S_5 
REMARK    3  A    between atoms: S_5  and  C_6 
REMARK    4  A    between atoms: C_6  and  C_7 
REMARK       I    between atoms: C_7  and  N_8 
REMARK    5  A    between atoms: N_8  and  C_9 
REMARK    6  A    between atoms: C_12  and  O_13 
REMARK    7  A    between atoms: C_19  and  C_20 
REMARK    8  A    between atoms: C_23  and  S_24 
REMARK    9  A    between atoms: S_24  and  N_25 
ROOT
HETATM    1  N   UNL     1       5.855  27.667  54.460  1.00  0.00    -0.308 N 
HETATM    2  C   UNL     1       6.873  27.483  55.359  1.00  0.00     0.192 A 
HETATM    3  N   UNL     1       7.956  27.090  54.733  1.00  0.00    -0.122 NA
HETATM    4  N   UNL     1       7.674  27.060  53.394  1.00  0.00    -0.128 NA
HETATM    5  C   UNL     1       6.416  27.429  53.219  1.00  0.00     0.164 A 
ENDROOT
BRANCH   5   6
HETATM    6  C   UNL     1       5.752  27.492  51.917  1.00  0.00     0.012 A 
HETATM    7  C   UNL     1       5.354  26.297  51.298  1.00  0.00     0.017 A 
HETATM    8  C   UNL     1       4.734  26.312  50.046  1.00  0.00     0.026 A 
HETATM    9  C   UNL     1       4.526  27.532  49.399  1.00  0.00     0.074 A 
HETATM   10  C   UNL     1       4.934  28.730  49.989  1.00  0.00     0.026 A 
HETATM   11  C   UNL     1       5.551  28.705  51.244  1.00  0.00     0.017 A 
BRANCH   9  12
HETATM   12  S   UNL     1       3.754  27.549  47.809  1.00  0.00     0.243 S 
HETATM   13  O   UNL     1       3.960  28.852  47.223  1.00  0.00    -0.206 OA
HETATM   14  O   UNL     1       4.100  26.338  47.096  1.00  0.00    -0.206 OA
BRANCH  12  15
HETATM   15  N   UNL     1       2.083  27.400  48.165  1.00  0.00    -0.203 NA
HETATM   16  C   UNL     1       1.162  27.333  46.987  1.00  0.00     0.135 C 
HETATM   17  C   UNL     1       0.841  28.723  46.393  1.00  0.00     0.250 C 
HETATM   18  N   UNL     1       0.384  29.696  47.476  1.00  0.00    -0.073 N 
HETATM   19  H   UNL     1      -0.503  29.341  47.855  1.00  0.00     0.279 HD
HETATM   20  C   UNL     1       0.109  31.062  46.913  1.00  0.00     0.269 C 
HETATM   21  C   UNL     1       1.380  29.761  48.633  1.00  0.00     0.250 C 
HETATM   22  C   UNL     1       1.594  28.353  49.209  1.00  0.00     0.135 C 
ENDBRANCH  12  15
ENDBRANCH   9  12
ENDBRANCH   5   6
BRANCH   1  23
HETATM   23  C   UNL     1       4.455  27.890  54.764  1.00  0.00     0.128 C 
HETATM   24  C   UNL     1       4.032  29.347  54.684  1.00  0.00     0.027 C 
ENDBRANCH   1  23
BRANCH   2  25
HETATM   25  S   UNL     1       6.728  27.740  57.060  1.00  0.00    -0.081 SA
BRANCH  25  26
HETATM   26  C   UNL     1       7.272  26.139  57.719  1.00  0.00     0.185 C 
BRANCH  26  27
HETATM   27  C   UNL     1       6.830  24.988  56.827  1.00  0.00     0.231 C 
HETATM   28  N   UNL     1       7.894  24.267  56.312  1.00  0.00    -0.327 N 
HETATM   29  H   UNL     1       8.794  24.421  56.765  1.00  0.00     0.169 HD
HETATM   30  O   UNL     1       5.639  24.776  56.612  1.00  0.00    -0.272 OA
BRANCH  28  31
HETATM   31  C   UNL     1       7.865  23.246  55.344  1.00  0.00     0.034 A 
HETATM   32  C   UNL     1       7.936  21.926  55.814  1.00  0.00     0.032 A 
HETATM   33  C   UNL     1       7.955  20.849  54.923  1.00  0.00     0.039 A 
HETATM   34  C   UNL     1       7.898  21.097  53.557  1.00  0.00     0.065 A 
HETATM   35  C   UNL     1       7.817  22.397  53.075  1.00  0.00     0.039 A 
HETATM   36  C   UNL     1       7.805  23.473  53.968  1.00  0.00     0.032 A 
BRANCH  34  37
HETATM   37  O   UNL     1       7.923  20.081  52.649  1.00  0.00    -0.361 OA
HETATM   38  H   UNL     1       8.289  20.417  51.815  1.00  0.00     0.217 HD
ENDBRANCH  34  37
ENDBRANCH  28  31
ENDBRANCH  26  27
ENDBRANCH  25  26
ENDBRANCH   2  25
TORSDOF 9
ENDMDL
MODEL 3
REMARK VINA RESULT:      -9.7      2.285      3.229
REMARK  9 active torsions:
REMARK  status: ('A' for Active; 'I' for Inactive)
REMARK    1  A    between atoms: C_2  and  N_3 
REMARK    2  A    between atoms: C_4  and  S_5 
REMARK    3  A    between atoms: S_5  and  C_6 
REMARK    4  A    between atoms: C_6  and  C_7 
REMARK       I    between atoms: C_7  and  N_8 
REMARK    5  A    between atoms: N_8  and  C_9 
REMARK    6  A    between atoms: C_12  and  O_13 
REMARK    7  A    between atoms: C_19  and  C_20 
REMARK    8  A    between atoms: C_23  and  S_24 
REMARK    9  A    between atoms: S_24  and  N_25 
ROOT
HETATM    1  N   UNL     1       5.052  28.226  55.669  1.00  0.00    -0.308 N 
HETATM    2  C   UNL     1       4.646  27.873  54.408  1.00  0.00     0.192 A 
HETATM    3  N   UNL     1       3.975  28.858  53.863  1.00  0.00    -0.122 NA
HETATM    4  N   UNL     1       3.974  29.901  54.749  1.00  0.00    -0.128 NA
HETATM    5  C   UNL     1       4.642  29.536  55.831  1.00  0.00     0.164 A 
ENDROOT
BRANCH   5   6
HETATM    6  C   UNL     1       4.829  30.386  57.006  1.00  0.00     0.012 A 
HETATM    7  C   UNL     1       3.711  30.732  57.781  1.00  0.00     0.017 A 
HETATM    8  C   UNL     1       3.843  31.557  58.900  1.00  0.00     0.026 A 
HETATM    9  C   UNL     1       5.103  32.056  59.238  1.00  0.00     0.074 A 
HETATM   10  C   UNL     1       6.224  31.743  58.467  1.00  0.00     0.026 A 
HETATM   11  C   UNL     1       6.081  30.912  57.351  1.00  0.00     0.017 A 
BRANCH   9  12
HETATM   12  S   UNL     1       5.267  33.113  60.646  1.00  0.00     0.243 S 
HETATM   13  O   UNL     1       6.643  33.072  61.081  1.00  0.00    -0.206 OA
HETATM   14  O   UNL     1       4.595  34.367  60.385  1.00  0.00    -0.206 OA
BRANCH  12  15
HETATM   15  N   UNL     1       4.321  32.338  61.849  1.00  0.00    -0.203 NA
HETATM   16  C   UNL     1       3.162  33.121  62.382  1.00  0.00     0.135 C 
HETATM   17  C   UNL     1       3.573  34.147  63.462  1.00  0.00     0.250 C 
HETATM   18  N   UNL     1       4.426  33.496  64.548  1.00  0.00    -0.073 N 
HETATM   19  H   UNL     1       3.837  32.803  65.028  1.00  0.00     0.279 HD
HETATM   20  C   UNL     1       4.863  34.495  65.582  1.00  0.00     0.269 C 
HETATM   21  C   UNL     1       5.619  32.748  63.956  1.00  0.00     0.250 C 
HETATM   22  C   UNL     1       5.123  31.705  62.943  1.00  0.00     0.135 C 
ENDBRANCH  12  15
ENDBRANCH   9  12
ENDBRANCH   5   6
BRANCH   1  23
HETATM   23  C   UNL     1       5.627  27.354  56.675  1.00  0.00     0.128 C 
HETATM   24  C   UNL     1       7.146  27.387  56.721  1.00  0.00     0.027 C 
ENDBRANCH   1  23
BRANCH   2  25
HETATM   25  S   UNL     1       4.984  26.350  53.668  1.00  0.00    -0.081 SA
BRANCH  25  26
HETATM   26  C   UNL     1       6.685  26.595  53.087  1.00  0.00     0.185 C 
BRANCH  26  27
HETATM   27  C   UNL     1       7.421  25.270  52.940  1.00  0.00     0.231 C 
HETATM   28  N   UNL     1       6.886  24.267  53.731  1.00  0.00    -0.327 N 
HETATM   29  H   UNL     1       5.957  24.449  54.109  1.00  0.00     0.169 HD
HETATM   30  O   UNL     1       8.389  25.164  52.191  1.00  0.00    -0.272 OA
BRANCH  28  31
HETATM   31  C   UNL     1       7.396  22.976  53.960  1.00  0.00     0.034 A 
HETATM   32  C   UNL     1       7.635  22.617  55.295  1.00  0.00     0.032 A 
HETATM   33  C   UNL     1       8.179  21.369  55.614  1.00  0.00     0.039 A 
HETATM   34  C   UNL     1       8.477  20.477  54.593  1.00  0.00     0.065 A 
HETATM   35  C   UNL     1       8.237  20.812  53.266  1.00  0.00     0.039 A 
HETATM   36  C   UNL     1       7.701  22.063  52.949  1.00  0.00     0.032 A 
BRANCH  34  37
HETATM   37  O   UNL     1       9.017  19.253  54.853  1.00  0.00    -0.361 OA
HETATM   38  H   UNL     1       9.352  19.247  55.764  1.00  0.00     0.217 HD
ENDBRANCH  34  37
ENDBRANCH  28  31
ENDBRANCH  26  27
ENDBRANCH  25  26
ENDBRANCH   2  25
TORSDOF 9
ENDMDL
MODEL 4
REMARK VINA RESULT:      -9.7      1.843      2.594
REMARK  9 active torsions:
REMARK  status: ('A' for Active; 'I' for Inactive)
REMARK    1  A    between atoms: C_2  and  N_3 
REMARK    2  A    between atoms: C_4  and  S_5 
REMARK    3  A    between atoms: S_5  and  C_6 
REMARK    4  A    between atoms: C_6  and  C_7 
REMARK       I    between atoms: C_7  and  N_8 
REMARK    5  A    between atoms: N_8  and  C_9 
REMARK    6  A    between atoms: C_12  and  O_13 
REMARK    7  A    between atoms: C_19  and  C_20 
REMARK    8  A    between atoms: C_23  and  S_24 
REMARK    9  A    between atoms: S_24  and  N_25 
ROOT
HETATM    1  N   UNL     1       7.351  30.022  57.746  1.00  0.00    -0.308 N 
HETATM    2  C   UNL     1       8.420  29.643  56.977  1.00  0.00     0.192 A 
HETATM    3  N   UNL     1       9.510  30.231  57.406  1.00  0.00    -0.122 NA
HETATM    4  N   UNL     1       9.177  30.972  58.507  1.00  0.00    -0.128 NA
HETATM    5  C   UNL     1       7.881  30.834  58.733  1.00  0.00     0.164 A 
ENDROOT
BRANCH   5   6
HETATM    6  C   UNL     1       7.160  31.502  59.815  1.00  0.00     0.012 A 
HETATM    7  C   UNL     1       7.513  31.219  61.144  1.00  0.00     0.017 A 
HETATM    8  C   UNL     1       6.837  31.821  62.208  1.00  0.00     0.026 A 
HETATM    9  C   UNL     1       5.786  32.702  61.941  1.00  0.00     0.074 A 
HETATM   10  C   UNL     1       5.405  32.979  60.627  1.00  0.00     0.026 A 
HETATM   11  C   UNL     1       6.090  32.374  59.569  1.00  0.00     0.017 A 
BRANCH   9  12
HETATM   12  S   UNL     1       4.922  33.452  63.288  1.00  0.00     0.243 S 
HETATM   13  O   UNL     1       3.786  34.165  62.753  1.00  0.00    -0.206 OA
HETATM   14  O   UNL     1       4.772  32.489  64.358  1.00  0.00    -0.206 OA
BRANCH  12  15
HETATM   15  N   UNL     1       6.029  34.618  63.885  1.00  0.00    -0.203 NA
HETATM   16  C   UNL     1       7.110  34.101  64.783  1.00  0.00     0.135 C 
HETATM   17  C   UNL     1       6.639  33.903  66.241  1.00  0.00     0.250 C 
HETATM   18  N   UNL     1       5.943  35.153  66.773  1.00  0.00    -0.073 N 
HETATM   19  H   UNL     1       6.643  35.906  66.803  1.00  0.00     0.279 HD
HETATM   20  C   UNL     1       5.446  34.955  68.177  1.00  0.00     0.269 C 
HETATM   21  C   UNL     1       4.821  35.612  65.844  1.00  0.00     0.250 C 
HETATM   22  C   UNL     1       5.383  35.850  64.434  1.00  0.00     0.135 C 
ENDBRANCH  12  15
ENDBRANCH   9  12
ENDBRANCH   5   6
BRANCH   1  23
HETATM   23  C   UNL     1       5.949  29.769  57.476  1.00  0.00     0.128 C 
HETATM   24  C   UNL     1       5.390  30.578  56.317  1.00  0.00     0.027 C 
ENDBRANCH   1  23
BRANCH   2  25
HETATM   25  S   UNL     1       8.320  28.549  55.644  1.00  0.00    -0.081 SA
BRANCH  25  26
HETATM   26  C   UNL     1       7.766  27.026  56.462  1.00  0.00     0.185 C 
BRANCH  26  27
HETATM   27  C   UNL     1       7.377  25.958  55.449  1.00  0.00     0.231 C 
HETATM   28  N   UNL     1       7.953  24.728  55.717  1.00  0.00    -0.327 N 
HETATM   29  H   UNL     1       8.347  24.616  56.650  1.00  0.00     0.169 HD
HETATM   30  O   UNL     1       6.634  26.222  54.507  1.00  0.00    -0.272 OA
BRANCH  28  31
HETATM   31  C   UNL     1       7.935  23.568  54.920  1.00  0.00     0.034 A 
HETATM   32  C   UNL     1       7.950  22.338  55.593  1.00  0.00     0.032 A 
HETATM   33  C   UNL     1       7.976  21.134  54.882  1.00  0.00     0.039 A 
HETATM   34  C   UNL     1       7.981  21.165  53.494  1.00  0.00     0.065 A 
HETATM   35  C   UNL     1       7.957  22.375  52.811  1.00  0.00     0.039 A 
HETATM   36  C   UNL     1       7.939  23.577  53.524  1.00  0.00     0.032 A 
BRANCH  34  37
HETATM   37  O   UNL     1       8.016  20.018  52.757  1.00  0.00    -0.361 OA
HETATM   38  H   UNL     1       8.484  20.196  51.926  1.00  0.00     0.217 HD
ENDBRANCH  34  37
ENDBRANCH  28  31
ENDBRANCH  26  27
ENDBRANCH  25  26
ENDBRANCH   2  25
TORSDOF 9
ENDMDL
MODEL 5
REMARK VINA RESULT:      -9.7      1.274      1.717
REMARK  9 active torsions:
REMARK  status: ('A' for Active; 'I' for Inactive)
REMARK    1  A    between atoms: C_2  and  N_3 
REMARK    2  A    between atoms: C_4  and  S_5 
REMARK    3  A    between atoms: S_5  and  C_6 
REMARK    4  A    between atoms: C_6  and  C_7 
REMARK       I    between atoms: C_7  and  N_8 
REMARK    5  A    between atoms: N_8  and  C_9 
REMARK    6  A    between atoms: C_12  and  O_13 
REMARK    7  A    between atoms: C_19  and  C_20 
REMARK    8  A    between atoms: C_23  and  S_24 
REMARK    9  A    between atoms: S_24  and  N_25 
ROOT
HETATM    1  N   UNL     1       6.568  28.873  56.757  1.00  0.00    -0.308 N 
HETATM    2  C   UNL     1       7.129  28.383  55.606  1.00  0.00     0.192 A 
HETATM    3  N   UNL     1       8.310  28.921  55.421  1.00  0.00    -0.122 NA
HETATM    4  N   UNL     1       8.564  29.742  56.486  1.00  0.00    -0.128 NA
HETATM    5  C   UNL     1       7.529  29.701  57.308  1.00  0.00     0.164 A 
ENDROOT
BRANCH   5   6
HETATM    6  C   UNL     1       7.431  30.473  58.545  1.00  0.00     0.012 A 
HETATM    7  C   UNL     1       6.535  31.551  58.607  1.00  0.00     0.017 A 
HETATM    8  C   UNL     1       6.425  32.326  59.763  1.00  0.00     0.026 A 
HETATM    9  C   UNL     1       7.232  32.032  60.864  1.00  0.00     0.074 A 
HETATM   10  C   UNL     1       8.146  30.977  60.816  1.00  0.00     0.026 A 
HETATM   11  C   UNL     1       8.246  30.205  59.654  1.00  0.00     0.017 A 
BRANCH   9  12
HETATM   12  S   UNL     1       7.102  33.022  62.323  1.00  0.00     0.243 S 
HETATM   13  O   UNL     1       8.342  32.911  63.054  1.00  0.00    -0.206 OA
HETATM   14  O   UNL     1       6.543  34.311  61.979  1.00  0.00    -0.206 OA
BRANCH  12  15
HETATM   15  N   UNL     1       5.887  32.236  63.243  1.00  0.00    -0.203 NA
HETATM   16  C   UNL     1       4.783  31.592  62.464  1.00  0.00     0.135 C 
HETATM   17  C   UNL     1       3.697  32.596  62.016  1.00  0.00     0.250 C 
HETATM   18  N   UNL     1       3.209  33.444  63.187  1.00  0.00    -0.073 N 
HETATM   19  H   UNL     1       2.749  32.812  63.855  1.00  0.00     0.279 HD
HETATM   20  C   UNL     1       2.182  34.451  62.753  1.00  0.00     0.269 C 
HETATM   21  C   UNL     1       4.370  34.114  63.921  1.00  0.00     0.250 C 
HETATM   22  C   UNL     1       5.369  33.045  64.390  1.00  0.00     0.135 C 
ENDBRANCH  12  15
ENDBRANCH   9  12
ENDBRANCH   5   6
BRANCH   1  23
HETATM   23  C   UNL     1       5.199  28.697  57.202  1.00  0.00     0.128 C 
HETATM   24  C   UNL     1       4.203  29.608  56.503  1.00  0.00     0.027 C 
ENDBRANCH   1  23
BRANCH   2  25
HETATM   25  S   UNL     1       6.373  27.226  54.571  1.00  0.00    -0.081 SA
BRANCH  25  26
HETATM   26  C   UNL     1       7.682  26.915  53.353  1.00  0.00     0.185 C 
BRANCH  26  27
HETATM   27  C   UNL     1       7.790  25.434  53.016  1.00  0.00     0.231 C 
HETATM   28  N   UNL     1       7.844  24.629  54.141  1.00  0.00    -0.327 N 
HETATM   29  H   UNL     1       7.565  25.071  55.016  1.00  0.00     0.169 HD
HETATM   30  O   UNL     1       7.833  25.053  51.848  1.00  0.00    -0.272 OA
BRANCH  28  31
HETATM   31  C   UNL     1       8.093  23.246  54.209  1.00  0.00     0.034 A 
HETATM   32  C   UNL     1       8.505  22.737  55.450  1.00  0.00     0.032 A 
HETATM   33  C   UNL     1       8.814  21.382  55.601  1.00  0.00     0.039 A 
HETATM   34  C   UNL     1       8.704  20.535  54.507  1.00  0.00     0.065 A 
HETATM   35  C   UNL     1       8.288  21.019  53.273  1.00  0.00     0.039 A 
HETATM   36  C   UNL     1       7.987  22.376  53.122  1.00  0.00     0.032 A 
BRANCH  34  37
HETATM   37  O   UNL     1       9.004  19.208  54.602  1.00  0.00    -0.361 OA
HETATM   38  H   UNL     1       8.255  18.748  55.014  1.00  0.00     0.217 HD
ENDBRANCH  34  37
ENDBRANCH  28  31
ENDBRANCH  26  27
ENDBRANCH  25  26
ENDBRANCH   2  25
TORSDOF 9
ENDMDL
MODEL 6
REMARK VINA RESULT:      -9.6      2.200      2.954
REMARK  9 active torsions:
REMARK  status: ('A' for Active; 'I' for Inactive)
REMARK    1  A    between atoms: C_2  and  N_3 
REMARK    2  A    between atoms: C_4  and  S_5 
REMARK    3  A    between atoms: S_5  and  C_6 
REMARK    4  A    between atoms: C_6  and  C_7 
REMARK       I    between atoms: C_7  and  N_8 
REMARK    5  A    between atoms: N_8  and  C_9 
REMARK    6  A    between atoms: C_12  and  O_13 
REMARK    7  A    between atoms: C_19  and  C_20 
REMARK    8  A    between atoms: C_23  and  S_24 
REMARK    9  A    between atoms: S_24  and  N_25 
ROOT
HETATM    1  N   UNL     1       6.368  29.256  56.680  1.00  0.00    -0.308 N 
HETATM    2  C   UNL     1       6.262  28.832  55.381  1.00  0.00     0.192 A 
HETATM    3  N   UNL     1       5.285  29.468  54.782  1.00  0.00    -0.122 NA
HETATM    4  N   UNL     1       4.763  30.364  55.675  1.00  0.00    -0.128 NA
HETATM    5  C   UNL     1       5.426  30.259  56.815  1.00  0.00     0.164 A 
ENDROOT
BRANCH   5   6
HETATM    6  C   UNL     1       5.130  31.045  58.012  1.00  0.00     0.012 A 
HETATM    7  C   UNL     1       3.831  31.015  58.543  1.00  0.00     0.017 A 
HETATM    8  C   UNL     1       3.502  31.765  59.673  1.00  0.00     0.026 A 
HETATM    9  C   UNL     1       4.476  32.568  60.270  1.00  0.00     0.074 A 
HETATM   10  C   UNL     1       5.769  32.629  59.746  1.00  0.00     0.026 A 
HETATM   11  C   UNL     1       6.089  31.870  58.615  1.00  0.00     0.017 A 
BRANCH   9  12
HETATM   12  S   UNL     1       4.055  33.529  61.693  1.00  0.00     0.243 S 
HETATM   13  O   UNL     1       3.564  34.809  61.242  1.00  0.00    -0.206 OA
HETATM   14  O   UNL     1       3.296  32.712  62.615  1.00  0.00    -0.206 OA
BRANCH  12  15
HETATM   15  N   UNL     1       5.563  33.796  62.466  1.00  0.00    -0.203 NA
HETATM   16  C   UNL     1       5.829  32.980  63.692  1.00  0.00     0.135 C 
HETATM   17  C   UNL     1       5.156  33.557  64.958  1.00  0.00     0.250 C 
HETATM   18  N   UNL     1       5.472  35.041  65.126  1.00  0.00    -0.073 N 
HETATM   19  H   UNL     1       6.485  35.124  65.283  1.00  0.00     0.279 HD
HETATM   20  C   UNL     1       4.789  35.620  66.333  1.00  0.00     0.269 C 
HETATM   21  C   UNL     1       5.141  35.835  63.863  1.00  0.00     0.250 C 
HETATM   22  C   UNL     1       5.898  35.240  62.666  1.00  0.00     0.135 C 
ENDBRANCH  12  15
ENDBRANCH   9  12
ENDBRANCH   5   6
BRANCH   1  23
HETATM   23  C   UNL     1       7.172  28.658  57.729  1.00  0.00     0.128 C 
HETATM   24  C   UNL     1       8.561  29.261  57.859  1.00  0.00     0.027 C 
ENDBRANCH   1  23
BRANCH   2  25
HETATM   25  S   UNL     1       7.280  27.637  54.662  1.00  0.00    -0.081 SA
BRANCH  25  26
HETATM   26  C   UNL     1       6.142  26.843  53.493  1.00  0.00     0.185 C 
BRANCH  26  27
HETATM   27  C   UNL     1       6.107  25.333  53.686  1.00  0.00     0.231 C 
HETATM   28  N   UNL     1       7.296  24.826  54.184  1.00  0.00    -0.327 N 
HETATM   29  H   UNL     1       7.938  25.512  54.581  1.00  0.00     0.169 HD
HETATM   30  O   UNL     1       5.104  24.682  53.403  1.00  0.00    -0.272 OA
BRANCH  28  31
HETATM   31  C   UNL     1       7.668  23.479  54.342  1.00  0.00     0.034 A 
HETATM   32  C   UNL     1       8.133  22.812  53.199  1.00  0.00     0.032 A 
HETATM   33  C   UNL     1       8.487  21.461  53.253  1.00  0.00     0.039 A 
HETATM   34  C   UNL     1       8.380  20.779  54.457  1.00  0.00     0.065 A 
HETATM   35  C   UNL     1       7.932  21.426  55.602  1.00  0.00     0.039 A 
HETATM   36  C   UNL     1       7.571  22.776  55.544  1.00  0.00     0.032 A 
BRANCH  34  37
HETATM   37  O   UNL     1       8.704  19.458  54.558  1.00  0.00    -0.361 OA
HETATM   38  H   UNL     1       9.384  19.356  55.244  1.00  0.00     0.217 HD
ENDBRANCH  34  37
ENDBRANCH  28  31
ENDBRANCH  26  27
ENDBRANCH  25  26
ENDBRANCH   2  25
TORSDOF 9
ENDMDL
MODEL 7
REMARK VINA RESULT:      -9.5      2.094      2.893
REMARK  9 active torsions:
REMARK  status: ('A' for Active; 'I' for Inactive)
REMARK    1  A    between atoms: C_2  and  N_3 
REMARK    2  A    between atoms: C_4  and  S_5 
REMARK    3  A    between atoms: S_5  and  C_6 
REMARK    4  A    between atoms: C_6  and  C_7 
REMARK       I    between atoms: C_7  and  N_8 
REMARK    5  A    between atoms: N_8  and  C_9 
REMARK    6  A    between atoms: C_12  and  O_13 
REMARK    7  A    between atoms: C_19  and  C_20 
REMARK    8  A    between atoms: C_23  and  S_24 
REMARK    9  A    between atoms: S_24  and  N_25 
ROOT
HETATM    1  N   UNL     1       5.689  28.106  55.440  1.00  0.00    -0.308 N 
HETATM    2  C   UNL     1       6.112  27.155  54.549  1.00  0.00     0.192 A 
HETATM    3  N   UNL     1       7.415  27.025  54.619  1.00  0.00    -0.122 NA
HETATM    4  N   UNL     1       7.863  27.864  55.603  1.00  0.00    -0.128 NA
HETATM    5  C   UNL     1       6.826  28.502  56.120  1.00  0.00     0.164 A 
ENDROOT
BRANCH   5   6
HETATM    6  C   UNL     1       6.923  29.502  57.182  1.00  0.00     0.012 A 
HETATM    7  C   UNL     1       7.872  29.325  58.200  1.00  0.00     0.017 A 
HETATM    8  C   UNL     1       7.985  30.246  59.243  1.00  0.00     0.026 A 
HETATM    9  C   UNL     1       7.127  31.348  59.279  1.00  0.00     0.074 A 
HETATM   10  C   UNL     1       6.160  31.531  58.289  1.00  0.00     0.026 A 
HETATM   11  C   UNL     1       6.059  30.604  57.246  1.00  0.00     0.017 A 
BRANCH   9  12
HETATM   12  S   UNL     1       7.260  32.506  60.608  1.00  0.00     0.243 S 
HETATM   13  O   UNL     1       8.609  33.021  60.622  1.00  0.00    -0.206 OA
HETATM   14  O   UNL     1       6.115  33.390  60.590  1.00  0.00    -0.206 OA
BRANCH  12  15
HETATM   15  N   UNL     1       7.061  31.541  62.012  1.00  0.00    -0.203 NA
HETATM   16  C   UNL     1       5.691  31.530  62.616  1.00  0.00     0.135 C 
HETATM   17  C   UNL     1       5.417  32.762  63.508  1.00  0.00     0.250 C 
HETATM   18  N   UNL     1       6.536  32.970  64.525  1.00  0.00    -0.073 N 
HETATM   19  H   UNL     1       6.533  32.159  65.157  1.00  0.00     0.279 HD
HETATM   20  C   UNL     1       6.297  34.190  65.370  1.00  0.00     0.269 C 
HETATM   21  C   UNL     1       7.907  33.018  63.853  1.00  0.00     0.250 C 
HETATM   22  C   UNL     1       8.129  31.732  63.042  1.00  0.00     0.135 C 
ENDBRANCH  12  15
ENDBRANCH   9  12
ENDBRANCH   5   6
BRANCH   1  23
HETATM   23  C   UNL     1       4.366  28.694  55.524  1.00  0.00     0.128 C 
HETATM   24  C   UNL     1       4.065  29.693  54.419  1.00  0.00     0.027 C 
ENDBRANCH   1  23
BRANCH   2  25
HETATM   25  S   UNL     1       5.064  26.268  53.501  1.00  0.00    -0.081 SA
BRANCH  25  26
HETATM   26  C   UNL     1       6.139  25.981  52.067  1.00  0.00     0.185 C 
BRANCH  26  27
HETATM   27  C   UNL     1       7.121  24.847  52.323  1.00  0.00     0.231 C 
HETATM   28  N   UNL     1       6.658  23.935  53.257  1.00  0.00    -0.327 N 
HETATM   29  H   UNL     1       5.662  23.984  53.468  1.00  0.00     0.169 HD
HETATM   30  O   UNL     1       8.202  24.803  51.741  1.00  0.00    -0.272 OA
BRANCH  28  31
HETATM   31  C   UNL     1       7.353  22.860  53.841  1.00  0.00     0.034 A 
HETATM   32  C   UNL     1       7.576  22.927  55.224  1.00  0.00     0.032 A 
HETATM   33  C   UNL     1       8.293  21.923  55.883  1.00  0.00     0.039 A 
HETATM   34  C   UNL     1       8.782  20.848  55.153  1.00  0.00     0.065 A 
HETATM   35  C   UNL     1       8.561  20.760  53.784  1.00  0.00     0.039 A 
HETATM   36  C   UNL     1       7.850  21.768  53.127  1.00  0.00     0.032 A 
BRANCH  34  37
HETATM   37  O   UNL     1       9.494  19.850  55.749  1.00  0.00    -0.361 OA
HETATM   38  H   UNL     1       9.584  20.052  56.694  1.00  0.00     0.217 HD
ENDBRANCH  34  37
ENDBRANCH  28  31
ENDBRANCH  26  27
ENDBRANCH  25  26
ENDBRANCH   2  25
TORSDOF 9
ENDMDL
MODEL 8
REMARK VINA RESULT:      -9.5      5.538      9.370
REMARK  9 active torsions:
REMARK  status: ('A' for Active; 'I' for Inactive)
REMARK    1  A    between atoms: C_2  and  N_3 
REMARK    2  A    between atoms: C_4  and  S_5 
REMARK    3  A    between atoms: S_5  and  C_6 
REMARK    4  A    between atoms: C_6  and  C_7 
REMARK       I    between atoms: C_7  and  N_8 
REMARK    5  A    between atoms: N_8  and  C_9 
REMARK    6  A    between atoms: C_12  and  O_13 
REMARK    7  A    between atoms: C_19  and  C_20 
REMARK    8  A    between atoms: C_23  and  S_24 
REMARK    9  A    between atoms: S_24  and  N_25 
ROOT
HETATM    1  N   UNL     1       6.353  28.325  55.407  1.00  0.00    -0.308 N 
HETATM    2  C   UNL     1       6.551  28.156  56.753  1.00  0.00     0.192 A 
HETATM    3  N   UNL     1       5.523  28.625  57.418  1.00  0.00    -0.122 NA
HETATM    4  N   UNL     1       4.604  29.066  56.505  1.00  0.00    -0.128 NA
HETATM    5  C   UNL     1       5.087  28.867  55.289  1.00  0.00     0.164 A 
ENDROOT
BRANCH   5   6
HETATM    6  C   UNL     1       4.391  29.239  54.058  1.00  0.00     0.012 A 
HETATM    7  C   UNL     1       3.602  28.280  53.405  1.00  0.00     0.017 A 
HETATM    8  C   UNL     1       2.936  28.588  52.218  1.00  0.00     0.026 A 
HETATM    9  C   UNL     1       3.074  29.864  51.666  1.00  0.00     0.074 A 
HETATM   10  C   UNL     1       3.872  30.827  52.288  1.00  0.00     0.026 A 
HETATM   11  C   UNL     1       4.532  30.508  53.480  1.00  0.00     0.017 A 
BRANCH   9  12
HETATM   12  S   UNL     1       2.242  30.250  50.155  1.00  0.00     0.243 S 
HETATM   13  O   UNL     1       1.212  29.261  49.944  1.00  0.00    -0.206 OA
HETATM   14  O   UNL     1       1.948  31.666  50.117  1.00  0.00    -0.206 OA
BRANCH  12  15
HETATM   15  N   UNL     1       3.444  30.008  48.955  1.00  0.00    -0.203 NA
HETATM   16  C   UNL     1       2.975  30.050  47.534  1.00  0.00     0.135 C 
HETATM   17  C   UNL     1       2.340  28.720  47.069  1.00  0.00     0.250 C 
HETATM   18  N   UNL     1       3.249  27.533  47.382  1.00  0.00    -0.073 N 
HETATM   19  H   UNL     1       4.105  27.646  46.825  1.00  0.00     0.279 HD
HETATM   20  C   UNL     1       2.621  26.231  46.969  1.00  0.00     0.269 C 
HETATM   21  C   UNL     1       3.662  27.512  48.853  1.00  0.00     0.250 C 
HETATM   22  C   UNL     1       4.342  28.840  49.217  1.00  0.00     0.135 C 
ENDBRANCH  12  15
ENDBRANCH   9  12
ENDBRANCH   5   6
BRANCH   1  23
HETATM   23  C   UNL     1       7.331  28.139  54.353  1.00  0.00     0.128 C 
HETATM   24  C   UNL     1       7.141  26.858  53.556  1.00  0.00     0.027 C 
ENDBRANCH   1  23
BRANCH   2  25
HETATM   25  S   UNL     1       7.956  27.429  57.446  1.00  0.00    -0.081 SA
BRANCH  25  26
HETATM   26  C   UNL     1       7.369  25.745  57.779  1.00  0.00     0.185 C 
BRANCH  26  27
HETATM   27  C   UNL     1       8.095  24.720  56.919  1.00  0.00     0.231 C 
HETATM   28  N   UNL     1       7.255  24.074  56.027  1.00  0.00    -0.327 N 
HETATM   29  H   UNL     1       6.345  24.511  55.879  1.00  0.00     0.169 HD
HETATM   30  O   UNL     1       9.300  24.521  57.053  1.00  0.00    -0.272 OA
BRANCH  28  31
HETATM   31  C   UNL     1       7.547  22.978  55.195  1.00  0.00     0.034 A 
HETATM   32  C   UNL     1       7.662  23.239  53.822  1.00  0.00     0.032 A 
HETATM   33  C   UNL     1       7.910  22.205  52.915  1.00  0.00     0.039 A 
HETATM   34  C   UNL     1       8.049  20.906  53.387  1.00  0.00     0.065 A 
HETATM   35  C   UNL     1       7.947  20.631  54.746  1.00  0.00     0.039 A 
HETATM   36  C   UNL     1       7.692  21.666  55.649  1.00  0.00     0.032 A 
BRANCH  34  37
HETATM   37  O   UNL     1       8.282  19.863  52.542  1.00  0.00    -0.361 OA
HETATM   38  H   UNL     1       9.136  19.463  52.769  1.00  0.00     0.217 HD
ENDBRANCH  34  37
ENDBRANCH  28  31
ENDBRANCH  26  27
ENDBRANCH  25  26
ENDBRANCH   2  25
TORSDOF 9
ENDMDL
MODEL 9
REMARK VINA RESULT:      -9.4      1.288      1.970
REMARK  9 active torsions:
REMARK  status: ('A' for Active; 'I' for Inactive)
REMARK    1  A    between atoms: C_2  and  N_3 
REMARK    2  A    between atoms: C_4  and  S_5 
REMARK    3  A    between atoms: S_5  and  C_6 
REMARK    4  A    between atoms: C_6  and  C_7 
REMARK       I    between atoms: C_7  and  N_8 
REMARK    5  A    between atoms: N_8  and  C_9 
REMARK    6  A    between atoms: C_12  and  O_13 
REMARK    7  A    between atoms: C_19  and  C_20 
REMARK    8  A    between atoms: C_23  and  S_24 
REMARK    9  A    between atoms: S_24  and  N_25 
ROOT
HETATM    1  N   UNL     1       6.412  29.695  56.070  1.00  0.00    -0.308 N 
HETATM    2  C   UNL     1       7.264  28.874  55.378  1.00  0.00     0.192 A 
HETATM    3  N   UNL     1       8.450  28.888  55.937  1.00  0.00    -0.122 NA
HETATM    4  N   UNL     1       8.378  29.688  57.045  1.00  0.00    -0.128 NA
HETATM    5  C   UNL     1       7.146  30.160  57.146  1.00  0.00     0.164 A 
ENDROOT
BRANCH   5   6
HETATM    6  C   UNL     1       6.699  31.073  58.197  1.00  0.00     0.012 A 
HETATM    7  C   UNL     1       5.483  31.755  58.035  1.00  0.00     0.017 A 
HETATM    8  C   UNL     1       5.030  32.650  59.006  1.00  0.00     0.026 A 
HETATM    9  C   UNL     1       5.809  32.880  60.143  1.00  0.00     0.074 A 
HETATM   10  C   UNL     1       7.032  32.229  60.312  1.00  0.00     0.026 A 
HETATM   11  C   UNL     1       7.475  31.332  59.335  1.00  0.00     0.017 A 
BRANCH   9  12
HETATM   12  S   UNL     1       5.241  34.025  61.365  1.00  0.00     0.243 S 
HETATM   13  O   UNL     1       6.375  34.431  62.161  1.00  0.00    -0.206 OA
HETATM   14  O   UNL     1       4.369  34.998  60.742  1.00  0.00    -0.206 OA
BRANCH  12  15
HETATM   15  N   UNL     1       4.218  33.079  62.365  1.00  0.00    -0.203 NA
HETATM   16  C   UNL     1       3.067  33.798  62.998  1.00  0.00     0.135 C 
HETATM   17  C   UNL     1       3.471  34.581  64.267  1.00  0.00     0.250 C 
HETATM   18  N   UNL     1       4.253  33.699  65.237  1.00  0.00    -0.073 N 
HETATM   19  H   UNL     1       3.620  32.954  65.556  1.00  0.00     0.279 HD
HETATM   20  C   UNL     1       4.684  34.464  66.457  1.00  0.00     0.269 C 
HETATM   21  C   UNL     1       5.441  33.025  64.553  1.00  0.00     0.250 C 
HETATM   22  C   UNL     1       4.949  32.216  63.344  1.00  0.00     0.135 C 
ENDBRANCH  12  15
ENDBRANCH   9  12
ENDBRANCH   5   6
BRANCH   1  23
HETATM   23  C   UNL     1       5.087  30.119  55.660  1.00  0.00     0.128 C 
HETATM   24  C   UNL     1       3.974  29.199  56.130  1.00  0.00     0.027 C 
ENDBRANCH   1  23
BRANCH   2  25
HETATM   25  S   UNL     1       6.818  27.964  53.980  1.00  0.00    -0.081 SA
BRANCH  25  26
HETATM   26  C   UNL     1       5.987  26.533  54.725  1.00  0.00     0.185 C 
BRANCH  26  27
HETATM   27  C   UNL     1       6.970  25.411  55.025  1.00  0.00     0.231 C 
HETATM   28  N   UNL     1       6.738  24.275  54.267  1.00  0.00    -0.327 N 
HETATM   29  H   UNL     1       6.129  24.399  53.459  1.00  0.00     0.169 HD
HETATM   30  O   UNL     1       7.851  25.550  55.870  1.00  0.00    -0.272 OA
BRANCH  28  31
HETATM   31  C   UNL     1       7.346  23.012  54.384  1.00  0.00     0.034 A 
HETATM   32  C   UNL     1       7.828  22.429  53.203  1.00  0.00     0.032 A 
HETATM   33  C   UNL     1       8.411  21.158  53.218  1.00  0.00     0.039 A 
HETATM   34  C   UNL     1       8.514  20.473  54.421  1.00  0.00     0.065 A 
HETATM   35  C   UNL     1       8.051  21.039  55.603  1.00  0.00     0.039 A 
HETATM   36  C   UNL     1       7.462  22.307  55.584  1.00  0.00     0.032 A 
BRANCH  34  37
HETATM   37  O   UNL     1       9.065  19.228  54.485  1.00  0.00    -0.361 OA
HETATM   38  H   UNL     1       9.989  19.280  54.193  1.00  0.00     0.217 HD
ENDBRANCH  34  37
ENDBRANCH  28  31
ENDBRANCH  26  27
ENDBRANCH  25  26
ENDBRANCH   2  25
TORSDOF 9
ENDMDL
MODEL 10
REMARK VINA RESULT:      -9.2      2.731      3.737
REMARK  9 active torsions:
REMARK  status: ('A' for Active; 'I' for Inactive)
REMARK    1  A    between atoms: C_2  and  N_3 
REMARK    2  A    between atoms: C_4  and  S_5 
REMARK    3  A    between atoms: S_5  and  C_6 
REMARK    4  A    between atoms: C_6  and  C_7 
REMARK       I    between atoms: C_7  and  N_8 
REMARK    5  A    between atoms: N_8  and  C_9 
REMARK    6  A    between atoms: C_12  and  O_13 
REMARK    7  A    between atoms: C_19  and  C_20 
REMARK    8  A    between atoms: C_23  and  S_24 
REMARK    9  A    between atoms: S_24  and  N_25 
ROOT
HETATM    1  N   UNL     1       5.098  27.385  54.302  1.00  0.00    -0.308 N 
HETATM    2  C   UNL     1       5.089  26.044  54.022  1.00  0.00     0.192 A 
HETATM    3  N   UNL     1       5.427  25.362  55.090  1.00  0.00    -0.122 NA
HETATM    4  N   UNL     1       5.616  26.255  56.110  1.00  0.00    -0.128 NA
HETATM    5  C   UNL     1       5.396  27.476  55.650  1.00  0.00     0.164 A 
ENDROOT
BRANCH   5   6
HETATM    6  C   UNL     1       5.527  28.691  56.451  1.00  0.00     0.012 A 
HETATM    7  C   UNL     1       4.369  29.394  56.816  1.00  0.00     0.017 A 
HETATM    8  C   UNL     1       4.451  30.570  57.565  1.00  0.00     0.026 A 
HETATM    9  C   UNL     1       5.705  31.059  57.938  1.00  0.00     0.074 A 
HETATM   10  C   UNL     1       6.871  30.387  57.566  1.00  0.00     0.026 A 
HETATM   11  C   UNL     1       6.777  29.208  56.819  1.00  0.00     0.017 A 
BRANCH   9  12
HETATM   12  S   UNL     1       5.809  32.555  58.873  1.00  0.00     0.243 S 
HETATM   13  O   UNL     1       7.129  32.633  59.453  1.00  0.00    -0.206 OA
HETATM   14  O   UNL     1       5.261  33.645  58.095  1.00  0.00    -0.206 OA
BRANCH  12  15
HETATM   15  N   UNL     1       4.695  32.313  60.155  1.00  0.00    -0.203 NA
HETATM   16  C   UNL     1       3.380  33.018  60.028  1.00  0.00     0.135 C 
HETATM   17  C   UNL     1       3.448  34.501  60.458  1.00  0.00     0.250 C 
HETATM   18  N   UNL     1       4.095  34.650  61.832  1.00  0.00    -0.073 N 
HETATM   19  H   UNL     1       3.481  34.187  62.514  1.00  0.00     0.279 HD
HETATM   20  C   UNL     1       4.202  36.092  62.241  1.00  0.00     0.269 C 
HETATM   21  C   UNL     1       5.453  33.952  61.895  1.00  0.00     0.250 C 
HETATM   22  C   UNL     1       5.289  32.471  61.518  1.00  0.00     0.135 C 
ENDBRANCH  12  15
ENDBRANCH   9  12
ENDBRANCH   5   6
BRANCH   1  23
HETATM   23  C   UNL     1       4.993  28.475  53.351  1.00  0.00     0.128 C 
HETATM   24  C   UNL     1       3.574  28.980  53.149  1.00  0.00     0.027 C 
ENDBRANCH   1  23
BRANCH   2  25
HETATM   25  S   UNL     1       4.687  25.374  52.482  1.00  0.00    -0.081 SA
BRANCH  25  26
HETATM   26  C   UNL     1       6.272  25.492  51.606  1.00  0.00     0.185 C 
BRANCH  26  27
HETATM   27  C   UNL     1       7.366  24.718  52.327  1.00  0.00     0.231 C 
HETATM   28  N   UNL     1       6.952  23.466  52.750  1.00  0.00    -0.327 N 
HETATM   29  H   UNL     1       6.087  23.121  52.333  1.00  0.00     0.169 HD
HETATM   30  O   UNL     1       8.480  25.208  52.497  1.00  0.00    -0.272 OA
BRANCH  28  31
HETATM   31  C   UNL     1       7.640  22.551  53.568  1.00  0.00     0.034 A 
HETATM   32  C   UNL     1       8.067  23.018  54.820  1.00  0.00     0.032 A 
HETATM   33  C   UNL     1       8.794  22.192  55.682  1.00  0.00     0.039 A 
HETATM   34  C   UNL     1       9.089  20.893  55.289  1.00  0.00     0.065 A 
HETATM   35  C   UNL     1       8.666  20.411  54.057  1.00  0.00     0.039 A 
HETATM   36  C   UNL     1       7.945  21.242  53.193  1.00  0.00     0.032 A 
BRANCH  34  37
HETATM   37  O   UNL     1       9.803  20.053  56.090  1.00  0.00    -0.361 OA
HETATM   38  H   UNL     1       9.875  20.449  56.973  1.00  0.00     0.217 HD
ENDBRANCH  34  37
ENDBRANCH  28  31
ENDBRANCH  26  27
ENDBRANCH  25  26
ENDBRANCH   2  25
TORSDOF 9
ENDMDL
