MODEL 1
REMARK VINA RESULT:     -13.3      0.000      0.000
REMARK  8 active torsions:
REMARK  status: ('A' for Active; 'I' for Inactive)
REMARK    1  A    between atoms: C_4  and  N_5 
REMARK       I    between atoms: N_5  and  C_6 
REMARK    2  A    between atoms: C_6  and  C_7 
REMARK    3  A    between atoms: C_7  and  N_8 
REMARK    4  A    between atoms: N_11  and  C_12 
REMARK    5  A    between atoms: C_12  and  C_13 
REMARK    6  A    between atoms: C_16  and  C_17 
REMARK       I    between atoms: C_17  and  N_18 
REMARK    7  A    between atoms: N_18  and  C_19 
REMARK    8  A    between atoms: C_19  and  C_20 
ROOT
HETATM    1  N   UNL     1       7.020  25.533  53.359  1.00  0.00    -0.290 N 
HETATM    2  C   UNL     1       6.243  26.334  54.203  1.00  0.00     0.332 C 
HETATM    3  O   UNL     1       5.527  27.222  53.739  1.00  0.00    -0.246 OA
HETATM    4  N   UNL     1       6.336  26.079  55.568  1.00  0.00    -0.261 N 
HETATM    5  C   UNL     1       6.849  24.910  56.101  1.00  0.00     0.264 C 
HETATM    6  O   UNL     1       6.922  24.670  57.303  1.00  0.00    -0.267 OA
HETATM    7  C   UNL     1       7.271  23.883  55.139  1.00  0.00     0.059 A 
HETATM    8  C   UNL     1       7.363  24.208  53.785  1.00  0.00     0.055 A 
HETATM    9  C   UNL     1       7.513  22.578  55.604  1.00  0.00     0.019 A 
HETATM   10  C   UNL     1       7.842  21.570  54.706  1.00  0.00     0.001 A 
HETATM   11  C   UNL     1       7.947  21.872  53.354  1.00  0.00     0.002 A 
HETATM   12  C   UNL     1       7.720  23.179  52.898  1.00  0.00     0.031 A 
ENDROOT
BRANCH   4  13
HETATM   13  C   UNL     1       5.643  26.978  56.489  1.00  0.00     0.175 C 
BRANCH  13  14
HETATM   14  C   UNL     1       6.511  28.123  56.957  1.00  0.00    -0.040 A 
HETATM   15  C   UNL     1       7.898  27.933  57.067  1.00  0.00     0.010 A 
HETATM   16  C   UNL     1       8.692  28.896  57.676  1.00  0.00     0.017 A 
HETATM   17  C   UNL     1       8.104  30.060  58.179  1.00  0.00     0.032 A 
HETATM   18  C   UNL     1       6.741  30.307  57.983  1.00  0.00     0.017 A 
HETATM   19  C   UNL     1       5.945  29.338  57.373  1.00  0.00     0.010 A 
BRANCH  17  20
HETATM   20  C   UNL     1       8.890  30.987  59.030  1.00  0.00     0.251 C 
HETATM   21  N   UNL     1       8.821  30.702  60.378  1.00  0.00    -0.353 N 
HETATM   22  H   UNL     1       8.151  30.008  60.679  1.00  0.00     0.163 HD
HETATM   23  O   UNL     1       9.463  31.952  58.543  1.00  0.00    -0.268 OA
BRANCH  21  24
HETATM   24  C   UNL     1       9.226  31.665  61.372  1.00  0.00     0.161 C 
BRANCH  24  25
HETATM   25  C   UNL     1       8.042  32.171  62.199  1.00  0.00    -0.038 A 
HETATM   26  C   UNL     1       8.303  32.745  63.499  1.00  0.00     0.048 A 
HETATM   27  C   UNL     1       7.121  33.081  64.105  1.00  0.00     0.105 A 
HETATM   28  C   UNL     1       5.555  32.820  63.267  1.00  0.00     0.105 A 
HETATM   29  O   UNL     1       6.645  33.761  65.942  1.00  0.00    -0.323 OA
HETATM   30  O   UNL     1       4.161  33.234  64.313  1.00  0.00    -0.323 OA
HETATM   31  C   UNL     1       5.402  32.304  62.033  1.00  0.00     0.040 A 
HETATM   32  C   UNL     1       4.706  33.844  66.023  1.00  0.00     0.352 A 
HETATM   33  C   UNL     1       6.684  31.991  61.529  1.00  0.00     0.012 A 
ENDBRANCH  24  25
ENDBRANCH  21  24
ENDBRANCH  17  20
ENDBRANCH  13  14
ENDBRANCH   4  13
BRANCH   1  34
HETATM   34  C   UNL     1       6.916  25.846  51.929  1.00  0.00     0.237 C 
BRANCH  34  35
HETATM   35  C   UNL     1       5.526  26.040  51.280  1.00  0.00     0.240 C 
HETATM   36  N   UNL     1       5.406  27.143  50.452  1.00  0.00    -0.326 N 
HETATM   37  H   UNL     1       6.108  27.868  50.532  1.00  0.00     0.169 HD
HETATM   38  O   UNL     1       4.709  25.122  51.364  1.00  0.00    -0.271 OA
BRANCH  36  39
HETATM   39  C   UNL     1       4.447  27.318  49.412  1.00  0.00     0.035 A 
HETATM   40  C   UNL     1       3.334  28.643  49.451  1.00  0.00     0.036 A 
HETATM   41  C   UNL     1       2.020  28.861  48.396  1.00  0.00    -0.060 A 
HETATM   42  C   UNL     1       1.060  29.986  48.567  1.00  0.00     0.048 C 
HETATM   43  C   UNL     1       1.764  27.650  47.184  1.00  0.00     0.007 A 
HETATM   44  C   UNL     1       3.096  26.077  47.103  1.00  0.00     0.003 A 
HETATM   45  C   UNL     1       4.390  26.056  48.270  1.00  0.00     0.029 A 
ENDBRANCH  36  39
ENDBRANCH  34  35
ENDBRANCH   1  34
TORSDOF 8
ENDMDL
MODEL 2
REMARK VINA RESULT:     -12.2      3.246     10.193
REMARK  8 active torsions:
REMARK  status: ('A' for Active; 'I' for Inactive)
REMARK    1  A    between atoms: C_4  and  N_5 
REMARK       I    between atoms: N_5  and  C_6 
REMARK    2  A    between atoms: C_6  and  C_7 
REMARK    3  A    between atoms: C_7  and  N_8 
REMARK    4  A    between atoms: N_11  and  C_12 
REMARK    5  A    between atoms: C_12  and  C_13 
REMARK    6  A    between atoms: C_16  and  C_17 
REMARK       I    between atoms: C_17  and  N_18 
REMARK    7  A    between atoms: N_18  and  C_19 
REMARK    8  A    between atoms: C_19  and  C_20 
ROOT
HETATM    1  N   UNL     1       6.222  32.348  60.389  1.00  0.00    -0.290 N 
HETATM    2  C   UNL     1       7.381  32.120  59.640  1.00  0.00     0.332 C 
HETATM    3  O   UNL     1       7.422  32.417  58.446  1.00  0.00    -0.246 OA
HETATM    4  N   UNL     1       8.454  31.540  60.309  1.00  0.00    -0.261 N 
HETATM    5  C   UNL     1       8.573  31.498  61.687  1.00  0.00     0.264 C 
HETATM    6  O   UNL     1       9.523  31.001  62.285  1.00  0.00    -0.267 OA
HETATM    7  C   UNL     1       7.507  32.153  62.455  1.00  0.00     0.059 A 
HETATM    8  C   UNL     1       6.341  32.558  61.802  1.00  0.00     0.055 A 
HETATM    9  C   UNL     1       7.715  32.409  63.821  1.00  0.00     0.019 A 
HETATM   10  C   UNL     1       6.753  33.091  64.556  1.00  0.00     0.001 A 
HETATM   11  C   UNL     1       5.581  33.498  63.929  1.00  0.00     0.002 A 
HETATM   12  C   UNL     1       5.373  33.226  62.569  1.00  0.00     0.031 A 
ENDROOT
BRANCH   4  13
HETATM   13  C   UNL     1       9.634  31.166  59.531  1.00  0.00     0.175 C 
BRANCH  13  14
HETATM   14  C   UNL     1       9.315  30.216  58.399  1.00  0.00    -0.040 A 
HETATM   15  C   UNL     1      10.058  30.290  57.210  1.00  0.00     0.010 A 
HETATM   16  C   UNL     1       9.663  29.570  56.090  1.00  0.00     0.017 A 
HETATM   17  C   UNL     1       8.520  28.767  56.151  1.00  0.00     0.032 A 
HETATM   18  C   UNL     1       7.832  28.605  57.358  1.00  0.00     0.017 A 
HETATM   19  C   UNL     1       8.229  29.331  58.482  1.00  0.00     0.010 A 
BRANCH  17  20
HETATM   20  C   UNL     1       7.955  28.177  54.914  1.00  0.00     0.251 C 
HETATM   21  N   UNL     1       7.580  26.855  55.046  1.00  0.00    -0.353 N 
HETATM   22  H   UNL     1       7.846  26.372  55.893  1.00  0.00     0.163 HD
HETATM   23  O   UNL     1       7.922  28.817  53.872  1.00  0.00    -0.268 OA
BRANCH  21  24
HETATM   24  C   UNL     1       7.335  26.024  53.893  1.00  0.00     0.161 C 
BRANCH  24  25
HETATM   25  C   UNL     1       7.566  24.541  54.193  1.00  0.00    -0.038 A 
HETATM   26  C   UNL     1       7.650  24.120  55.572  1.00  0.00     0.048 A 
HETATM   27  C   UNL     1       7.918  22.778  55.634  1.00  0.00     0.105 A 
HETATM   28  C   UNL     1       8.076  21.806  54.133  1.00  0.00     0.105 A 
HETATM   29  O   UNL     1       8.334  21.513  57.146  1.00  0.00    -0.323 OA
HETATM   30  O   UNL     1       8.537  20.110  54.483  1.00  0.00    -0.323 OA
HETATM   31  C   UNL     1       7.950  22.275  52.878  1.00  0.00     0.040 A 
HETATM   32  C   UNL     1       8.728  19.789  56.341  1.00  0.00     0.352 A 
HETATM   33  C   UNL     1       7.691  23.661  52.953  1.00  0.00     0.012 A 
ENDBRANCH  24  25
ENDBRANCH  21  24
ENDBRANCH  17  20
ENDBRANCH  13  14
ENDBRANCH   4  13
BRANCH   1  34
HETATM   34  C   UNL     1       5.101  32.937  59.646  1.00  0.00     0.237 C 
BRANCH  34  35
HETATM   35  C   UNL     1       4.247  32.052  58.709  1.00  0.00     0.240 C 
HETATM   36  N   UNL     1       4.753  31.880  57.432  1.00  0.00    -0.326 N 
HETATM   37  H   UNL     1       5.466  32.526  57.119  1.00  0.00     0.169 HD
HETATM   38  O   UNL     1       3.319  31.408  59.199  1.00  0.00    -0.271 OA
BRANCH  36  39
HETATM   39  C   UNL     1       4.448  30.810  56.541  1.00  0.00     0.035 A 
HETATM   40  C   UNL     1       4.596  29.164  57.055  1.00  0.00     0.036 A 
HETATM   41  C   UNL     1       4.459  27.799  56.052  1.00  0.00    -0.060 A 
HETATM   42  C   UNL     1       4.696  26.423  56.569  1.00  0.00     0.048 C 
HETATM   43  C   UNL     1       4.158  28.076  54.369  1.00  0.00     0.007 A 
HETATM   44  C   UNL     1       3.950  30.030  53.740  1.00  0.00     0.003 A 
HETATM   45  C   UNL     1       4.107  31.284  54.941  1.00  0.00     0.029 A 
ENDBRANCH  36  39
ENDBRANCH  34  35
ENDBRANCH   1  34
TORSDOF 8
ENDMDL
MODEL 3
REMARK VINA RESULT:     -12.0      3.576     11.892
REMARK  8 active torsions:
REMARK  status: ('A' for Active; 'I' for Inactive)
REMARK    1  A    between atoms: C_4  and  N_5 
REMARK       I    between atoms: N_5  and  C_6 
REMARK    2  A    between atoms: C_6  and  C_7 
REMARK    3  A    between atoms: C_7  and  N_8 
REMARK    4  A    between atoms: N_11  and  C_12 
REMARK    5  A    between atoms: C_12  and  C_13 
REMARK    6  A    between atoms: C_16  and  C_17 
REMARK       I    between atoms: C_17  and  N_18 
REMARK    7  A    between atoms: N_18  and  C_19 
REMARK    8  A    between atoms: C_19  and  C_20 
ROOT
HETATM    1  N   UNL     1       6.028  32.055  60.470  1.00  0.00    -0.290 N 
HETATM    2  C   UNL     1       7.062  31.900  59.541  1.00  0.00     0.332 C 
HETATM    3  O   UNL     1       6.868  32.126  58.346  1.00  0.00    -0.246 OA
HETATM    4  N   UNL     1       8.290  31.475  60.037  1.00  0.00    -0.261 N 
HETATM    5  C   UNL     1       8.644  31.532  61.373  1.00  0.00     0.264 C 
HETATM    6  O   UNL     1       9.731  31.171  61.817  1.00  0.00    -0.267 OA
HETATM    7  C   UNL     1       7.656  32.120  62.287  1.00  0.00     0.059 A 
HETATM    8  C   UNL     1       6.360  32.363  61.830  1.00  0.00     0.055 A 
HETATM    9  C   UNL     1       8.062  32.479  63.583  1.00  0.00     0.019 A 
HETATM   10  C   UNL     1       7.168  33.104  64.444  1.00  0.00     0.001 A 
HETATM   11  C   UNL     1       5.870  33.350  64.014  1.00  0.00     0.002 A 
HETATM   12  C   UNL     1       5.466  32.975  62.724  1.00  0.00     0.031 A 
ENDROOT
BRANCH   4  13
HETATM   13  C   UNL     1       9.356  31.177  59.081  1.00  0.00     0.175 C 
BRANCH  13  14
HETATM   14  C   UNL     1       8.961  30.124  58.071  1.00  0.00    -0.040 A 
HETATM   15  C   UNL     1       9.551  30.140  56.797  1.00  0.00     0.010 A 
HETATM   16  C   UNL     1       9.068  29.314  55.790  1.00  0.00     0.017 A 
HETATM   17  C   UNL     1       7.992  28.462  56.051  1.00  0.00     0.032 A 
HETATM   18  C   UNL     1       7.464  28.363  57.342  1.00  0.00     0.017 A 
HETATM   19  C   UNL     1       7.949  29.195  58.352  1.00  0.00     0.010 A 
BRANCH  17  20
HETATM   20  C   UNL     1       7.319  27.746  54.940  1.00  0.00     0.251 C 
HETATM   21  N   UNL     1       6.250  26.971  55.341  1.00  0.00    -0.353 N 
HETATM   22  H   UNL     1       6.109  26.839  56.332  1.00  0.00     0.163 HD
HETATM   23  O   UNL     1       7.759  27.802  53.800  1.00  0.00    -0.268 OA
BRANCH  21  24
HETATM   24  C   UNL     1       5.694  25.955  54.481  1.00  0.00     0.161 C 
BRANCH  24  25
HETATM   25  C   UNL     1       6.467  24.637  54.573  1.00  0.00    -0.038 A 
HETATM   26  C   UNL     1       6.743  24.089  55.881  1.00  0.00     0.048 A 
HETATM   27  C   UNL     1       7.490  22.947  55.758  1.00  0.00     0.105 A 
HETATM   28  C   UNL     1       7.952  22.324  54.139  1.00  0.00     0.105 A 
HETATM   29  O   UNL     1       8.391  21.728  57.086  1.00  0.00    -0.323 OA
HETATM   30  O   UNL     1       9.018  20.889  54.256  1.00  0.00    -0.323 OA
HETATM   31  C   UNL     1       7.623  22.884  52.960  1.00  0.00     0.040 A 
HETATM   32  C   UNL     1       9.371  20.404  56.054  1.00  0.00     0.352 A 
HETATM   33  C   UNL     1       6.871  24.050  53.225  1.00  0.00     0.012 A 
ENDBRANCH  24  25
ENDBRANCH  21  24
ENDBRANCH  17  20
ENDBRANCH  13  14
ENDBRANCH   4  13
BRANCH   1  34
HETATM   34  C   UNL     1       4.739  32.480  59.909  1.00  0.00     0.237 C 
BRANCH  34  35
HETATM   35  C   UNL     1       4.479  33.977  59.623  1.00  0.00     0.240 C 
HETATM   36  N   UNL     1       4.014  34.715  60.699  1.00  0.00    -0.326 N 
HETATM   37  H   UNL     1       3.634  34.206  61.487  1.00  0.00     0.169 HD
HETATM   38  O   UNL     1       4.885  34.448  58.560  1.00  0.00    -0.271 OA
BRANCH  36  39
HETATM   39  C   UNL     1       4.116  36.127  60.860  1.00  0.00     0.035 A 
HETATM   40  C   UNL     1       5.324  36.813  61.892  1.00  0.00     0.036 A 
HETATM   41  C   UNL     1       5.435  38.452  62.330  1.00  0.00    -0.060 A 
HETATM   42  C   UNL     1       6.456  38.933  63.301  1.00  0.00     0.048 C 
HETATM   43  C   UNL     1       4.231  39.527  61.701  1.00  0.00     0.007 A 
HETATM   44  C   UNL     1       2.799  38.733  60.446  1.00  0.00     0.003 A 
HETATM   45  C   UNL     1       2.880  37.025  60.108  1.00  0.00     0.029 A 
ENDBRANCH  36  39
ENDBRANCH  34  35
ENDBRANCH   1  34
TORSDOF 8
ENDMDL
MODEL 4
REMARK VINA RESULT:     -12.0      2.152      2.735
REMARK  8 active torsions:
REMARK  status: ('A' for Active; 'I' for Inactive)
REMARK    1  A    between atoms: C_4  and  N_5 
REMARK       I    between atoms: N_5  and  C_6 
REMARK    2  A    between atoms: C_6  and  C_7 
REMARK    3  A    between atoms: C_7  and  N_8 
REMARK    4  A    between atoms: N_11  and  C_12 
REMARK    5  A    between atoms: C_12  and  C_13 
REMARK    6  A    between atoms: C_16  and  C_17 
REMARK       I    between atoms: C_17  and  N_18 
REMARK    7  A    between atoms: N_18  and  C_19 
REMARK    8  A    between atoms: C_19  and  C_20 
ROOT
HETATM    1  N   UNL     1       5.071  28.878  52.846  1.00  0.00    -0.290 N 
HETATM    2  C   UNL     1       4.583  29.349  54.070  1.00  0.00     0.332 C 
HETATM    3  O   UNL     1       4.028  30.445  54.142  1.00  0.00    -0.246 OA
HETATM    4  N   UNL     1       4.770  28.526  55.175  1.00  0.00    -0.261 N 
HETATM    5  C   UNL     1       5.076  27.179  55.092  1.00  0.00     0.264 C 
HETATM    6  O   UNL     1       5.229  26.442  56.062  1.00  0.00    -0.267 OA
HETATM    7  C   UNL     1       5.157  26.610  53.741  1.00  0.00     0.059 A 
HETATM    8  C   UNL     1       5.166  27.464  52.636  1.00  0.00     0.055 A 
HETATM    9  C   UNL     1       5.163  25.212  53.593  1.00  0.00     0.019 A 
HETATM   10  C   UNL     1       5.166  24.646  52.324  1.00  0.00     0.001 A 
HETATM   11  C   UNL     1       5.183  25.476  51.210  1.00  0.00     0.002 A 
HETATM   12  C   UNL     1       5.192  26.870  51.364  1.00  0.00     0.031 A 
ENDROOT
BRANCH   4  13
HETATM   13  C   UNL     1       4.393  29.039  56.492  1.00  0.00     0.175 C 
BRANCH  13  14
HETATM   14  C   UNL     1       5.502  29.821  57.157  1.00  0.00    -0.040 A 
HETATM   15  C   UNL     1       6.698  29.167  57.492  1.00  0.00     0.010 A 
HETATM   16  C   UNL     1       7.652  29.805  58.275  1.00  0.00     0.017 A 
HETATM   17  C   UNL     1       7.416  31.107  58.728  1.00  0.00     0.032 A 
HETATM   18  C   UNL     1       6.277  31.804  58.315  1.00  0.00     0.017 A 
HETATM   19  C   UNL     1       5.319  31.161  57.531  1.00  0.00     0.010 A 
BRANCH  17  20
HETATM   20  C   UNL     1       8.307  31.716  59.744  1.00  0.00     0.251 C 
HETATM   21  N   UNL     1       8.183  31.160  61.002  1.00  0.00    -0.353 N 
HETATM   22  H   UNL     1       7.424  30.512  61.157  1.00  0.00     0.163 HD
HETATM   23  O   UNL     1       9.010  32.679  59.467  1.00  0.00    -0.268 OA
BRANCH  21  24
HETATM   24  C   UNL     1       8.700  31.825  62.172  1.00  0.00     0.161 C 
BRANCH  24  25
HETATM   25  C   UNL     1       7.583  32.404  63.044  1.00  0.00    -0.038 A 
HETATM   26  C   UNL     1       7.942  33.062  64.279  1.00  0.00     0.048 A 
HETATM   27  C   UNL     1       6.810  33.457  64.942  1.00  0.00     0.105 A 
HETATM   28  C   UNL     1       5.186  33.164  64.236  1.00  0.00     0.105 A 
HETATM   29  O   UNL     1       6.475  34.267  66.757  1.00  0.00    -0.323 OA
HETATM   30  O   UNL     1       3.875  33.670  65.348  1.00  0.00    -0.323 OA
HETATM   31  C   UNL     1       4.940  32.567  63.055  1.00  0.00     0.040 A 
HETATM   32  C   UNL     1       4.546  34.386  66.969  1.00  0.00     0.352 A 
HETATM   33  C   UNL     1       6.179  32.201  62.485  1.00  0.00     0.012 A 
ENDBRANCH  24  25
ENDBRANCH  21  24
ENDBRANCH  17  20
ENDBRANCH  13  14
ENDBRANCH   4  13
BRANCH   1  34
HETATM   34  C   UNL     1       4.879  29.783  51.706  1.00  0.00     0.237 C 
BRANCH  34  35
HETATM   35  C   UNL     1       3.623  29.645  50.814  1.00  0.00     0.240 C 
HETATM   36  N   UNL     1       3.872  29.482  49.461  1.00  0.00    -0.326 N 
HETATM   37  H   UNL     1       4.794  29.723  49.121  1.00  0.00     0.169 HD
HETATM   38  O   UNL     1       2.533  29.481  51.361  1.00  0.00    -0.271 OA
BRANCH  36  39
HETATM   39  C   UNL     1       2.988  28.901  48.505  1.00  0.00     0.035 A 
HETATM   40  C   UNL     1       1.752  29.851  47.754  1.00  0.00     0.036 A 
HETATM   41  C   UNL     1       0.514  29.251  46.756  1.00  0.00    -0.060 A 
HETATM   42  C   UNL     1      -0.562  30.135  46.231  1.00  0.00     0.048 C 
HETATM   43  C   UNL     1       0.477  27.542  46.475  1.00  0.00     0.007 A 
HETATM   44  C   UNL     1       1.958  26.395  47.339  1.00  0.00     0.003 A 
HETATM   45  C   UNL     1       3.148  27.216  48.312  1.00  0.00     0.029 A 
ENDBRANCH  36  39
ENDBRANCH  34  35
ENDBRANCH   1  34
TORSDOF 8
ENDMDL
MODEL 5
REMARK VINA RESULT:     -12.0      3.336     10.834
REMARK  8 active torsions:
REMARK  status: ('A' for Active; 'I' for Inactive)
REMARK    1  A    between atoms: C_4  and  N_5 
REMARK       I    between atoms: N_5  and  C_6 
REMARK    2  A    between atoms: C_6  and  C_7 
REMARK    3  A    between atoms: C_7  and  N_8 
REMARK    4  A    between atoms: N_11  and  C_12 
REMARK    5  A    between atoms: C_12  and  C_13 
REMARK    6  A    between atoms: C_16  and  C_17 
REMARK       I    between atoms: C_17  and  N_18 
REMARK    7  A    between atoms: N_18  and  C_19 
REMARK    8  A    between atoms: C_19  and  C_20 
ROOT
HETATM    1  N   UNL     1       5.319  33.469  61.072  1.00  0.00    -0.290 N 
HETATM    2  C   UNL     1       6.077  33.118  59.950  1.00  0.00     0.332 C 
HETATM    3  O   UNL     1       5.807  33.582  58.842  1.00  0.00    -0.246 OA
HETATM    4  N   UNL     1       7.122  32.224  60.156  1.00  0.00    -0.261 N 
HETATM    5  C   UNL     1       7.663  31.942  61.398  1.00  0.00     0.264 C 
HETATM    6  O   UNL     1       8.595  31.165  61.588  1.00  0.00    -0.267 OA
HETATM    7  C   UNL     1       7.104  32.682  62.537  1.00  0.00     0.059 A 
HETATM    8  C   UNL     1       5.935  33.425  62.365  1.00  0.00     0.055 A 
HETATM    9  C   UNL     1       7.799  32.670  63.759  1.00  0.00     0.019 A 
HETATM   10  C   UNL     1       7.332  33.420  64.832  1.00  0.00     0.001 A 
HETATM   11  C   UNL     1       6.166  34.161  64.687  1.00  0.00     0.002 A 
HETATM   12  C   UNL     1       5.469  34.157  63.469  1.00  0.00     0.031 A 
ENDROOT
BRANCH   4  13
HETATM   13  C   UNL     1       7.853  31.731  58.989  1.00  0.00     0.175 C 
BRANCH  13  14
HETATM   14  C   UNL     1       7.266  30.459  58.423  1.00  0.00    -0.040 A 
HETATM   15  C   UNL     1       8.029  29.280  58.448  1.00  0.00     0.010 A 
HETATM   16  C   UNL     1       7.598  28.151  57.764  1.00  0.00     0.017 A 
HETATM   17  C   UNL     1       6.397  28.191  57.050  1.00  0.00     0.032 A 
HETATM   18  C   UNL     1       5.580  29.324  57.102  1.00  0.00     0.017 A 
HETATM   19  C   UNL     1       6.015  30.458  57.788  1.00  0.00     0.010 A 
BRANCH  17  20
HETATM   20  C   UNL     1       6.037  27.082  56.133  1.00  0.00     0.251 C 
HETATM   21  N   UNL     1       7.039  26.741  55.247  1.00  0.00    -0.353 N 
HETATM   22  H   UNL     1       7.848  27.344  55.196  1.00  0.00     0.163 HD
HETATM   23  O   UNL     1       4.911  26.602  56.141  1.00  0.00    -0.268 OA
BRANCH  21  24
HETATM   24  C   UNL     1       6.769  25.941  54.078  1.00  0.00     0.161 C 
BRANCH  24  25
HETATM   25  C   UNL     1       7.192  24.483  54.269  1.00  0.00    -0.038 A 
HETATM   26  C   UNL     1       7.366  23.984  55.613  1.00  0.00     0.048 A 
HETATM   27  C   UNL     1       7.800  22.685  55.576  1.00  0.00     0.105 A 
HETATM   28  C   UNL     1       8.037  21.844  54.008  1.00  0.00     0.105 A 
HETATM   29  O   UNL     1       8.412  21.384  56.988  1.00  0.00    -0.323 OA
HETATM   30  O   UNL     1       8.716  20.200  54.229  1.00  0.00    -0.323 OA
HETATM   31  C   UNL     1       7.820  22.377  52.791  1.00  0.00     0.040 A 
HETATM   32  C   UNL     1       8.996  19.782  56.056  1.00  0.00     0.352 A 
HETATM   33  C   UNL     1       7.392  23.711  52.968  1.00  0.00     0.012 A 
ENDBRANCH  24  25
ENDBRANCH  21  24
ENDBRANCH  17  20
ENDBRANCH  13  14
ENDBRANCH   4  13
BRANCH   1  34
HETATM   34  C   UNL     1       4.209  34.394  60.813  1.00  0.00     0.237 C 
BRANCH  34  35
HETATM   35  C   UNL     1       3.104  34.010  59.802  1.00  0.00     0.240 C 
HETATM   36  N   UNL     1       3.190  34.628  58.566  1.00  0.00    -0.326 N 
HETATM   37  H   UNL     1       3.773  35.451  58.493  1.00  0.00     0.169 HD
HETATM   38  O   UNL     1       2.371  33.057  60.071  1.00  0.00    -0.271 OA
BRANCH  36  39
HETATM   39  C   UNL     1       2.622  34.158  57.346  1.00  0.00     0.035 A 
HETATM   40  C   UNL     1       3.250  32.747  56.566  1.00  0.00     0.036 A 
HETATM   41  C   UNL     1       2.806  32.191  55.022  1.00  0.00    -0.060 A 
HETATM   42  C   UNL     1       3.472  31.017  54.394  1.00  0.00     0.048 C 
HETATM   43  C   UNL     1       1.634  33.120  54.148  1.00  0.00     0.007 A 
HETATM   44  C   UNL     1       0.851  34.790  55.073  1.00  0.00     0.003 A 
HETATM   45  C   UNL     1       1.431  35.172  56.672  1.00  0.00     0.029 A 
ENDBRANCH  36  39
ENDBRANCH  34  35
ENDBRANCH   1  34
TORSDOF 8
ENDMDL
MODEL 6
REMARK VINA RESULT:     -11.8      3.662     12.728
REMARK  8 active torsions:
REMARK  status: ('A' for Active; 'I' for Inactive)
REMARK    1  A    between atoms: C_4  and  N_5 
REMARK       I    between atoms: N_5  and  C_6 
REMARK    2  A    between atoms: C_6  and  C_7 
REMARK    3  A    between atoms: C_7  and  N_8 
REMARK    4  A    between atoms: N_11  and  C_12 
REMARK    5  A    between atoms: C_12  and  C_13 
REMARK    6  A    between atoms: C_16  and  C_17 
REMARK       I    between atoms: C_17  and  N_18 
REMARK    7  A    between atoms: N_18  and  C_19 
REMARK    8  A    between atoms: C_19  and  C_20 
ROOT
HETATM    1  N   UNL     1       4.994  33.219  61.483  1.00  0.00    -0.290 N 
HETATM    2  C   UNL     1       5.748  33.021  60.321  1.00  0.00     0.332 C 
HETATM    3  O   UNL     1       5.352  33.452  59.238  1.00  0.00    -0.246 OA
HETATM    4  N   UNL     1       6.937  32.314  60.460  1.00  0.00    -0.261 N 
HETATM    5  C   UNL     1       7.575  32.106  61.670  1.00  0.00     0.264 C 
HETATM    6  O   UNL     1       8.633  31.495  61.800  1.00  0.00    -0.267 OA
HETATM    7  C   UNL     1       6.953  32.720  62.850  1.00  0.00     0.059 A 
HETATM    8  C   UNL     1       5.669  33.257  62.747  1.00  0.00     0.055 A 
HETATM    9  C   UNL     1       7.696  32.804  64.041  1.00  0.00     0.019 A 
HETATM   10  C   UNL     1       7.160  33.445  65.151  1.00  0.00     0.001 A 
HETATM   11  C   UNL     1       5.879  33.980  65.075  1.00  0.00     0.002 A 
HETATM   12  C   UNL     1       5.138  33.879  63.889  1.00  0.00     0.031 A 
ENDROOT
BRANCH   4  13
HETATM   13  C   UNL     1       7.686  31.974  59.250  1.00  0.00     0.175 C 
BRANCH  13  14
HETATM   14  C   UNL     1       7.186  30.711  58.586  1.00  0.00    -0.040 A 
HETATM   15  C   UNL     1       8.048  29.609  58.469  1.00  0.00     0.010 A 
HETATM   16  C   UNL     1       7.685  28.514  57.696  1.00  0.00     0.017 A 
HETATM   17  C   UNL     1       6.454  28.512  57.034  1.00  0.00     0.032 A 
HETATM   18  C   UNL     1       5.545  29.557  57.226  1.00  0.00     0.017 A 
HETATM   19  C   UNL     1       5.912  30.657  58.001  1.00  0.00     0.010 A 
BRANCH  17  20
HETATM   20  C   UNL     1       6.149  27.465  56.028  1.00  0.00     0.251 C 
HETATM   21  N   UNL     1       7.253  27.026  55.326  1.00  0.00    -0.353 N 
HETATM   22  H   UNL     1       8.118  27.534  55.442  1.00  0.00     0.163 HD
HETATM   23  O   UNL     1       4.995  27.116  55.817  1.00  0.00    -0.268 OA
BRANCH  21  24
HETATM   24  C   UNL     1       7.116  26.279  54.100  1.00  0.00     0.161 C 
BRANCH  24  25
HETATM   25  C   UNL     1       7.412  24.791  54.296  1.00  0.00    -0.038 A 
HETATM   26  C   UNL     1       7.545  24.285  55.642  1.00  0.00     0.048 A 
HETATM   27  C   UNL     1       7.867  22.954  55.610  1.00  0.00     0.105 A 
HETATM   28  C   UNL     1       8.029  22.089  54.045  1.00  0.00     0.105 A 
HETATM   29  O   UNL     1       8.368  21.611  57.026  1.00  0.00    -0.323 OA
HETATM   30  O   UNL     1       8.565  20.394  54.272  1.00  0.00    -0.323 OA
HETATM   31  C   UNL     1       7.856  22.633  52.826  1.00  0.00     0.040 A 
HETATM   32  C   UNL     1       8.811  19.960  56.101  1.00  0.00     0.352 A 
HETATM   33  C   UNL     1       7.543  24.000  52.999  1.00  0.00     0.012 A 
ENDBRANCH  24  25
ENDBRANCH  21  24
ENDBRANCH  17  20
ENDBRANCH  13  14
ENDBRANCH   4  13
BRANCH   1  34
HETATM   34  C   UNL     1       3.733  33.946  61.296  1.00  0.00     0.237 C 
BRANCH  34  35
HETATM   35  C   UNL     1       3.744  35.486  61.154  1.00  0.00     0.240 C 
HETATM   36  N   UNL     1       3.673  36.192  62.343  1.00  0.00    -0.326 N 
HETATM   37  H   UNL     1       3.359  35.694  63.166  1.00  0.00     0.169 HD
HETATM   38  O   UNL     1       4.020  35.969  60.055  1.00  0.00    -0.271 OA
BRANCH  36  39
HETATM   39  C   UNL     1       4.103  37.535  62.554  1.00  0.00     0.035 A 
HETATM   40  C   UNL     1       3.406  38.836  61.651  1.00  0.00     0.036 A 
HETATM   41  C   UNL     1       3.953  40.446  61.655  1.00  0.00    -0.060 A 
HETATM   42  C   UNL     1       3.346  41.478  60.771  1.00  0.00     0.048 C 
HETATM   43  C   UNL     1       5.332  40.814  62.635  1.00  0.00     0.007 A 
HETATM   44  C   UNL     1       6.160  39.282  63.742  1.00  0.00     0.003 A 
HETATM   45  C   UNL     1       5.429  37.705  63.608  1.00  0.00     0.029 A 
ENDBRANCH  36  39
ENDBRANCH  34  35
ENDBRANCH   1  34
TORSDOF 8
ENDMDL
MODEL 7
REMARK VINA RESULT:     -11.6      2.434      3.291
REMARK  8 active torsions:
REMARK  status: ('A' for Active; 'I' for Inactive)
REMARK    1  A    between atoms: C_4  and  N_5 
REMARK       I    between atoms: N_5  and  C_6 
REMARK    2  A    between atoms: C_6  and  C_7 
REMARK    3  A    between atoms: C_7  and  N_8 
REMARK    4  A    between atoms: N_11  and  C_12 
REMARK    5  A    between atoms: C_12  and  C_13 
REMARK    6  A    between atoms: C_16  and  C_17 
REMARK       I    between atoms: C_17  and  N_18 
REMARK    7  A    between atoms: N_18  and  C_19 
REMARK    8  A    between atoms: C_19  and  C_20 
ROOT
HETATM    1  N   UNL     1       5.814  27.109  53.212  1.00  0.00    -0.290 N 
HETATM    2  C   UNL     1       5.275  27.486  54.447  1.00  0.00     0.332 C 
HETATM    3  O   UNL     1       4.232  28.137  54.501  1.00  0.00    -0.246 OA
HETATM    4  N   UNL     1       5.980  27.098  55.581  1.00  0.00    -0.261 N 
HETATM    5  C   UNL     1       6.945  26.107  55.588  1.00  0.00     0.264 C 
HETATM    6  O   UNL     1       7.562  25.748  56.588  1.00  0.00    -0.267 OA
HETATM    7  C   UNL     1       7.183  25.416  54.315  1.00  0.00     0.059 A 
HETATM    8  C   UNL     1       6.627  25.930  53.142  1.00  0.00     0.055 A 
HETATM    9  C   UNL     1       7.918  24.218  54.320  1.00  0.00     0.019 A 
HETATM   10  C   UNL     1       8.096  23.506  53.140  1.00  0.00     0.001 A 
HETATM   11  C   UNL     1       7.558  24.002  51.959  1.00  0.00     0.002 A 
HETATM   12  C   UNL     1       6.839  25.206  51.957  1.00  0.00     0.031 A 
ENDROOT
BRANCH   4  13
HETATM   13  C   UNL     1       5.520  27.584  56.881  1.00  0.00     0.175 C 
BRANCH  13  14
HETATM   14  C   UNL     1       6.374  28.706  57.424  1.00  0.00    -0.040 A 
HETATM   15  C   UNL     1       7.728  28.464  57.707  1.00  0.00     0.010 A 
HETATM   16  C   UNL     1       8.483  29.412  58.386  1.00  0.00     0.017 A 
HETATM   17  C   UNL     1       7.890  30.613  58.785  1.00  0.00     0.032 A 
HETATM   18  C   UNL     1       6.573  30.908  58.419  1.00  0.00     0.017 A 
HETATM   19  C   UNL     1       5.815  29.954  57.739  1.00  0.00     0.010 A 
BRANCH  17  20
HETATM   20  C   UNL     1       8.607  31.531  59.703  1.00  0.00     0.251 C 
HETATM   21  N   UNL     1       8.685  31.074  61.003  1.00  0.00    -0.353 N 
HETATM   22  H   UNL     1       8.142  30.258  61.248  1.00  0.00     0.163 HD
HETATM   23  O   UNL     1       9.002  32.623  59.316  1.00  0.00    -0.268 OA
BRANCH  21  24
HETATM   24  C   UNL     1       9.032  31.955  62.090  1.00  0.00     0.161 C 
BRANCH  24  25
HETATM   25  C   UNL     1       7.797  32.447  62.848  1.00  0.00    -0.038 A 
HETATM   26  C   UNL     1       7.985  33.119  64.113  1.00  0.00     0.048 A 
HETATM   27  C   UNL     1       6.768  33.428  64.662  1.00  0.00     0.105 A 
HETATM   28  C   UNL     1       5.246  33.026  63.799  1.00  0.00     0.105 A 
HETATM   29  O   UNL     1       6.199  34.199  66.435  1.00  0.00    -0.323 OA
HETATM   30  O   UNL     1       3.799  33.430  64.776  1.00  0.00    -0.323 OA
HETATM   31  C   UNL     1       5.160  32.423  62.599  1.00  0.00     0.040 A 
HETATM   32  C   UNL     1       4.256  34.179  66.456  1.00  0.00     0.352 A 
HETATM   33  C   UNL     1       6.472  32.150  62.153  1.00  0.00     0.012 A 
ENDBRANCH  24  25
ENDBRANCH  21  24
ENDBRANCH  17  20
ENDBRANCH  13  14
ENDBRANCH   4  13
BRANCH   1  34
HETATM   34  C   UNL     1       5.059  27.557  52.035  1.00  0.00     0.237 C 
BRANCH  34  35
HETATM   35  C   UNL     1       5.012  29.060  51.675  1.00  0.00     0.240 C 
HETATM   36  N   UNL     1       3.900  29.746  52.134  1.00  0.00    -0.326 N 
HETATM   37  H   UNL     1       3.099  29.200  52.423  1.00  0.00     0.169 HD
HETATM   38  O   UNL     1       6.025  29.580  51.207  1.00  0.00    -0.271 OA
BRANCH  36  39
HETATM   39  C   UNL     1       3.804  31.152  52.345  1.00  0.00     0.035 A 
HETATM   40  C   UNL     1       3.641  32.237  51.007  1.00  0.00     0.036 A 
HETATM   41  C   UNL     1       3.716  33.933  51.094  1.00  0.00    -0.060 A 
HETATM   42  C   UNL     1       3.659  34.780  49.872  1.00  0.00     0.048 C 
HETATM   43  C   UNL     1       3.988  34.638  52.653  1.00  0.00     0.007 A 
HETATM   44  C   UNL     1       4.156  33.363  54.266  1.00  0.00     0.003 A 
HETATM   45  C   UNL     1       4.029  31.652  53.958  1.00  0.00     0.029 A 
ENDBRANCH  36  39
ENDBRANCH  34  35
ENDBRANCH   1  34
TORSDOF 8
ENDMDL
MODEL 8
REMARK VINA RESULT:     -11.6      3.650      5.045
REMARK  8 active torsions:
REMARK  status: ('A' for Active; 'I' for Inactive)
REMARK    1  A    between atoms: C_4  and  N_5 
REMARK       I    between atoms: N_5  and  C_6 
REMARK    2  A    between atoms: C_6  and  C_7 
REMARK    3  A    between atoms: C_7  and  N_8 
REMARK    4  A    between atoms: N_11  and  C_12 
REMARK    5  A    between atoms: C_12  and  C_13 
REMARK    6  A    between atoms: C_16  and  C_17 
REMARK       I    between atoms: C_17  and  N_18 
REMARK    7  A    between atoms: N_18  and  C_19 
REMARK    8  A    between atoms: C_19  and  C_20 
ROOT
HETATM    1  N   UNL     1       4.429  29.367  52.522  1.00  0.00    -0.290 N 
HETATM    2  C   UNL     1       4.084  29.509  53.871  1.00  0.00     0.332 C 
HETATM    3  O   UNL     1       3.414  30.470  54.247  1.00  0.00    -0.246 OA
HETATM    4  N   UNL     1       4.543  28.525  54.740  1.00  0.00    -0.261 N 
HETATM    5  C   UNL     1       4.999  27.285  54.331  1.00  0.00     0.264 C 
HETATM    6  O   UNL     1       5.393  26.406  55.093  1.00  0.00    -0.267 OA
HETATM    7  C   UNL     1       4.939  27.009  52.890  1.00  0.00     0.059 A 
HETATM    8  C   UNL     1       4.668  28.052  52.003  1.00  0.00     0.055 A 
HETATM    9  C   UNL     1       5.097  25.685  52.446  1.00  0.00     0.019 A 
HETATM   10  C   UNL     1       4.973  25.384  51.095  1.00  0.00     0.001 A 
HETATM   11  C   UNL     1       4.711  26.408  50.193  1.00  0.00     0.002 A 
HETATM   12  C   UNL     1       4.569  27.729  50.640  1.00  0.00     0.031 A 
ENDROOT
BRANCH   4  13
HETATM   13  C   UNL     1       4.315  28.707  56.173  1.00  0.00     0.175 C 
BRANCH  13  14
HETATM   14  C   UNL     1       5.428  29.472  56.853  1.00  0.00    -0.040 A 
HETATM   15  C   UNL     1       6.624  28.809  57.169  1.00  0.00     0.010 A 
HETATM   16  C   UNL     1       7.581  29.428  57.963  1.00  0.00     0.017 A 
HETATM   17  C   UNL     1       7.349  30.719  58.446  1.00  0.00     0.032 A 
HETATM   18  C   UNL     1       6.210  31.428  58.053  1.00  0.00     0.017 A 
HETATM   19  C   UNL     1       5.249  30.804  57.257  1.00  0.00     0.010 A 
BRANCH  17  20
HETATM   20  C   UNL     1       8.244  31.304  59.473  1.00  0.00     0.251 C 
HETATM   21  N   UNL     1       8.051  30.792  60.740  1.00  0.00    -0.353 N 
HETATM   22  H   UNL     1       7.249  30.195  60.889  1.00  0.00     0.163 HD
HETATM   23  O   UNL     1       9.011  32.215  59.192  1.00  0.00    -0.268 OA
BRANCH  21  24
HETATM   24  C   UNL     1       8.571  31.459  61.908  1.00  0.00     0.161 C 
BRANCH  24  25
HETATM   25  C   UNL     1       7.467  32.136  62.723  1.00  0.00    -0.038 A 
HETATM   26  C   UNL     1       6.101  32.016  62.269  1.00  0.00     0.048 A 
HETATM   27  C   UNL     1       5.272  32.734  63.090  1.00  0.00     0.105 A 
HETATM   28  C   UNL     1       5.929  33.615  64.509  1.00  0.00     0.105 A 
HETATM   29  O   UNL     1       3.310  33.189  63.030  1.00  0.00    -0.323 OA
HETATM   30  O   UNL     1       4.662  34.564  65.350  1.00  0.00    -0.323 OA
HETATM   31  C   UNL     1       7.222  33.649  64.883  1.00  0.00     0.040 A 
HETATM   32  C   UNL     1       2.966  34.381  64.526  1.00  0.00     0.352 A 
HETATM   33  C   UNL     1       7.964  32.887  63.954  1.00  0.00     0.012 A 
ENDBRANCH  24  25
ENDBRANCH  21  24
ENDBRANCH  17  20
ENDBRANCH  13  14
ENDBRANCH   4  13
BRANCH   1  34
HETATM   34  C   UNL     1       3.950  30.435  51.637  1.00  0.00     0.237 C 
BRANCH  34  35
HETATM   35  C   UNL     1       4.963  31.382  50.951  1.00  0.00     0.240 C 
HETATM   36  N   UNL     1       4.654  32.730  51.018  1.00  0.00    -0.326 N 
HETATM   37  H   UNL     1       3.703  32.982  51.256  1.00  0.00     0.169 HD
HETATM   38  O   UNL     1       6.044  30.917  50.590  1.00  0.00    -0.271 OA
BRANCH  36  39
HETATM   39  C   UNL     1       5.572  33.813  50.889  1.00  0.00     0.035 A 
HETATM   40  C   UNL     1       6.241  34.573  52.292  1.00  0.00     0.036 A 
HETATM   41  C   UNL     1       7.183  35.988  52.295  1.00  0.00    -0.060 A 
HETATM   42  C   UNL     1       7.636  36.622  53.563  1.00  0.00     0.048 C 
HETATM   43  C   UNL     1       7.491  36.742  50.766  1.00  0.00     0.007 A 
HETATM   44  C   UNL     1       6.725  35.834  49.078  1.00  0.00     0.003 A 
HETATM   45  C   UNL     1       5.801  34.373  49.298  1.00  0.00     0.029 A 
ENDBRANCH  36  39
ENDBRANCH  34  35
ENDBRANCH   1  34
TORSDOF 8
ENDMDL
MODEL 9
REMARK VINA RESULT:     -11.6      3.737     11.111
REMARK  8 active torsions:
REMARK  status: ('A' for Active; 'I' for Inactive)
REMARK    1  A    between atoms: C_4  and  N_5 
REMARK       I    between atoms: N_5  and  C_6 
REMARK    2  A    between atoms: C_6  and  C_7 
REMARK    3  A    between atoms: C_7  and  N_8 
REMARK    4  A    between atoms: N_11  and  C_12 
REMARK    5  A    between atoms: C_12  and  C_13 
REMARK    6  A    between atoms: C_16  and  C_17 
REMARK       I    between atoms: C_17  and  N_18 
REMARK    7  A    between atoms: N_18  and  C_19 
REMARK    8  A    between atoms: C_19  and  C_20 
ROOT
HETATM    1  N   UNL     1       5.999  32.265  60.598  1.00  0.00    -0.290 N 
HETATM    2  C   UNL     1       7.015  32.148  59.643  1.00  0.00     0.332 C 
HETATM    3  O   UNL     1       6.795  32.409  58.460  1.00  0.00    -0.246 OA
HETATM    4  N   UNL     1       8.257  31.720  60.101  1.00  0.00    -0.261 N 
HETATM    5  C   UNL     1       8.637  31.739  61.431  1.00  0.00     0.264 C 
HETATM    6  O   UNL     1       9.736  31.376  61.842  1.00  0.00    -0.267 OA
HETATM    7  C   UNL     1       7.663  32.290  62.382  1.00  0.00     0.059 A 
HETATM    8  C   UNL     1       6.356  32.535  61.959  1.00  0.00     0.055 A 
HETATM    9  C   UNL     1       8.092  32.614  63.681  1.00  0.00     0.019 A 
HETATM   10  C   UNL     1       7.211  33.204  64.578  1.00  0.00     0.001 A 
HETATM   11  C   UNL     1       5.902  33.450  64.182  1.00  0.00     0.002 A 
HETATM   12  C   UNL     1       5.475  33.111  62.890  1.00  0.00     0.031 A 
ENDROOT
BRANCH   4  13
HETATM   13  C   UNL     1       9.306  31.461  59.116  1.00  0.00     0.175 C 
BRANCH  13  14
HETATM   14  C   UNL     1       8.954  30.340  58.165  1.00  0.00    -0.040 A 
HETATM   15  C   UNL     1       9.589  30.276  56.914  1.00  0.00     0.010 A 
HETATM   16  C   UNL     1       9.148  29.380  55.949  1.00  0.00     0.017 A 
HETATM   17  C   UNL     1       8.068  28.538  56.228  1.00  0.00     0.032 A 
HETATM   18  C   UNL     1       7.496  28.521  57.504  1.00  0.00     0.017 A 
HETATM   19  C   UNL     1       7.938  29.423  58.472  1.00  0.00     0.010 A 
BRANCH  17  20
HETATM   20  C   UNL     1       7.440  27.744  55.145  1.00  0.00     0.251 C 
HETATM   21  N   UNL     1       6.353  26.999  55.555  1.00  0.00    -0.353 N 
HETATM   22  H   UNL     1       6.171  26.940  56.547  1.00  0.00     0.163 HD
HETATM   23  O   UNL     1       7.928  27.717  54.023  1.00  0.00    -0.268 OA
BRANCH  21  24
HETATM   24  C   UNL     1       5.831  25.924  54.749  1.00  0.00     0.161 C 
BRANCH  24  25
HETATM   25  C   UNL     1       6.670  24.650  54.874  1.00  0.00    -0.038 A 
HETATM   26  C   UNL     1       6.812  23.799  53.715  1.00  0.00     0.048 A 
HETATM   27  C   UNL     1       7.543  22.688  54.040  1.00  0.00     0.105 A 
HETATM   28  C   UNL     1       8.198  22.476  55.698  1.00  0.00     0.105 A 
HETATM   29  O   UNL     1       8.021  21.001  53.048  1.00  0.00    -0.323 OA
HETATM   30  O   UNL     1       9.017  20.894  55.894  1.00  0.00    -0.323 OA
HETATM   31  C   UNL     1       8.046  23.340  56.719  1.00  0.00     0.040 A 
HETATM   32  C   UNL     1       8.982  19.868  54.301  1.00  0.00     0.352 A 
HETATM   33  C   UNL     1       7.269  24.426  56.259  1.00  0.00     0.012 A 
ENDBRANCH  24  25
ENDBRANCH  21  24
ENDBRANCH  17  20
ENDBRANCH  13  14
ENDBRANCH   4  13
BRANCH   1  34
HETATM   34  C   UNL     1       4.696  32.694  60.076  1.00  0.00     0.237 C 
BRANCH  34  35
HETATM   35  C   UNL     1       4.508  34.142  59.565  1.00  0.00     0.240 C 
HETATM   36  N   UNL     1       4.474  34.285  58.188  1.00  0.00    -0.326 N 
HETATM   37  H   UNL     1       4.827  33.521  57.628  1.00  0.00     0.169 HD
HETATM   38  O   UNL     1       4.199  35.013  60.379  1.00  0.00    -0.271 OA
BRANCH  36  39
HETATM   39  C   UNL     1       3.887  35.366  57.467  1.00  0.00     0.035 A 
HETATM   40  C   UNL     1       4.590  36.946  57.518  1.00  0.00     0.036 A 
HETATM   41  C   UNL     1       3.894  38.359  56.877  1.00  0.00    -0.060 A 
HETATM   42  C   UNL     1       4.532  39.692  57.053  1.00  0.00     0.048 C 
HETATM   43  C   UNL     1       2.346  38.208  56.116  1.00  0.00     0.007 A 
HETATM   44  C   UNL     1       1.504  36.326  56.018  1.00  0.00     0.003 A 
HETATM   45  C   UNL     1       2.398  35.006  56.723  1.00  0.00     0.029 A 
ENDBRANCH  36  39
ENDBRANCH  34  35
ENDBRANCH   1  34
TORSDOF 8
ENDMDL
MODEL 10
REMARK VINA RESULT:     -11.6      1.941      2.812
REMARK  8 active torsions:
REMARK  status: ('A' for Active; 'I' for Inactive)
REMARK    1  A    between atoms: C_4  and  N_5 
REMARK       I    between atoms: N_5  and  C_6 
REMARK    2  A    between atoms: C_6  and  C_7 
REMARK    3  A    between atoms: C_7  and  N_8 
REMARK    4  A    between atoms: N_11  and  C_12 
REMARK    5  A    between atoms: C_12  and  C_13 
REMARK    6  A    between atoms: C_16  and  C_17 
REMARK       I    between atoms: C_17  and  N_18 
REMARK    7  A    between atoms: N_18  and  C_19 
REMARK    8  A    between atoms: C_19  and  C_20 
ROOT
HETATM    1  N   UNL     1       6.088  26.150  53.427  1.00  0.00    -0.290 N 
HETATM    2  C   UNL     1       5.468  26.772  54.516  1.00  0.00     0.332 C 
HETATM    3  O   UNL     1       4.501  27.514  54.345  1.00  0.00    -0.246 OA
HETATM    4  N   UNL     1       6.007  26.515  55.773  1.00  0.00    -0.261 N 
HETATM    5  C   UNL     1       6.856  25.457  56.046  1.00  0.00     0.264 C 
HETATM    6  O   UNL     1       7.325  25.214  57.156  1.00  0.00    -0.267 OA
HETATM    7  C   UNL     1       7.148  24.547  54.931  1.00  0.00     0.059 A 
HETATM    8  C   UNL     1       6.773  24.909  53.636  1.00  0.00     0.055 A 
HETATM    9  C   UNL     1       7.745  23.306  55.208  1.00  0.00     0.019 A 
HETATM   10  C   UNL     1       7.967  22.396  54.181  1.00  0.00     0.001 A 
HETATM   11  C   UNL     1       7.609  22.737  52.883  1.00  0.00     0.002 A 
HETATM   12  C   UNL     1       7.027  23.983  52.610  1.00  0.00     0.031 A 
ENDROOT
BRANCH   4  13
HETATM   13  C   UNL     1       5.471  27.248  56.919  1.00  0.00     0.175 C 
BRANCH  13  14
HETATM   14  C   UNL     1       6.349  28.403  57.340  1.00  0.00    -0.040 A 
HETATM   15  C   UNL     1       7.733  28.204  57.469  1.00  0.00     0.010 A 
HETATM   16  C   UNL     1       8.533  29.185  58.039  1.00  0.00     0.017 A 
HETATM   17  C   UNL     1       7.955  30.377  58.484  1.00  0.00     0.032 A 
HETATM   18  C   UNL     1       6.597  30.629  58.268  1.00  0.00     0.017 A 
HETATM   19  C   UNL     1       5.794  29.642  57.696  1.00  0.00     0.010 A 
BRANCH  17  20
HETATM   20  C   UNL     1       8.746  31.333  59.297  1.00  0.00     0.251 C 
HETATM   21  N   UNL     1       8.625  31.142  60.659  1.00  0.00    -0.353 N 
HETATM   22  H   UNL     1       7.923  30.492  60.982  1.00  0.00     0.163 HD
HETATM   23  O   UNL     1       9.367  32.244  58.766  1.00  0.00    -0.268 OA
BRANCH  21  24
HETATM   24  C   UNL     1       9.032  32.157  61.599  1.00  0.00     0.161 C 
BRANCH  24  25
HETATM   25  C   UNL     1       7.841  32.756  62.350  1.00  0.00    -0.038 A 
HETATM   26  C   UNL     1       6.695  33.197  61.589  1.00  0.00     0.048 A 
HETATM   27  C   UNL     1       5.765  33.753  62.427  1.00  0.00     0.105 A 
HETATM   28  C   UNL     1       6.053  33.820  64.197  1.00  0.00     0.105 A 
HETATM   29  O   UNL     1       4.023  34.719  62.123  1.00  0.00    -0.323 OA
HETATM   30  O   UNL     1       4.743  34.695  65.052  1.00  0.00    -0.323 OA
HETATM   31  C   UNL     1       7.143  33.354  64.834  1.00  0.00     0.040 A 
HETATM   32  C   UNL     1       3.399  35.310  63.866  1.00  0.00     0.352 A 
HETATM   33  C   UNL     1       8.021  32.822  63.863  1.00  0.00     0.012 A 
ENDBRANCH  24  25
ENDBRANCH  21  24
ENDBRANCH  17  20
ENDBRANCH  13  14
ENDBRANCH   4  13
BRANCH   1  34
HETATM   34  C   UNL     1       5.510  26.464  52.114  1.00  0.00     0.237 C 
BRANCH  34  35
HETATM   35  C   UNL     1       5.264  27.936  51.712  1.00  0.00     0.240 C 
HETATM   36  N   UNL     1       3.934  28.302  51.585  1.00  0.00    -0.326 N 
HETATM   37  H   UNL     1       3.250  27.562  51.499  1.00  0.00     0.169 HD
HETATM   38  O   UNL     1       6.217  28.716  51.736  1.00  0.00    -0.271 OA
BRANCH  36  39
HETATM   39  C   UNL     1       3.412  29.626  51.672  1.00  0.00     0.035 A 
HETATM   40  C   UNL     1       3.542  30.531  53.141  1.00  0.00     0.036 A 
HETATM   41  C   UNL     1       2.797  32.028  53.448  1.00  0.00    -0.060 A 
HETATM   42  C   UNL     1       2.890  32.687  54.779  1.00  0.00     0.048 C 
HETATM   43  C   UNL     1       1.815  32.701  52.190  1.00  0.00     0.007 A 
HETATM   44  C   UNL     1       1.671  31.651  50.420  1.00  0.00     0.003 A 
HETATM   45  C   UNL     1       2.534  30.141  50.306  1.00  0.00     0.029 A 
ENDBRANCH  36  39
ENDBRANCH  34  35
ENDBRANCH   1  34
TORSDOF 8
ENDMDL
