MODEL 1
REMARK VINA RESULT:      -8.8      0.000      0.000
REMARK  6 active torsions:
REMARK  status: ('A' for Active; 'I' for Inactive)
REMARK    1  A    between atoms: C_4  and  C_5 
REMARK    2  A    between atoms: C_5  and  C_6 
REMARK    3  A    between atoms: C_6  and  C_7 
REMARK    4  A    between atoms: C_7  and  C_8 
REMARK       I    between atoms: C_8  and  N_9 
REMARK    5  A    between atoms: N_9  and  C_10 
REMARK    6  A    between atoms: C_12  and  C_13 
ROOT
HETATM    1  C   UNL     1       5.669  26.281  56.555  1.00  0.00     0.222 C 
HETATM    2  N   UNL     1       5.544  25.790  55.290  1.00  0.00    -0.327 N 
HETATM    3  O   UNL     1       4.750  26.991  56.973  1.00  0.00    -0.273 OA
HETATM    4  H   UNL     1       4.655  26.089  54.902  1.00  0.00     0.169 HD
ENDROOT
BRANCH   2   5
HETATM    5  C   UNL     1       6.340  24.998  54.440  1.00  0.00     0.035 A 
HETATM    6  C   UNL     1       6.833  23.724  54.727  1.00  0.00     0.042 A 
HETATM    7  C   UNL     1       7.625  23.019  53.798  1.00  0.00    -0.021 A 
HETATM    8  C   UNL     1       7.929  23.617  52.571  1.00  0.00     0.012 A 
HETATM    9  C   UNL     1       7.450  24.890  52.273  1.00  0.00     0.003 A 
HETATM   10  C   UNL     1       6.663  25.572  53.202  1.00  0.00     0.029 A 
BRANCH   7  11
HETATM   11  C   UNL     1       8.138  21.693  54.105  1.00  0.00     0.010 A 
HETATM   12  C   UNL     1       8.650  20.681  53.257  1.00  0.00     0.152 A 
HETATM   13  N   UNL     1       9.012  19.581  53.924  1.00  0.00    -0.187 NA
HETATM   14  N   UNL     1       8.730  19.881  55.200  1.00  0.00    -0.289 N 
HETATM   15  H   UNL     1       8.919  19.181  55.912  1.00  0.00     0.188 HD
HETATM   16  C   UNL     1       8.203  21.131  55.363  1.00  0.00     0.123 A 
ENDBRANCH   7  11
ENDBRANCH   2   5
BRANCH   1  17
HETATM   17  C   UNL     1       6.874  25.967  57.414  1.00  0.00     0.103 C 
BRANCH  17  18
HETATM   18  C   UNL     1       8.162  26.647  56.940  1.00  0.00     0.014 C 
BRANCH  18  19
HETATM   19  C   UNL     1       7.913  28.038  56.346  1.00  0.00     0.046 C 
BRANCH  19  20
HETATM   20  C   UNL     1       8.760  29.076  57.023  1.00  0.00    -0.017 A 
HETATM   21  S   UNL     1       8.128  30.008  58.312  1.00  0.00    -0.100 SA
HETATM   22  C   UNL     1       9.593  30.870  58.501  1.00  0.00    -0.021 A 
HETATM   23  C   UNL     1       9.711  31.919  59.553  1.00  0.00     0.056 C 
HETATM   24  C   UNL     1      10.549  30.450  57.599  1.00  0.00     0.015 A 
HETATM   25  C   UNL     1      10.068  29.418  56.746  1.00  0.00     0.015 A 
ENDBRANCH  19  20
ENDBRANCH  18  19
ENDBRANCH  17  18
ENDBRANCH   1  17
TORSDOF 6
ENDMDL
MODEL 2
REMARK VINA RESULT:      -8.6      3.262      6.855
REMARK  6 active torsions:
REMARK  status: ('A' for Active; 'I' for Inactive)
REMARK    1  A    between atoms: C_4  and  C_5 
REMARK    2  A    between atoms: C_5  and  C_6 
REMARK    3  A    between atoms: C_6  and  C_7 
REMARK    4  A    between atoms: C_7  and  C_8 
REMARK       I    between atoms: C_8  and  N_9 
REMARK    5  A    between atoms: N_9  and  C_10 
REMARK    6  A    between atoms: C_12  and  C_13 
ROOT
HETATM    1  C   UNL     1       8.258  23.054  56.589  1.00  0.00     0.222 C 
HETATM    2  N   UNL     1       7.677  23.982  57.400  1.00  0.00    -0.327 N 
HETATM    3  O   UNL     1       8.432  21.927  57.064  1.00  0.00    -0.273 OA
HETATM    4  H   UNL     1       7.452  23.553  58.292  1.00  0.00     0.169 HD
ENDROOT
BRANCH   2   5
HETATM    5  C   UNL     1       7.338  25.343  57.281  1.00  0.00     0.035 A 
HETATM    6  C   UNL     1       8.210  26.424  57.420  1.00  0.00     0.042 A 
HETATM    7  C   UNL     1       7.759  27.752  57.280  1.00  0.00    -0.021 A 
HETATM    8  C   UNL     1       6.407  27.987  57.008  1.00  0.00     0.012 A 
HETATM    9  C   UNL     1       5.523  26.919  56.873  1.00  0.00     0.003 A 
HETATM   10  C   UNL     1       5.987  25.611  57.010  1.00  0.00     0.029 A 
BRANCH   7  11
HETATM   11  C   UNL     1       8.673  28.874  57.430  1.00  0.00     0.010 A 
HETATM   12  C   UNL     1       9.894  29.166  56.775  1.00  0.00     0.152 A 
HETATM   13  N   UNL     1      10.456  30.297  57.207  1.00  0.00    -0.187 NA
HETATM   14  N   UNL     1       9.601  30.734  58.144  1.00  0.00    -0.289 N 
HETATM   15  H   UNL     1       9.821  31.598  58.630  1.00  0.00     0.188 HD
HETATM   16  C   UNL     1       8.520  29.919  58.318  1.00  0.00     0.123 A 
ENDBRANCH   7  11
ENDBRANCH   2   5
BRANCH   1  17
HETATM   17  C   UNL     1       8.667  23.382  55.170  1.00  0.00     0.103 C 
BRANCH  17  18
HETATM   18  C   UNL     1       7.621  22.993  54.123  1.00  0.00     0.014 C 
BRANCH  18  19
HETATM   19  C   UNL     1       7.713  23.843  52.850  1.00  0.00     0.046 C 
BRANCH  19  20
HETATM   20  C   UNL     1       7.033  25.169  53.034  1.00  0.00    -0.017 A 
HETATM   21  S   UNL     1       5.328  25.290  52.953  1.00  0.00    -0.100 SA
HETATM   22  C   UNL     1       5.362  26.976  53.240  1.00  0.00    -0.021 A 
HETATM   23  C   UNL     1       4.090  27.748  53.300  1.00  0.00     0.056 C 
HETATM   24  C   UNL     1       6.652  27.437  53.399  1.00  0.00     0.015 A 
HETATM   25  C   UNL     1       7.616  26.396  53.278  1.00  0.00     0.015 A 
ENDBRANCH  19  20
ENDBRANCH  18  19
ENDBRANCH  17  18
ENDBRANCH   1  17
TORSDOF 6
ENDMDL
MODEL 3
REMARK VINA RESULT:      -8.4      2.143      3.652
REMARK  6 active torsions:
REMARK  status: ('A' for Active; 'I' for Inactive)
REMARK    1  A    between atoms: C_4  and  C_5 
REMARK    2  A    between atoms: C_5  and  C_6 
REMARK    3  A    between atoms: C_6  and  C_7 
REMARK    4  A    between atoms: C_7  and  C_8 
REMARK       I    between atoms: C_8  and  N_9 
REMARK    5  A    between atoms: N_9  and  C_10 
REMARK    6  A    between atoms: C_12  and  C_13 
ROOT
HETATM    1  C   UNL     1       8.492  24.734  57.651  1.00  0.00     0.222 C 
HETATM    2  N   UNL     1       8.939  23.929  56.646  1.00  0.00    -0.327 N 
HETATM    3  O   UNL     1       9.144  24.735  58.699  1.00  0.00    -0.273 OA
HETATM    4  H   UNL     1       9.793  23.468  56.942  1.00  0.00     0.169 HD
ENDROOT
BRANCH   2   5
HETATM    5  C   UNL     1       8.498  23.610  55.347  1.00  0.00     0.035 A 
HETATM    6  C   UNL     1       7.626  24.369  54.565  1.00  0.00     0.042 A 
HETATM    7  C   UNL     1       7.249  23.951  53.273  1.00  0.00    -0.021 A 
HETATM    8  C   UNL     1       7.753  22.746  52.773  1.00  0.00     0.012 A 
HETATM    9  C   UNL     1       8.619  21.975  53.544  1.00  0.00     0.003 A 
HETATM   10  C   UNL     1       8.986  22.406  54.819  1.00  0.00     0.029 A 
BRANCH   7  11
HETATM   11  C   UNL     1       6.336  24.745  52.465  1.00  0.00     0.010 A 
HETATM   12  C   UNL     1       6.589  25.683  51.435  1.00  0.00     0.152 A 
HETATM   13  N   UNL     1       5.473  26.223  50.940  1.00  0.00    -0.187 NA
HETATM   14  N   UNL     1       4.499  25.638  51.653  1.00  0.00    -0.289 N 
HETATM   15  H   UNL     1       3.537  25.898  51.456  1.00  0.00     0.188 HD
HETATM   16  C   UNL     1       4.961  24.748  52.580  1.00  0.00     0.123 A 
ENDBRANCH   7  11
ENDBRANCH   2   5
BRANCH   1  17
HETATM   17  C   UNL     1       7.256  25.593  57.492  1.00  0.00     0.103 C 
BRANCH  17  18
HETATM   18  C   UNL     1       7.506  27.082  57.744  1.00  0.00     0.014 C 
BRANCH  18  19
HETATM   19  C   UNL     1       8.418  27.716  56.688  1.00  0.00     0.046 C 
BRANCH  19  20
HETATM   20  C   UNL     1       9.099  28.942  57.225  1.00  0.00    -0.017 A 
HETATM   21  S   UNL     1       8.414  29.815  58.528  1.00  0.00    -0.100 SA
HETATM   22  C   UNL     1       9.688  30.957  58.526  1.00  0.00    -0.021 A 
HETATM   23  C   UNL     1       9.690  32.075  59.511  1.00  0.00     0.056 C 
HETATM   24  C   UNL     1      10.621  30.673  57.551  1.00  0.00     0.015 A 
HETATM   25  C   UNL     1      10.280  29.513  56.800  1.00  0.00     0.015 A 
ENDBRANCH  19  20
ENDBRANCH  18  19
ENDBRANCH  17  18
ENDBRANCH   1  17
TORSDOF 6
ENDMDL
MODEL 4
REMARK VINA RESULT:      -8.3      1.378      1.901
REMARK  6 active torsions:
REMARK  status: ('A' for Active; 'I' for Inactive)
REMARK    1  A    between atoms: C_4  and  C_5 
REMARK    2  A    between atoms: C_5  and  C_6 
REMARK    3  A    between atoms: C_6  and  C_7 
REMARK    4  A    between atoms: C_7  and  C_8 
REMARK       I    between atoms: C_8  and  N_9 
REMARK    5  A    between atoms: N_9  and  C_10 
REMARK    6  A    between atoms: C_12  and  C_13 
ROOT
HETATM    1  C   UNL     1       5.921  26.974  56.119  1.00  0.00     0.222 C 
HETATM    2  N   UNL     1       5.701  25.875  55.343  1.00  0.00    -0.327 N 
HETATM    3  O   UNL     1       4.949  27.438  56.722  1.00  0.00    -0.273 OA
HETATM    4  H   UNL     1       4.727  25.600  55.423  1.00  0.00     0.169 HD
ENDROOT
BRANCH   2   5
HETATM    5  C   UNL     1       6.488  25.076  54.493  1.00  0.00     0.035 A 
HETATM    6  C   UNL     1       6.978  23.801  54.783  1.00  0.00     0.042 A 
HETATM    7  C   UNL     1       7.762  23.088  53.853  1.00  0.00    -0.021 A 
HETATM    8  C   UNL     1       8.061  23.678  52.622  1.00  0.00     0.012 A 
HETATM    9  C   UNL     1       7.585  24.952  52.320  1.00  0.00     0.003 A 
HETATM   10  C   UNL     1       6.807  25.641  53.250  1.00  0.00     0.029 A 
BRANCH   7  11
HETATM   11  C   UNL     1       8.273  21.763  54.165  1.00  0.00     0.010 A 
HETATM   12  C   UNL     1       8.485  20.635  53.335  1.00  0.00     0.152 A 
HETATM   13  N   UNL     1       8.958  19.581  54.004  1.00  0.00    -0.187 NA
HETATM   14  N   UNL     1       9.048  20.025  55.267  1.00  0.00    -0.289 N 
HETATM   15  H   UNL     1       9.387  19.385  55.979  1.00  0.00     0.188 HD
HETATM   16  C   UNL     1       8.648  21.322  55.417  1.00  0.00     0.123 A 
ENDBRANCH   7  11
ENDBRANCH   2   5
BRANCH   1  17
HETATM   17  C   UNL     1       7.295  27.595  56.245  1.00  0.00     0.103 C 
BRANCH  17  18
HETATM   18  C   UNL     1       7.535  28.289  57.589  1.00  0.00     0.014 C 
BRANCH  18  19
HETATM   19  C   UNL     1       8.118  29.698  57.431  1.00  0.00     0.046 C 
BRANCH  19  20
HETATM   20  C   UNL     1       7.804  30.552  58.626  1.00  0.00    -0.017 A 
HETATM   21  S   UNL     1       8.828  30.536  59.997  1.00  0.00    -0.100 SA
HETATM   22  C   UNL     1       7.854  31.673  60.825  1.00  0.00    -0.021 A 
HETATM   23  C   UNL     1       8.234  32.125  62.193  1.00  0.00     0.056 C 
HETATM   24  C   UNL     1       6.770  32.060  60.066  1.00  0.00     0.015 A 
HETATM   25  C   UNL     1       6.740  31.412  58.799  1.00  0.00     0.015 A 
ENDBRANCH  19  20
ENDBRANCH  18  19
ENDBRANCH  17  18
ENDBRANCH   1  17
TORSDOF 6
ENDMDL
MODEL 5
REMARK VINA RESULT:      -8.3      2.192      2.897
REMARK  6 active torsions:
REMARK  status: ('A' for Active; 'I' for Inactive)
REMARK    1  A    between atoms: C_4  and  C_5 
REMARK    2  A    between atoms: C_5  and  C_6 
REMARK    3  A    between atoms: C_6  and  C_7 
REMARK    4  A    between atoms: C_7  and  C_8 
REMARK       I    between atoms: C_8  and  N_9 
REMARK    5  A    between atoms: N_9  and  C_10 
REMARK    6  A    between atoms: C_12  and  C_13 
ROOT
HETATM    1  C   UNL     1       4.152  27.717  53.210  1.00  0.00     0.222 C 
HETATM    2  N   UNL     1       4.425  26.385  53.124  1.00  0.00    -0.327 N 
HETATM    3  O   UNL     1       2.973  28.057  53.069  1.00  0.00    -0.273 OA
HETATM    4  H   UNL     1       3.560  25.875  52.978  1.00  0.00     0.169 HD
ENDROOT
BRANCH   2   5
HETATM    5  C   UNL     1       5.590  25.596  53.188  1.00  0.00     0.035 A 
HETATM    6  C   UNL     1       6.033  24.872  54.296  1.00  0.00     0.042 A 
HETATM    7  C   UNL     1       7.220  24.114  54.248  1.00  0.00    -0.021 A 
HETATM    8  C   UNL     1       7.971  24.098  53.069  1.00  0.00     0.012 A 
HETATM    9  C   UNL     1       7.545  24.820  51.957  1.00  0.00     0.003 A 
HETATM   10  C   UNL     1       6.365  25.561  52.019  1.00  0.00     0.029 A 
BRANCH   7  11
HETATM   11  C   UNL     1       7.678  23.366  55.409  1.00  0.00     0.010 A 
HETATM   12  C   UNL     1       7.964  21.988  55.567  1.00  0.00     0.152 A 
HETATM   13  N   UNL     1       8.349  21.678  56.807  1.00  0.00    -0.187 NA
HETATM   14  N   UNL     1       8.309  22.853  57.452  1.00  0.00    -0.289 N 
HETATM   15  H   UNL     1       8.562  22.872  58.435  1.00  0.00     0.188 HD
HETATM   16  C   UNL     1       7.912  23.894  56.662  1.00  0.00     0.123 A 
ENDBRANCH   7  11
ENDBRANCH   2   5
BRANCH   1  17
HETATM   17  C   UNL     1       5.238  28.737  53.474  1.00  0.00     0.103 C 
BRANCH  17  18
HETATM   18  C   UNL     1       5.235  29.283  54.904  1.00  0.00     0.014 C 
BRANCH  18  19
HETATM   19  C   UNL     1       5.744  28.262  55.928  1.00  0.00     0.046 C 
BRANCH  19  20
HETATM   20  C   UNL     1       7.018  28.729  56.572  1.00  0.00    -0.017 A 
HETATM   21  S   UNL     1       8.452  28.880  55.650  1.00  0.00    -0.100 SA
HETATM   22  C   UNL     1       9.351  29.414  57.005  1.00  0.00    -0.021 A 
HETATM   23  C   UNL     1      10.795  29.749  56.856  1.00  0.00     0.056 C 
HETATM   24  C   UNL     1       8.568  29.480  58.138  1.00  0.00     0.015 A 
HETATM   25  C   UNL     1       7.224  29.083  57.889  1.00  0.00     0.015 A 
ENDBRANCH  19  20
ENDBRANCH  18  19
ENDBRANCH  17  18
ENDBRANCH   1  17
TORSDOF 6
ENDMDL
MODEL 6
REMARK VINA RESULT:      -8.3      3.308      7.620
REMARK  6 active torsions:
REMARK  status: ('A' for Active; 'I' for Inactive)
REMARK    1  A    between atoms: C_4  and  C_5 
REMARK    2  A    between atoms: C_5  and  C_6 
REMARK    3  A    between atoms: C_6  and  C_7 
REMARK    4  A    between atoms: C_7  and  C_8 
REMARK       I    between atoms: C_8  and  N_9 
REMARK    5  A    between atoms: N_9  and  C_10 
REMARK    6  A    between atoms: C_12  and  C_13 
ROOT
HETATM    1  C   UNL     1       5.503  26.869  52.868  1.00  0.00     0.222 C 
HETATM    2  N   UNL     1       5.510  27.355  54.141  1.00  0.00    -0.327 N 
HETATM    3  O   UNL     1       4.500  27.101  52.186  1.00  0.00    -0.273 OA
HETATM    4  H   UNL     1       4.653  27.874  54.305  1.00  0.00     0.169 HD
ENDROOT
BRANCH   2   5
HETATM    5  C   UNL     1       6.401  27.297  55.230  1.00  0.00     0.035 A 
HETATM    6  C   UNL     1       7.289  28.300  55.620  1.00  0.00     0.042 A 
HETATM    7  C   UNL     1       8.141  28.134  56.731  1.00  0.00    -0.021 A 
HETATM    8  C   UNL     1       8.099  26.934  57.446  1.00  0.00     0.012 A 
HETATM    9  C   UNL     1       7.222  25.921  57.066  1.00  0.00     0.003 A 
HETATM   10  C   UNL     1       6.383  26.104  55.966  1.00  0.00     0.029 A 
BRANCH   7  11
HETATM   11  C   UNL     1       9.067  29.182  57.128  1.00  0.00     0.010 A 
HETATM   12  C   UNL     1       9.055  30.052  58.246  1.00  0.00     0.152 A 
HETATM   13  N   UNL     1      10.085  30.902  58.252  1.00  0.00    -0.187 NA
HETATM   14  N   UNL     1      10.761  30.585  57.138  1.00  0.00    -0.289 N 
HETATM   15  H   UNL     1      11.602  31.110  56.919  1.00  0.00     0.188 HD
HETATM   16  C   UNL     1      10.193  29.565  56.428  1.00  0.00     0.123 A 
ENDBRANCH   7  11
ENDBRANCH   2   5
BRANCH   1  17
HETATM   17  C   UNL     1       6.671  26.088  52.308  1.00  0.00     0.103 C 
BRANCH  17  18
HETATM   18  C   UNL     1       6.625  24.593  52.636  1.00  0.00     0.014 C 
BRANCH  18  19
HETATM   19  C   UNL     1       7.995  23.917  52.508  1.00  0.00     0.046 C 
BRANCH  19  20
HETATM   20  C   UNL     1       8.090  22.711  53.397  1.00  0.00    -0.017 A 
HETATM   21  S   UNL     1       8.411  22.888  55.069  1.00  0.00    -0.100 SA
HETATM   22  C   UNL     1       8.360  21.197  55.330  1.00  0.00    -0.021 A 
HETATM   23  C   UNL     1       8.577  20.647  56.698  1.00  0.00     0.056 C 
HETATM   24  C   UNL     1       8.099  20.512  54.162  1.00  0.00     0.015 A 
HETATM   25  C   UNL     1       7.946  21.384  53.048  1.00  0.00     0.015 A 
ENDBRANCH  19  20
ENDBRANCH  18  19
ENDBRANCH  17  18
ENDBRANCH   1  17
TORSDOF 6
ENDMDL
MODEL 7
REMARK VINA RESULT:      -8.1      1.697      2.651
REMARK  6 active torsions:
REMARK  status: ('A' for Active; 'I' for Inactive)
REMARK    1  A    between atoms: C_4  and  C_5 
REMARK    2  A    between atoms: C_5  and  C_6 
REMARK    3  A    between atoms: C_6  and  C_7 
REMARK    4  A    between atoms: C_7  and  C_8 
REMARK       I    between atoms: C_8  and  N_9 
REMARK    5  A    between atoms: N_9  and  C_10 
REMARK    6  A    between atoms: C_12  and  C_13 
ROOT
HETATM    1  C   UNL     1       5.238  26.659  53.784  1.00  0.00     0.222 C 
HETATM    2  N   UNL     1       5.267  25.725  54.775  1.00  0.00    -0.327 N 
HETATM    3  O   UNL     1       4.136  27.137  53.498  1.00  0.00    -0.273 OA
HETATM    4  H   UNL     1       4.330  25.599  55.144  1.00  0.00     0.169 HD
ENDROOT
BRANCH   2   5
HETATM    5  C   UNL     1       6.264  24.930  55.373  1.00  0.00     0.035 A 
HETATM    6  C   UNL     1       6.721  23.696  54.909  1.00  0.00     0.042 A 
HETATM    7  C   UNL     1       7.727  22.983  55.591  1.00  0.00    -0.021 A 
HETATM    8  C   UNL     1       8.268  23.522  56.762  1.00  0.00     0.012 A 
HETATM    9  C   UNL     1       7.818  24.750  57.242  1.00  0.00     0.003 A 
HETATM   10  C   UNL     1       6.825  25.444  56.552  1.00  0.00     0.029 A 
BRANCH   7  11
HETATM   11  C   UNL     1       8.195  21.695  55.103  1.00  0.00     0.010 A 
HETATM   12  C   UNL     1       8.166  21.132  53.804  1.00  0.00     0.152 A 
HETATM   13  N   UNL     1       8.684  19.902  53.761  1.00  0.00    -0.187 NA
HETATM   14  N   UNL     1       9.043  19.667  55.031  1.00  0.00    -0.289 N 
HETATM   15  H   UNL     1       9.466  18.772  55.254  1.00  0.00     0.188 HD
HETATM   16  C   UNL     1       8.770  20.706  55.875  1.00  0.00     0.123 A 
ENDBRANCH   7  11
ENDBRANCH   2   5
BRANCH   1  17
HETATM   17  C   UNL     1       6.496  27.098  53.068  1.00  0.00     0.103 C 
BRANCH  17  18
HETATM   18  C   UNL     1       7.071  28.419  53.589  1.00  0.00     0.014 C 
BRANCH  18  19
HETATM   19  C   UNL     1       8.204  28.212  54.600  1.00  0.00     0.046 C 
BRANCH  19  20
HETATM   20  C   UNL     1       7.861  28.817  55.931  1.00  0.00    -0.017 A 
HETATM   21  S   UNL     1       9.096  29.251  57.032  1.00  0.00    -0.100 SA
HETATM   22  C   UNL     1       7.967  29.813  58.188  1.00  0.00    -0.021 A 
HETATM   23  C   UNL     1       8.442  30.372  59.484  1.00  0.00     0.056 C 
HETATM   24  C   UNL     1       6.671  29.675  57.738  1.00  0.00     0.015 A 
HETATM   25  C   UNL     1       6.609  29.099  56.438  1.00  0.00     0.015 A 
ENDBRANCH  19  20
ENDBRANCH  18  19
ENDBRANCH  17  18
ENDBRANCH   1  17
TORSDOF 6
ENDMDL
MODEL 8
REMARK VINA RESULT:      -8.1      3.692      7.635
REMARK  6 active torsions:
REMARK  status: ('A' for Active; 'I' for Inactive)
REMARK    1  A    between atoms: C_4  and  C_5 
REMARK    2  A    between atoms: C_5  and  C_6 
REMARK    3  A    between atoms: C_6  and  C_7 
REMARK    4  A    between atoms: C_7  and  C_8 
REMARK       I    between atoms: C_8  and  N_9 
REMARK    5  A    between atoms: N_9  and  C_10 
REMARK    6  A    between atoms: C_12  and  C_13 
ROOT
HETATM    1  C   UNL     1       5.059  25.528  52.258  1.00  0.00     0.222 C 
HETATM    2  N   UNL     1       4.316  26.264  53.131  1.00  0.00    -0.327 N 
HETATM    3  O   UNL     1       4.596  24.438  51.909  1.00  0.00    -0.273 OA
HETATM    4  H   UNL     1       3.452  25.771  53.332  1.00  0.00     0.169 HD
ENDROOT
BRANCH   2   5
HETATM    5  C   UNL     1       4.476  27.499  53.789  1.00  0.00     0.035 A 
HETATM    6  C   UNL     1       5.298  27.744  54.890  1.00  0.00     0.042 A 
HETATM    7  C   UNL     1       5.380  29.026  55.472  1.00  0.00    -0.021 A 
HETATM    8  C   UNL     1       4.612  30.065  54.939  1.00  0.00     0.012 A 
HETATM    9  C   UNL     1       3.782  29.834  53.845  1.00  0.00     0.003 A 
HETATM   10  C   UNL     1       3.716  28.562  53.278  1.00  0.00     0.029 A 
BRANCH   7  11
HETATM   11  C   UNL     1       6.235  29.273  56.622  1.00  0.00     0.010 A 
HETATM   12  C   UNL     1       6.306  30.381  57.501  1.00  0.00     0.152 A 
HETATM   13  N   UNL     1       7.247  30.240  58.438  1.00  0.00    -0.187 NA
HETATM   14  N   UNL     1       7.787  29.043  58.163  1.00  0.00    -0.289 N 
HETATM   15  H   UNL     1       8.545  28.711  58.751  1.00  0.00     0.188 HD
HETATM   16  C   UNL     1       7.220  28.424  57.085  1.00  0.00     0.123 A 
ENDBRANCH   7  11
ENDBRANCH   2   5
BRANCH   1  17
HETATM   17  C   UNL     1       6.388  26.023  51.731  1.00  0.00     0.103 C 
BRANCH  17  18
HETATM   18  C   UNL     1       7.575  25.139  52.125  1.00  0.00     0.014 C 
BRANCH  18  19
HETATM   19  C   UNL     1       7.630  24.860  53.632  1.00  0.00     0.046 C 
BRANCH  19  20
HETATM   20  C   UNL     1       7.766  23.391  53.907  1.00  0.00    -0.017 A 
HETATM   21  S   UNL     1       7.950  22.821  55.510  1.00  0.00    -0.100 SA
HETATM   22  C   UNL     1       8.029  21.190  54.996  1.00  0.00    -0.021 A 
HETATM   23  C   UNL     1       8.195  20.100  55.998  1.00  0.00     0.056 C 
HETATM   24  C   UNL     1       7.913  21.084  53.626  1.00  0.00     0.015 A 
HETATM   25  C   UNL     1       7.764  22.353  52.998  1.00  0.00     0.015 A 
ENDBRANCH  19  20
ENDBRANCH  18  19
ENDBRANCH  17  18
ENDBRANCH   1  17
TORSDOF 6
ENDMDL
MODEL 9
REMARK VINA RESULT:      -8.0      1.781      2.693
REMARK  6 active torsions:
REMARK  status: ('A' for Active; 'I' for Inactive)
REMARK    1  A    between atoms: C_4  and  C_5 
REMARK    2  A    between atoms: C_5  and  C_6 
REMARK    3  A    between atoms: C_6  and  C_7 
REMARK    4  A    between atoms: C_7  and  C_8 
REMARK       I    between atoms: C_8  and  N_9 
REMARK    5  A    between atoms: N_9  and  C_10 
REMARK    6  A    between atoms: C_12  and  C_13 
ROOT
HETATM    1  C   UNL     1       5.980  27.414  55.503  1.00  0.00     0.222 C 
HETATM    2  N   UNL     1       5.954  26.137  55.978  1.00  0.00    -0.327 N 
HETATM    3  O   UNL     1       4.921  28.047  55.542  1.00  0.00    -0.273 OA
HETATM    4  H   UNL     1       5.023  25.928  56.324  1.00  0.00     0.169 HD
ENDROOT
BRANCH   2   5
HETATM    5  C   UNL     1       6.889  25.090  56.088  1.00  0.00     0.035 A 
HETATM    6  C   UNL     1       7.026  24.014  55.210  1.00  0.00     0.042 A 
HETATM    7  C   UNL     1       8.001  23.017  55.418  1.00  0.00    -0.021 A 
HETATM    8  C   UNL     1       8.837  23.106  56.536  1.00  0.00     0.012 A 
HETATM    9  C   UNL     1       8.708  24.170  57.425  1.00  0.00     0.003 A 
HETATM   10  C   UNL     1       7.741  25.151  57.200  1.00  0.00     0.029 A 
BRANCH   7  11
HETATM   11  C   UNL     1       8.135  21.896  54.501  1.00  0.00     0.010 A 
HETATM   12  C   UNL     1       8.582  20.570  54.720  1.00  0.00     0.152 A 
HETATM   13  N   UNL     1       8.577  19.832  53.607  1.00  0.00    -0.187 NA
HETATM   14  N   UNL     1       8.132  20.680  52.669  1.00  0.00    -0.289 N 
HETATM   15  H   UNL     1       8.045  20.341  51.716  1.00  0.00     0.188 HD
HETATM   16  C   UNL     1       7.856  21.929  53.150  1.00  0.00     0.123 A 
ENDBRANCH   7  11
ENDBRANCH   2   5
BRANCH   1  17
HETATM   17  C   UNL     1       7.249  28.034  54.960  1.00  0.00     0.103 C 
BRANCH  17  18
HETATM   18  C   UNL     1       7.814  29.152  55.841  1.00  0.00     0.014 C 
BRANCH  18  19
HETATM   19  C   UNL     1       7.824  28.784  57.329  1.00  0.00     0.046 C 
BRANCH  19  20
HETATM   20  C   UNL     1       7.506  29.976  58.184  1.00  0.00    -0.017 A 
HETATM   21  S   UNL     1       8.523  30.402  59.493  1.00  0.00    -0.100 SA
HETATM   22  C   UNL     1       7.546  31.744  59.908  1.00  0.00    -0.021 A 
HETATM   23  C   UNL     1       7.921  32.612  61.059  1.00  0.00     0.056 C 
HETATM   24  C   UNL     1       6.466  31.867  59.059  1.00  0.00     0.015 A 
HETATM   25  C   UNL     1       6.442  30.846  58.067  1.00  0.00     0.015 A 
ENDBRANCH  19  20
ENDBRANCH  18  19
ENDBRANCH  17  18
ENDBRANCH   1  17
TORSDOF 6
ENDMDL
MODEL 10
REMARK VINA RESULT:      -7.9      4.095      6.448
REMARK  6 active torsions:
REMARK  status: ('A' for Active; 'I' for Inactive)
REMARK    1  A    between atoms: C_4  and  C_5 
REMARK    2  A    between atoms: C_5  and  C_6 
REMARK    3  A    between atoms: C_6  and  C_7 
REMARK    4  A    between atoms: C_7  and  C_8 
REMARK       I    between atoms: C_8  and  N_9 
REMARK    5  A    between atoms: N_9  and  C_10 
REMARK    6  A    between atoms: C_12  and  C_13 
ROOT
HETATM    1  C   UNL     1       9.420  31.269  58.894  1.00  0.00     0.222 C 
HETATM    2  N   UNL     1       8.802  30.736  57.803  1.00  0.00    -0.327 N 
HETATM    3  O   UNL     1      10.146  32.249  58.704  1.00  0.00    -0.273 OA
HETATM    4  H   UNL     1       9.039  31.286  56.983  1.00  0.00     0.169 HD
ENDROOT
BRANCH   2   5
HETATM    5  C   UNL     1       7.948  29.641  57.570  1.00  0.00     0.035 A 
HETATM    6  C   UNL     1       8.345  28.339  57.263  1.00  0.00     0.042 A 
HETATM    7  C   UNL     1       7.400  27.315  57.048  1.00  0.00    -0.021 A 
HETATM    8  C   UNL     1       6.038  27.618  57.135  1.00  0.00     0.012 A 
HETATM    9  C   UNL     1       5.626  28.914  57.434  1.00  0.00     0.003 A 
HETATM   10  C   UNL     1       6.574  29.914  57.649  1.00  0.00     0.029 A 
BRANCH   7  11
HETATM   11  C   UNL     1       7.822  25.962  56.723  1.00  0.00     0.010 A 
HETATM   12  C   UNL     1       7.628  25.188  55.553  1.00  0.00     0.152 A 
HETATM   13  N   UNL     1       8.158  23.967  55.645  1.00  0.00    -0.187 NA
HETATM   14  N   UNL     1       8.691  23.948  56.876  1.00  0.00    -0.289 N 
HETATM   15  H   UNL     1       9.158  23.101  57.185  1.00  0.00     0.188 HD
HETATM   16  C   UNL     1       8.516  25.115  57.563  1.00  0.00     0.123 A 
ENDBRANCH   7  11
ENDBRANCH   2   5
BRANCH   1  17
HETATM   17  C   UNL     1       9.222  30.694  60.280  1.00  0.00     0.103 C 
BRANCH  17  18
HETATM   18  C   UNL     1       9.098  31.756  61.375  1.00  0.00     0.014 C 
BRANCH  18  19
HETATM   19  C   UNL     1       7.815  32.586  61.251  1.00  0.00     0.046 C 
BRANCH  19  20
HETATM   20  C   UNL     1       7.360  33.085  62.592  1.00  0.00    -0.017 A 
HETATM   21  S   UNL     1       6.020  34.142  62.717  1.00  0.00    -0.100 SA
HETATM   22  C   UNL     1       6.152  34.223  64.421  1.00  0.00    -0.021 A 
HETATM   23  C   UNL     1       5.192  35.049  65.205  1.00  0.00     0.056 C 
HETATM   24  C   UNL     1       7.198  33.453  64.886  1.00  0.00     0.015 A 
HETATM   25  C   UNL     1       7.896  32.799  63.831  1.00  0.00     0.015 A 
ENDBRANCH  19  20
ENDBRANCH  18  19
ENDBRANCH  17  18
ENDBRANCH   1  17
TORSDOF 6
ENDMDL
