MODEL 1
REMARK VINA RESULT:     -10.7      0.000      0.000
REMARK  3 active torsions:
REMARK  status: ('A' for Active; 'I' for Inactive)
REMARK    1  A    between atoms: C_5  and  C_6 
REMARK    2  A    between atoms: C_10  and  C_11 
REMARK       I    between atoms: C_11  and  N_12 
REMARK    3  A    between atoms: N_12  and  N_13 
ROOT
HETATM    1  C   UNL     1       8.832  29.324  56.660  1.00  0.00     0.289 C 
HETATM    2  N   UNL     1       7.782  28.420  56.627  1.00  0.00    -0.241 N 
HETATM    3  O   UNL     1       9.734  29.363  55.826  1.00  0.00    -0.264 OA
HETATM    4  H   UNL     1       7.068  28.427  57.354  1.00  0.00     0.192 HD
ENDROOT
BRANCH   1   5
HETATM    5  C   UNL     1       8.809  30.238  57.774  1.00  0.00     0.121 A 
HETATM    6  N   UNL     1       9.759  31.212  57.904  1.00  0.00    -0.272 N 
HETATM    7  N   UNL     1       9.627  31.967  59.001  1.00  0.00    -0.174 NA
HETATM    8  H   UNL     1      10.530  31.392  57.268  1.00  0.00     0.189 HD
HETATM    9  C   UNL     1       8.531  31.491  59.614  1.00  0.00     0.089 A 
HETATM   10  C   UNL     1       7.988  30.402  58.872  1.00  0.00     0.071 A 
BRANCH   9  11
HETATM   11  C   UNL     1       8.046  32.066  60.873  1.00  0.00    -0.006 A 
HETATM   12  C   UNL     1       6.868  32.824  60.921  1.00  0.00     0.014 A 
HETATM   13  C   UNL     1       6.415  33.364  62.131  1.00  0.00     0.007 A 
HETATM   14  C   UNL     1       7.134  33.163  63.313  1.00  0.00    -0.062 A 
HETATM   15  C   UNL     1       6.640  33.714  64.618  1.00  0.00     0.048 C 
HETATM   16  C   UNL     1       8.305  32.400  63.273  1.00  0.00     0.007 A 
HETATM   17  C   UNL     1       8.758  31.864  62.064  1.00  0.00     0.014 A 
ENDBRANCH   9  11
ENDBRANCH   1   5
BRANCH   2  18
HETATM   18  N   UNL     1       7.710  27.476  55.639  1.00  0.00    -0.165 NA
HETATM   19  C   UNL     1       7.690  26.240  56.019  1.00  0.00     0.157 A 
HETATM   20  C   UNL     1       7.730  25.680  57.445  1.00  0.00     0.277 A 
HETATM   21  C   UNL     1       7.626  25.080  55.138  1.00  0.00     0.027 A 
HETATM   22  O   UNL     1       7.786  26.358  58.450  1.00  0.00    -0.266 OA
HETATM   23  N   UNL     1       7.690  24.310  57.307  1.00  0.00    -0.321 N 
HETATM   24  C   UNL     1       7.631  23.955  55.961  1.00  0.00     0.048 A 
HETATM   25  H   UNL     1       7.706  23.670  58.087  1.00  0.00     0.169 HD
HETATM   26  C   UNL     1       7.583  22.683  55.431  1.00  0.00     0.030 A 
HETATM   27  C   UNL     1       7.529  22.571  54.035  1.00  0.00     0.002 A 
HETATM   28  C   UNL     1       7.525  23.716  53.209  1.00  0.00     0.001 A 
HETATM   29  C   UNL     1       7.574  24.996  53.763  1.00  0.00     0.016 A 
ENDBRANCH   2  18
TORSDOF 3
ENDMDL
MODEL 2
REMARK VINA RESULT:     -10.4      1.450      2.087
REMARK  3 active torsions:
REMARK  status: ('A' for Active; 'I' for Inactive)
REMARK    1  A    between atoms: C_5  and  C_6 
REMARK    2  A    between atoms: C_10  and  C_11 
REMARK       I    between atoms: C_11  and  N_12 
REMARK    3  A    between atoms: N_12  and  N_13 
ROOT
HETATM    1  C   UNL     1       9.085  29.329  57.438  1.00  0.00     0.289 C 
HETATM    2  N   UNL     1       8.100  28.355  57.440  1.00  0.00    -0.241 N 
HETATM    3  O   UNL     1      10.031  29.351  56.653  1.00  0.00    -0.264 OA
HETATM    4  H   UNL     1       7.346  28.382  58.124  1.00  0.00     0.192 HD
ENDROOT
BRANCH   1   5
HETATM    5  C   UNL     1       8.937  30.343  58.451  1.00  0.00     0.121 A 
HETATM    6  N   UNL     1       9.697  31.479  58.427  1.00  0.00    -0.272 N 
HETATM    7  N   UNL     1       9.470  32.316  59.447  1.00  0.00    -0.174 NA
HETATM    8  H   UNL     1      10.398  31.722  57.733  1.00  0.00     0.189 HD
HETATM    9  C   UNL     1       8.503  31.723  60.166  1.00  0.00     0.089 A 
HETATM   10  C   UNL     1       8.141  30.480  59.572  1.00  0.00     0.071 A 
BRANCH   9  11
HETATM   11  C   UNL     1       7.967  32.340  61.384  1.00  0.00    -0.006 A 
HETATM   12  C   UNL     1       8.534  32.083  62.640  1.00  0.00     0.014 A 
HETATM   13  C   UNL     1       8.015  32.682  63.794  1.00  0.00     0.007 A 
HETATM   14  C   UNL     1       6.916  33.543  63.716  1.00  0.00    -0.062 A 
HETATM   15  C   UNL     1       6.372  34.211  64.944  1.00  0.00     0.048 C 
HETATM   16  C   UNL     1       6.352  33.811  62.465  1.00  0.00     0.007 A 
HETATM   17  C   UNL     1       6.870  33.209  61.313  1.00  0.00     0.014 A 
ENDBRANCH   9  11
ENDBRANCH   1   5
BRANCH   2  18
HETATM   18  N   UNL     1       8.149  27.318  56.550  1.00  0.00    -0.165 NA
HETATM   19  C   UNL     1       7.063  27.066  55.893  1.00  0.00     0.157 A 
HETATM   20  C   UNL     1       5.712  27.783  55.972  1.00  0.00     0.277 A 
HETATM   21  C   UNL     1       6.893  26.005  54.907  1.00  0.00     0.027 A 
HETATM   22  O   UNL     1       5.477  28.729  56.696  1.00  0.00    -0.266 OA
HETATM   23  N   UNL     1       4.891  27.130  55.081  1.00  0.00    -0.321 N 
HETATM   24  C   UNL     1       5.576  26.089  54.457  1.00  0.00     0.048 A 
HETATM   25  H   UNL     1       3.928  27.384  54.920  1.00  0.00     0.169 HD
HETATM   26  C   UNL     1       5.087  25.213  53.511  1.00  0.00     0.030 A 
HETATM   27  C   UNL     1       5.968  24.238  53.024  1.00  0.00     0.002 A 
HETATM   28  C   UNL     1       7.300  24.159  53.486  1.00  0.00     0.001 A 
HETATM   29  C   UNL     1       7.778  25.055  54.445  1.00  0.00     0.016 A 
ENDBRANCH   2  18
TORSDOF 3
ENDMDL
MODEL 3
REMARK VINA RESULT:     -10.1      2.060      9.520
REMARK  3 active torsions:
REMARK  status: ('A' for Active; 'I' for Inactive)
REMARK    1  A    between atoms: C_5  and  C_6 
REMARK    2  A    between atoms: C_10  and  C_11 
REMARK       I    between atoms: C_11  and  N_12 
REMARK    3  A    between atoms: N_12  and  N_13 
ROOT
HETATM    1  C   UNL     1       5.997  29.836  57.475  1.00  0.00     0.289 C 
HETATM    2  N   UNL     1       6.948  30.676  58.030  1.00  0.00    -0.241 N 
HETATM    3  O   UNL     1       4.802  29.864  57.760  1.00  0.00    -0.264 OA
HETATM    4  H   UNL     1       7.929  30.597  57.764  1.00  0.00     0.192 HD
ENDROOT
BRANCH   1   5
HETATM    5  C   UNL     1       6.511  28.886  56.521  1.00  0.00     0.121 A 
HETATM    6  N   UNL     1       7.216  29.302  55.425  1.00  0.00    -0.272 N 
HETATM    7  N   UNL     1       7.605  28.311  54.613  1.00  0.00    -0.174 NA
HETATM    8  H   UNL     1       7.448  30.260  55.184  1.00  0.00     0.189 HD
HETATM    9  C   UNL     1       7.161  27.190  55.204  1.00  0.00     0.089 A 
HETATM   10  C   UNL     1       6.468  27.510  56.407  1.00  0.00     0.071 A 
BRANCH   9  11
HETATM   11  C   UNL     1       7.394  25.868  54.612  1.00  0.00    -0.006 A 
HETATM   12  C   UNL     1       7.352  24.704  55.391  1.00  0.00     0.014 A 
HETATM   13  C   UNL     1       7.572  23.448  54.812  1.00  0.00     0.007 A 
HETATM   14  C   UNL     1       7.846  23.333  53.446  1.00  0.00    -0.062 A 
HETATM   15  C   UNL     1       8.055  21.990  52.812  1.00  0.00     0.048 C 
HETATM   16  C   UNL     1       7.881  24.490  52.662  1.00  0.00     0.007 A 
HETATM   17  C   UNL     1       7.664  25.744  53.242  1.00  0.00     0.014 A 
ENDBRANCH   9  11
ENDBRANCH   1   5
BRANCH   2  18
HETATM   18  N   UNL     1       6.592  31.597  58.976  1.00  0.00    -0.165 NA
HETATM   19  C   UNL     1       7.248  31.567  60.092  1.00  0.00     0.157 A 
HETATM   20  C   UNL     1       8.389  30.630  60.501  1.00  0.00     0.277 A 
HETATM   21  C   UNL     1       7.027  32.446  61.233  1.00  0.00     0.027 A 
HETATM   22  O   UNL     1       8.848  29.755  59.796  1.00  0.00    -0.266 OA
HETATM   23  N   UNL     1       8.735  31.003  61.780  1.00  0.00    -0.321 N 
HETATM   24  C   UNL     1       7.941  32.064  62.213  1.00  0.00     0.048 A 
HETATM   25  H   UNL     1       9.465  30.556  62.314  1.00  0.00     0.169 HD
HETATM   26  C   UNL     1       7.989  32.704  63.433  1.00  0.00     0.030 A 
HETATM   27  C   UNL     1       7.083  33.751  63.645  1.00  0.00     0.002 A 
HETATM   28  C   UNL     1       6.159  34.132  62.647  1.00  0.00     0.001 A 
HETATM   29  C   UNL     1       6.124  33.472  61.417  1.00  0.00     0.016 A 
ENDBRANCH   2  18
TORSDOF 3
ENDMDL
MODEL 4
REMARK VINA RESULT:      -9.8      8.028     11.044
REMARK  3 active torsions:
REMARK  status: ('A' for Active; 'I' for Inactive)
REMARK    1  A    between atoms: C_5  and  C_6 
REMARK    2  A    between atoms: C_10  and  C_11 
REMARK       I    between atoms: C_11  and  N_12 
REMARK    3  A    between atoms: N_12  and  N_13 
ROOT
HETATM    1  C   UNL     1       4.626  27.138  51.563  1.00  0.00     0.289 C 
HETATM    2  N   UNL     1       4.248  27.061  50.233  1.00  0.00    -0.241 N 
HETATM    3  O   UNL     1       4.221  27.994  52.347  1.00  0.00    -0.264 OA
HETATM    4  H   UNL     1       4.628  26.336  49.626  1.00  0.00     0.192 HD
ENDROOT
BRANCH   1   5
HETATM    5  C   UNL     1       5.564  26.129  51.985  1.00  0.00     0.121 A 
HETATM    6  N   UNL     1       6.794  26.022  51.399  1.00  0.00    -0.272 N 
HETATM    7  N   UNL     1       7.546  25.021  51.873  1.00  0.00    -0.174 NA
HETATM    8  H   UNL     1       7.163  26.610  50.657  1.00  0.00     0.189 HD
HETATM    9  C   UNL     1       6.794  24.453  52.830  1.00  0.00     0.089 A 
HETATM   10  C   UNL     1       5.540  25.122  52.930  1.00  0.00     0.071 A 
BRANCH   9  11
HETATM   11  C   UNL     1       7.276  23.302  53.601  1.00  0.00    -0.006 A 
HETATM   12  C   UNL     1       7.773  22.156  52.965  1.00  0.00     0.014 A 
HETATM   13  C   UNL     1       8.233  21.066  53.714  1.00  0.00     0.007 A 
HETATM   14  C   UNL     1       8.200  21.099  55.111  1.00  0.00    -0.062 A 
HETATM   15  C   UNL     1       8.718  19.947  55.921  1.00  0.00     0.048 C 
HETATM   16  C   UNL     1       7.715  22.243  55.751  1.00  0.00     0.007 A 
HETATM   17  C   UNL     1       7.252  23.330  55.002  1.00  0.00     0.014 A 
ENDBRANCH   9  11
ENDBRANCH   1   5
BRANCH   2  18
HETATM   18  N   UNL     1       3.390  27.985  49.702  1.00  0.00    -0.165 NA
HETATM   19  C   UNL     1       2.666  27.597  48.701  1.00  0.00     0.157 A 
HETATM   20  C   UNL     1       2.635  26.223  48.024  1.00  0.00     0.277 A 
HETATM   21  C   UNL     1       1.699  28.417  47.983  1.00  0.00     0.027 A 
HETATM   22  O   UNL     1       3.316  25.276  48.357  1.00  0.00    -0.266 OA
HETATM   23  N   UNL     1       1.706  26.329  47.013  1.00  0.00    -0.321 N 
HETATM   24  C   UNL     1       1.158  27.609  46.984  1.00  0.00     0.048 A 
HETATM   25  H   UNL     1       1.472  25.572  46.388  1.00  0.00     0.169 HD
HETATM   26  C   UNL     1       0.203  28.093  46.114  1.00  0.00     0.030 A 
HETATM   27  C   UNL     1      -0.197  29.426  46.277  1.00  0.00     0.002 A 
HETATM   28  C   UNL     1       0.357  30.237  47.290  1.00  0.00     0.001 A 
HETATM   29  C   UNL     1       1.323  29.731  48.163  1.00  0.00     0.016 A 
ENDBRANCH   2  18
TORSDOF 3
ENDMDL
MODEL 5
REMARK VINA RESULT:      -9.6      2.090      2.979
REMARK  3 active torsions:
REMARK  status: ('A' for Active; 'I' for Inactive)
REMARK    1  A    between atoms: C_5  and  C_6 
REMARK    2  A    between atoms: C_10  and  C_11 
REMARK       I    between atoms: C_11  and  N_12 
REMARK    3  A    between atoms: N_12  and  N_13 
ROOT
HETATM    1  C   UNL     1       6.296  27.012  55.353  1.00  0.00     0.289 C 
HETATM    2  N   UNL     1       7.522  26.435  55.063  1.00  0.00    -0.241 N 
HETATM    3  O   UNL     1       5.213  26.525  55.036  1.00  0.00    -0.264 OA
HETATM    4  H   UNL     1       8.389  26.892  55.340  1.00  0.00     0.192 HD
ENDROOT
BRANCH   1   5
HETATM    5  C   UNL     1       6.369  28.265  56.061  1.00  0.00     0.121 A 
HETATM    6  N   UNL     1       6.363  29.455  55.388  1.00  0.00    -0.272 N 
HETATM    7  N   UNL     1       6.465  30.534  56.175  1.00  0.00    -0.174 NA
HETATM    8  H   UNL     1       6.302  29.580  54.382  1.00  0.00     0.189 HD
HETATM    9  C   UNL     1       6.518  30.042  57.423  1.00  0.00     0.089 A 
HETATM   10  C   UNL     1       6.460  28.618  57.393  1.00  0.00     0.071 A 
BRANCH   9  11
HETATM   11  C   UNL     1       6.631  30.924  58.590  1.00  0.00    -0.006 A 
HETATM   12  C   UNL     1       5.631  31.855  58.899  1.00  0.00     0.014 A 
HETATM   13  C   UNL     1       5.750  32.687  60.018  1.00  0.00     0.007 A 
HETATM   14  C   UNL     1       6.876  32.611  60.844  1.00  0.00    -0.062 A 
HETATM   15  C   UNL     1       6.999  33.479  62.061  1.00  0.00     0.048 C 
HETATM   16  C   UNL     1       7.873  31.677  60.547  1.00  0.00     0.007 A 
HETATM   17  C   UNL     1       7.754  30.848  59.427  1.00  0.00     0.014 A 
ENDBRANCH   9  11
ENDBRANCH   1   5
BRANCH   2  18
HETATM   18  N   UNL     1       7.587  25.262  54.362  1.00  0.00    -0.165 NA
HETATM   19  C   UNL     1       7.907  24.203  55.033  1.00  0.00     0.157 A 
HETATM   20  C   UNL     1       8.221  24.079  56.527  1.00  0.00     0.277 A 
HETATM   21  C   UNL     1       8.043  22.858  54.486  1.00  0.00     0.027 A 
HETATM   22  O   UNL     1       8.208  25.005  57.313  1.00  0.00    -0.266 OA
HETATM   23  N   UNL     1       8.505  22.749  56.739  1.00  0.00    -0.321 N 
HETATM   24  C   UNL     1       8.403  22.031  55.549  1.00  0.00     0.048 A 
HETATM   25  H   UNL     1       8.753  22.367  57.639  1.00  0.00     0.169 HD
HETATM   26  C   UNL     1       8.617  20.682  55.362  1.00  0.00     0.030 A 
HETATM   27  C   UNL     1       8.456  20.180  54.064  1.00  0.00     0.002 A 
HETATM   28  C   UNL     1       8.092  21.025  52.993  1.00  0.00     0.001 A 
HETATM   29  C   UNL     1       7.880  22.389  53.200  1.00  0.00     0.016 A 
ENDBRANCH   2  18
TORSDOF 3
ENDMDL
MODEL 6
REMARK VINA RESULT:      -9.5      2.271      9.514
REMARK  3 active torsions:
REMARK  status: ('A' for Active; 'I' for Inactive)
REMARK    1  A    between atoms: C_5  and  C_6 
REMARK    2  A    between atoms: C_10  and  C_11 
REMARK       I    between atoms: C_11  and  N_12 
REMARK    3  A    between atoms: N_12  and  N_13 
ROOT
HETATM    1  C   UNL     1       8.994  30.650  59.365  1.00  0.00     0.289 C 
HETATM    2  N   UNL     1       8.077  30.356  60.362  1.00  0.00    -0.241 N 
HETATM    3  O   UNL     1       9.869  31.507  59.465  1.00  0.00    -0.264 OA
HETATM    4  H   UNL     1       7.364  29.643  60.218  1.00  0.00     0.192 HD
ENDROOT
BRANCH   1   5
HETATM    5  C   UNL     1       8.847  29.874  58.160  1.00  0.00     0.121 A 
HETATM    6  N   UNL     1       9.627  30.121  57.066  1.00  0.00    -0.272 N 
HETATM    7  N   UNL     1       9.360  29.341  56.011  1.00  0.00    -0.174 NA
HETATM    8  H   UNL     1      10.354  30.826  56.988  1.00  0.00     0.189 HD
HETATM    9  C   UNL     1       8.377  28.526  56.429  1.00  0.00     0.089 A 
HETATM   10  C   UNL     1       8.027  28.831  57.776  1.00  0.00     0.071 A 
BRANCH   9  11
HETATM   11  C   UNL     1       7.800  27.507  55.547  1.00  0.00    -0.006 A 
HETATM   12  C   UNL     1       7.377  26.267  56.045  1.00  0.00     0.014 A 
HETATM   13  C   UNL     1       6.823  25.305  55.193  1.00  0.00     0.007 A 
HETATM   14  C   UNL     1       6.689  25.560  53.824  1.00  0.00    -0.062 A 
HETATM   15  C   UNL     1       6.071  24.546  52.908  1.00  0.00     0.048 C 
HETATM   16  C   UNL     1       7.100  26.798  53.322  1.00  0.00     0.007 A 
HETATM   17  C   UNL     1       7.656  27.758  54.175  1.00  0.00     0.014 A 
ENDBRANCH   9  11
ENDBRANCH   1   5
BRANCH   2  18
HETATM   18  N   UNL     1       8.089  31.050  61.541  1.00  0.00    -0.165 NA
HETATM   19  C   UNL     1       7.208  31.989  61.671  1.00  0.00     0.157 A 
HETATM   20  C   UNL     1       6.134  32.432  60.672  1.00  0.00     0.277 A 
HETATM   21  C   UNL     1       7.051  32.852  62.834  1.00  0.00     0.027 A 
HETATM   22  O   UNL     1       5.962  31.934  59.579  1.00  0.00    -0.266 OA
HETATM   23  N   UNL     1       5.463  33.467  61.284  1.00  0.00    -0.321 N 
HETATM   24  C   UNL     1       5.995  33.717  62.547  1.00  0.00     0.048 A 
HETATM   25  H   UNL     1       4.695  33.964  60.858  1.00  0.00     0.169 HD
HETATM   26  C   UNL     1       5.591  34.674  63.453  1.00  0.00     0.030 A 
HETATM   27  C   UNL     1       6.283  34.741  64.669  1.00  0.00     0.002 A 
HETATM   28  C   UNL     1       7.352  33.862  64.951  1.00  0.00     0.001 A 
HETATM   29  C   UNL     1       7.748  32.898  64.022  1.00  0.00     0.016 A 
ENDBRANCH   2  18
TORSDOF 3
ENDMDL
MODEL 7
REMARK VINA RESULT:      -9.2      2.172      9.487
REMARK  3 active torsions:
REMARK  status: ('A' for Active; 'I' for Inactive)
REMARK    1  A    between atoms: C_5  and  C_6 
REMARK    2  A    between atoms: C_10  and  C_11 
REMARK       I    between atoms: C_11  and  N_12 
REMARK    3  A    between atoms: N_12  and  N_13 
ROOT
HETATM    1  C   UNL     1       7.986  31.277  59.005  1.00  0.00     0.289 C 
HETATM    2  N   UNL     1       6.851  31.224  59.798  1.00  0.00    -0.241 N 
HETATM    3  O   UNL     1       8.713  32.263  58.907  1.00  0.00    -0.264 OA
HETATM    4  H   UNL     1       6.279  30.382  59.829  1.00  0.00     0.192 HD
ENDROOT
BRANCH   1   5
HETATM    5  C   UNL     1       8.266  30.071  58.267  1.00  0.00     0.121 A 
HETATM    6  N   UNL     1       9.466  29.895  57.637  1.00  0.00    -0.272 N 
HETATM    7  N   UNL     1       9.573  28.740  56.968  1.00  0.00    -0.174 NA
HETATM    8  H   UNL     1      10.244  30.548  57.625  1.00  0.00     0.189 HD
HETATM    9  C   UNL     1       8.406  28.112  57.182  1.00  0.00     0.089 A 
HETATM   10  C   UNL     1       7.557  28.917  57.996  1.00  0.00     0.071 A 
BRANCH   9  11
HETATM   11  C   UNL     1       8.130  26.791  56.608  1.00  0.00    -0.006 A 
HETATM   12  C   UNL     1       7.620  26.653  55.310  1.00  0.00     0.014 A 
HETATM   13  C   UNL     1       7.365  25.386  54.773  1.00  0.00     0.007 A 
HETATM   14  C   UNL     1       7.608  24.233  55.525  1.00  0.00    -0.062 A 
HETATM   15  C   UNL     1       7.365  22.870  54.947  1.00  0.00     0.048 C 
HETATM   16  C   UNL     1       8.126  24.363  56.817  1.00  0.00     0.007 A 
HETATM   17  C   UNL     1       8.377  25.630  57.354  1.00  0.00     0.014 A 
ENDBRANCH   9  11
ENDBRANCH   1   5
BRANCH   2  18
HETATM   18  N   UNL     1       6.458  32.318  60.519  1.00  0.00    -0.165 NA
HETATM   19  C   UNL     1       6.897  32.400  61.734  1.00  0.00     0.157 A 
HETATM   20  C   UNL     1       7.814  31.429  62.484  1.00  0.00     0.277 A 
HETATM   21  C   UNL     1       6.595  33.471  62.676  1.00  0.00     0.027 A 
HETATM   22  O   UNL     1       8.271  30.409  62.010  1.00  0.00    -0.266 OA
HETATM   23  N   UNL     1       7.975  31.966  63.741  1.00  0.00    -0.321 N 
HETATM   24  C   UNL     1       7.264  33.159  63.858  1.00  0.00     0.048 A 
HETATM   25  H   UNL     1       8.533  31.538  64.464  1.00  0.00     0.169 HD
HETATM   26  C   UNL     1       7.179  33.979  64.964  1.00  0.00     0.030 A 
HETATM   27  C   UNL     1       6.395  35.135  64.847  1.00  0.00     0.002 A 
HETATM   28  C   UNL     1       5.721  35.443  63.645  1.00  0.00     0.001 A 
HETATM   29  C   UNL     1       5.817  34.600  62.536  1.00  0.00     0.016 A 
ENDBRANCH   2  18
TORSDOF 3
ENDMDL
MODEL 8
REMARK VINA RESULT:      -9.1      7.946     10.950
REMARK  3 active torsions:
REMARK  status: ('A' for Active; 'I' for Inactive)
REMARK    1  A    between atoms: C_5  and  C_6 
REMARK    2  A    between atoms: C_10  and  C_11 
REMARK       I    between atoms: C_11  and  N_12 
REMARK    3  A    between atoms: N_12  and  N_13 
ROOT
HETATM    1  C   UNL     1       5.740  27.787  51.215  1.00  0.00     0.289 C 
HETATM    2  N   UNL     1       5.558  27.730  49.843  1.00  0.00    -0.241 N 
HETATM    3  O   UNL     1       5.787  28.832  51.861  1.00  0.00    -0.264 OA
HETATM    4  H   UNL     1       5.541  26.833  49.359  1.00  0.00     0.192 HD
ENDROOT
BRANCH   1   5
HETATM    5  C   UNL     1       5.890  26.507  51.860  1.00  0.00     0.121 A 
HETATM    6  N   UNL     1       4.832  25.649  51.974  1.00  0.00    -0.272 N 
HETATM    7  N   UNL     1       5.112  24.511  52.622  1.00  0.00    -0.174 NA
HETATM    8  H   UNL     1       3.888  25.805  51.632  1.00  0.00     0.189 HD
HETATM    9  C   UNL     1       6.415  24.606  52.930  1.00  0.00     0.089 A 
HETATM   10  C   UNL     1       6.940  25.848  52.468  1.00  0.00     0.071 A 
BRANCH   9  11
HETATM   11  C   UNL     1       7.111  23.537  53.655  1.00  0.00    -0.006 A 
HETATM   12  C   UNL     1       7.802  22.526  52.974  1.00  0.00     0.014 A 
HETATM   13  C   UNL     1       8.465  21.515  53.678  1.00  0.00     0.007 A 
HETATM   14  C   UNL     1       8.444  21.490  55.076  1.00  0.00    -0.062 A 
HETATM   15  C   UNL     1       9.176  20.426  55.839  1.00  0.00     0.048 C 
HETATM   16  C   UNL     1       7.764  22.501  55.761  1.00  0.00     0.007 A 
HETATM   17  C   UNL     1       7.100  23.510  55.056  1.00  0.00     0.014 A 
ENDBRANCH   9  11
ENDBRANCH   1   5
BRANCH   2  18
HETATM   18  N   UNL     1       5.440  28.879  49.111  1.00  0.00    -0.165 NA
HETATM   19  C   UNL     1       4.394  28.980  48.355  1.00  0.00     0.157 A 
HETATM   20  C   UNL     1       3.252  27.977  48.169  1.00  0.00     0.277 A 
HETATM   21  C   UNL     1       4.078  30.109  47.488  1.00  0.00     0.027 A 
HETATM   22  O   UNL     1       3.175  26.907  48.737  1.00  0.00    -0.266 OA
HETATM   23  N   UNL     1       2.396  28.554  47.258  1.00  0.00    -0.321 N 
HETATM   24  C   UNL     1       2.875  29.799  46.856  1.00  0.00     0.048 A 
HETATM   25  H   UNL     1       1.545  28.116  46.936  1.00  0.00     0.169 HD
HETATM   26  C   UNL     1       2.296  30.670  45.956  1.00  0.00     0.030 A 
HETATM   27  C   UNL     1       2.968  31.874  45.706  1.00  0.00     0.002 A 
HETATM   28  C   UNL     1       4.186  32.179  46.350  1.00  0.00     0.001 A 
HETATM   29  C   UNL     1       4.758  31.286  47.259  1.00  0.00     0.016 A 
ENDBRANCH   2  18
TORSDOF 3
ENDMDL
MODEL 9
REMARK VINA RESULT:      -9.1      5.232      6.339
REMARK  3 active torsions:
REMARK  status: ('A' for Active; 'I' for Inactive)
REMARK    1  A    between atoms: C_5  and  C_6 
REMARK    2  A    between atoms: C_10  and  C_11 
REMARK       I    between atoms: C_11  and  N_12 
REMARK    3  A    between atoms: N_12  and  N_13 
ROOT
HETATM    1  C   UNL     1       5.393  26.046  56.772  1.00  0.00     0.289 C 
HETATM    2  N   UNL     1       6.611  25.739  56.189  1.00  0.00    -0.241 N 
HETATM    3  O   UNL     1       4.719  25.250  57.421  1.00  0.00    -0.264 OA
HETATM    4  H   UNL     1       7.120  26.438  55.650  1.00  0.00     0.192 HD
ENDROOT
BRANCH   1   5
HETATM    5  C   UNL     1       4.943  27.398  56.556  1.00  0.00     0.121 A 
HETATM    6  N   UNL     1       5.076  28.348  57.529  1.00  0.00    -0.272 N 
HETATM    7  N   UNL     1       4.587  29.550  57.197  1.00  0.00    -0.174 NA
HETATM    8  H   UNL     1       5.488  28.218  58.448  1.00  0.00     0.189 HD
HETATM    9  C   UNL     1       4.132  29.398  55.943  1.00  0.00     0.089 A 
HETATM   10  C   UNL     1       4.337  28.058  55.504  1.00  0.00     0.071 A 
BRANCH   9  11
HETATM   11  C   UNL     1       3.513  30.510  55.213  1.00  0.00    -0.006 A 
HETATM   12  C   UNL     1       2.667  31.423  55.857  1.00  0.00     0.014 A 
HETATM   13  C   UNL     1       2.087  32.482  55.149  1.00  0.00     0.007 A 
HETATM   14  C   UNL     1       2.334  32.644  53.783  1.00  0.00    -0.062 A 
HETATM   15  C   UNL     1       1.739  33.792  53.022  1.00  0.00     0.048 C 
HETATM   16  C   UNL     1       3.185  31.742  53.136  1.00  0.00     0.007 A 
HETATM   17  C   UNL     1       3.761  30.683  53.844  1.00  0.00     0.014 A 
ENDBRANCH   9  11
ENDBRANCH   1   5
BRANCH   2  18
HETATM   18  N   UNL     1       7.130  24.477  56.292  1.00  0.00    -0.165 NA
HETATM   19  C   UNL     1       7.277  23.819  55.187  1.00  0.00     0.157 A 
HETATM   20  C   UNL     1       6.951  24.267  53.759  1.00  0.00     0.277 A 
HETATM   21  C   UNL     1       7.800  22.463  55.068  1.00  0.00     0.027 A 
HETATM   22  O   UNL     1       6.492  25.352  53.466  1.00  0.00    -0.266 OA
HETATM   23  N   UNL     1       7.284  23.204  52.950  1.00  0.00    -0.321 N 
HETATM   24  C   UNL     1       7.779  22.147  53.711  1.00  0.00     0.048 A 
HETATM   25  H   UNL     1       7.174  23.210  51.947  1.00  0.00     0.169 HD
HETATM   26  C   UNL     1       8.211  20.918  53.258  1.00  0.00     0.030 A 
HETATM   27  C   UNL     1       8.668  20.005  54.216  1.00  0.00     0.002 A 
HETATM   28  C   UNL     1       8.685  20.333  55.589  1.00  0.00     0.001 A 
HETATM   29  C   UNL     1       8.244  21.582  56.031  1.00  0.00     0.016 A 
ENDBRANCH   2  18
TORSDOF 3
ENDMDL
MODEL 10
REMARK VINA RESULT:      -9.0      4.128      4.991
REMARK  3 active torsions:
REMARK  status: ('A' for Active; 'I' for Inactive)
REMARK    1  A    between atoms: C_5  and  C_6 
REMARK    2  A    between atoms: C_10  and  C_11 
REMARK       I    between atoms: C_11  and  N_12 
REMARK    3  A    between atoms: N_12  and  N_13 
ROOT
HETATM    1  C   UNL     1       5.473  26.004  56.792  1.00  0.00     0.289 C 
HETATM    2  N   UNL     1       6.714  25.718  56.246  1.00  0.00    -0.241 N 
HETATM    3  O   UNL     1       4.758  25.175  57.350  1.00  0.00    -0.264 OA
HETATM    4  H   UNL     1       7.257  26.444  55.782  1.00  0.00     0.192 HD
ENDROOT
BRANCH   1   5
HETATM    5  C   UNL     1       5.052  27.375  56.651  1.00  0.00     0.121 A 
HETATM    6  N   UNL     1       4.220  27.754  55.635  1.00  0.00    -0.272 N 
HETATM    7  N   UNL     1       3.937  29.063  55.614  1.00  0.00    -0.174 NA
HETATM    8  H   UNL     1       3.826  27.151  54.919  1.00  0.00     0.189 HD
HETATM    9  C   UNL     1       4.589  29.570  56.674  1.00  0.00     0.089 A 
HETATM   10  C   UNL     1       5.301  28.539  57.351  1.00  0.00     0.071 A 
BRANCH   9  11
HETATM   11  C   UNL     1       4.526  30.999  56.999  1.00  0.00    -0.006 A 
HETATM   12  C   UNL     1       4.963  31.973  56.091  1.00  0.00     0.014 A 
HETATM   13  C   UNL     1       4.893  33.333  56.413  1.00  0.00     0.007 A 
HETATM   14  C   UNL     1       4.394  33.746  57.652  1.00  0.00    -0.062 A 
HETATM   15  C   UNL     1       4.289  35.202  57.995  1.00  0.00     0.048 C 
HETATM   16  C   UNL     1       3.947  32.780  58.559  1.00  0.00     0.007 A 
HETATM   17  C   UNL     1       4.020  31.421  58.237  1.00  0.00     0.014 A 
ENDBRANCH   9  11
ENDBRANCH   1   5
BRANCH   2  18
HETATM   18  N   UNL     1       7.210  24.443  56.282  1.00  0.00    -0.165 NA
HETATM   19  C   UNL     1       7.325  23.833  55.146  1.00  0.00     0.157 A 
HETATM   20  C   UNL     1       6.983  24.352  53.746  1.00  0.00     0.277 A 
HETATM   21  C   UNL     1       7.820  22.475  54.958  1.00  0.00     0.027 A 
HETATM   22  O   UNL     1       6.540  25.457  53.511  1.00  0.00    -0.266 OA
HETATM   23  N   UNL     1       7.282  23.321  52.885  1.00  0.00    -0.321 N 
HETATM   24  C   UNL     1       7.770  22.221  53.588  1.00  0.00     0.048 A 
HETATM   25  H   UNL     1       7.155  23.374  51.885  1.00  0.00     0.169 HD
HETATM   26  C   UNL     1       8.170  21.006  53.072  1.00  0.00     0.030 A 
HETATM   27  C   UNL     1       8.627  20.042  53.981  1.00  0.00     0.002 A 
HETATM   28  C   UNL     1       8.673  20.308  55.366  1.00  0.00     0.001 A 
HETATM   29  C   UNL     1       8.264  21.543  55.872  1.00  0.00     0.016 A 
ENDBRANCH   2  18
TORSDOF 3
ENDMDL
