MODEL 1
REMARK VINA RESULT:     -10.6      0.000      0.000
REMARK  6 active torsions:
REMARK  status: ('A' for Active; 'I' for Inactive)
REMARK    1  A    between atoms: C_2  and  C_3 
REMARK    2  A    between atoms: C_3  and  C_4 
REMARK       I    between atoms: C_4  and  N_5 
REMARK    3  A    between atoms: N_5  and  C_6 
REMARK    4  A    between atoms: C_8  and  C_9 
REMARK    5  A    between atoms: C_9  and  N_10 
REMARK       I    between atoms: N_10  and  C_11 
REMARK    6  A    between atoms: C_11  and  C_12 
ROOT
HETATM    1  C   UNL     1       6.833  27.930  55.959  1.00  0.00     0.161 C 
ENDROOT
BRANCH   1   2
HETATM    2  C   UNL     1       7.990  28.782  56.404  1.00  0.00    -0.038 A 
HETATM    3  C   UNL     1       8.062  29.247  57.728  1.00  0.00     0.038 A 
HETATM    4  C   UNL     1       9.184  29.944  58.184  1.00  0.00     0.035 A 
HETATM    5  C   UNL     1      10.236  30.194  57.296  1.00  0.00     0.029 A 
HETATM    6  C   UNL     1      10.155  29.778  55.965  1.00  0.00     0.003 A 
HETATM    7  C   UNL     1       9.038  29.074  55.521  1.00  0.00     0.009 A 
BRANCH   4   8
HETATM    8  N   UNL     1       9.349  30.356  59.524  1.00  0.00    -0.327 N 
HETATM    9  C   UNL     1       9.224  31.643  60.013  1.00  0.00     0.226 C 
HETATM   10  O   UNL     1       9.097  32.644  59.309  1.00  0.00    -0.273 OA
HETATM   11  H   UNL     1       9.709  29.651  60.148  1.00  0.00     0.169 HD
BRANCH   9  12
HETATM   12  C   UNL     1       9.138  31.751  61.549  1.00  0.00     0.074 C 
HETATM   13  C   UNL     1       9.278  30.360  62.180  1.00  0.00     0.020 C 
BRANCH  12  14
HETATM   14  C   UNL     1       7.928  32.500  62.133  1.00  0.00     0.009 C 
HETATM   15  C   UNL     1       7.960  32.695  63.641  1.00  0.00     0.006 C 
ENDBRANCH  12  14
ENDBRANCH   9  12
ENDBRANCH   4   8
ENDBRANCH   1   2
BRANCH   1  16
HETATM   16  N   UNL     1       6.942  26.569  56.404  1.00  0.00    -0.351 N 
HETATM   17  C   UNL     1       7.500  25.617  55.575  1.00  0.00     0.273 C 
HETATM   18  O   UNL     1       7.709  25.813  54.380  1.00  0.00    -0.266 OA
HETATM   19  H   UNL     1       6.973  26.354  57.396  1.00  0.00     0.163 HD
BRANCH  17  20
HETATM   20  C   UNL     1       7.855  24.363  56.258  1.00  0.00     0.157 A 
HETATM   21  N   UNL     1       8.135  24.327  57.579  1.00  0.00    -0.168 NA
HETATM   22  N   UNL     1       8.425  23.034  57.808  1.00  0.00    -0.277 N 
HETATM   23  H   UNL     1       8.672  22.757  58.752  1.00  0.00     0.189 HD
HETATM   24  C   UNL     1       8.358  22.231  56.704  1.00  0.00     0.063 A 
HETATM   25  C   UNL     1       7.982  23.073  55.664  1.00  0.00     0.029 A 
HETATM   26  C   UNL     1       8.594  20.865  56.531  1.00  0.00     0.032 A 
HETATM   27  C   UNL     1       7.831  22.530  54.373  1.00  0.00     0.023 A 
HETATM   28  C   UNL     1       8.064  21.160  54.163  1.00  0.00    -0.061 A 
HETATM   29  C   UNL     1       8.440  20.347  55.238  1.00  0.00     0.009 A 
HETATM   30  C   UNL     1       7.906  20.593  52.782  1.00  0.00     0.048 C 
ENDBRANCH  17  20
ENDBRANCH   1  16
TORSDOF 6
ENDMDL
MODEL 2
REMARK VINA RESULT:     -10.6      1.472      2.130
REMARK  6 active torsions:
REMARK  status: ('A' for Active; 'I' for Inactive)
REMARK    1  A    between atoms: C_2  and  C_3 
REMARK    2  A    between atoms: C_3  and  C_4 
REMARK       I    between atoms: C_4  and  N_5 
REMARK    3  A    between atoms: N_5  and  C_6 
REMARK    4  A    between atoms: C_8  and  C_9 
REMARK    5  A    between atoms: C_9  and  N_10 
REMARK       I    between atoms: N_10  and  C_11 
REMARK    6  A    between atoms: C_11  and  C_12 
ROOT
HETATM    1  C   UNL     1       7.071  28.159  56.042  1.00  0.00     0.161 C 
ENDROOT
BRANCH   1   2
HETATM    2  C   UNL     1       8.207  28.982  56.585  1.00  0.00    -0.038 A 
HETATM    3  C   UNL     1       8.192  29.421  57.919  1.00  0.00     0.038 A 
HETATM    4  C   UNL     1       9.290  30.092  58.466  1.00  0.00     0.035 A 
HETATM    5  C   UNL     1      10.405  30.340  57.659  1.00  0.00     0.029 A 
HETATM    6  C   UNL     1      10.412  29.950  56.318  1.00  0.00     0.003 A 
HETATM    7  C   UNL     1       9.318  29.273  55.783  1.00  0.00     0.009 A 
BRANCH   4   8
HETATM    8  N   UNL     1       9.367  30.476  59.822  1.00  0.00    -0.327 N 
HETATM    9  C   UNL     1       9.199  31.751  60.329  1.00  0.00     0.226 C 
HETATM   10  O   UNL     1       9.107  32.766  59.640  1.00  0.00    -0.273 OA
HETATM   11  H   UNL     1       9.693  29.760  60.453  1.00  0.00     0.169 HD
BRANCH   9  12
HETATM   12  C   UNL     1       9.016  31.826  61.859  1.00  0.00     0.074 C 
HETATM   13  C   UNL     1       9.062  30.415  62.460  1.00  0.00     0.020 C 
BRANCH  12  14
HETATM   14  C   UNL     1       7.798  32.606  62.382  1.00  0.00     0.009 C 
HETATM   15  C   UNL     1       7.814  32.897  63.875  1.00  0.00     0.006 C 
ENDBRANCH  12  14
ENDBRANCH   9  12
ENDBRANCH   4   8
ENDBRANCH   1   2
BRANCH   1  16
HETATM   16  N   UNL     1       7.521  27.013  55.302  1.00  0.00    -0.351 N 
HETATM   17  C   UNL     1       6.702  25.908  55.180  1.00  0.00     0.273 C 
HETATM   18  O   UNL     1       5.690  25.750  55.858  1.00  0.00    -0.266 OA
HETATM   19  H   UNL     1       8.227  27.113  54.579  1.00  0.00     0.163 HD
BRANCH  17  20
HETATM   20  C   UNL     1       7.131  24.959  54.140  1.00  0.00     0.157 A 
HETATM   21  N   UNL     1       7.245  25.325  52.845  1.00  0.00    -0.168 NA
HETATM   22  N   UNL     1       7.630  24.195  52.227  1.00  0.00    -0.277 N 
HETATM   23  H   UNL     1       7.783  24.224  51.225  1.00  0.00     0.189 HD
HETATM   24  C   UNL     1       7.762  23.112  53.051  1.00  0.00     0.063 A 
HETATM   25  C   UNL     1       7.445  23.579  54.320  1.00  0.00     0.029 A 
HETATM   26  C   UNL     1       8.124  21.787  52.796  1.00  0.00     0.032 A 
HETATM   27  C   UNL     1       7.486  22.681  55.404  1.00  0.00     0.023 A 
HETATM   28  C   UNL     1       7.842  21.339  55.182  1.00  0.00    -0.061 A 
HETATM   29  C   UNL     1       8.157  20.909  53.887  1.00  0.00     0.009 A 
HETATM   30  C   UNL     1       7.877  20.387  56.343  1.00  0.00     0.048 C 
ENDBRANCH  17  20
ENDBRANCH   1  16
TORSDOF 6
ENDMDL
MODEL 3
REMARK VINA RESULT:      -9.6      1.616      2.117
REMARK  6 active torsions:
REMARK  status: ('A' for Active; 'I' for Inactive)
REMARK    1  A    between atoms: C_2  and  C_3 
REMARK    2  A    between atoms: C_3  and  C_4 
REMARK       I    between atoms: C_4  and  N_5 
REMARK    3  A    between atoms: N_5  and  C_6 
REMARK    4  A    between atoms: C_8  and  C_9 
REMARK    5  A    between atoms: C_9  and  N_10 
REMARK       I    between atoms: N_10  and  C_11 
REMARK    6  A    between atoms: C_11  and  C_12 
ROOT
HETATM    1  C   UNL     1       7.021  28.127  56.539  1.00  0.00     0.161 C 
ENDROOT
BRANCH   1   2
HETATM    2  C   UNL     1       7.981  29.037  57.254  1.00  0.00    -0.038 A 
HETATM    3  C   UNL     1       7.699  29.486  58.555  1.00  0.00     0.038 A 
HETATM    4  C   UNL     1       8.632  30.241  59.272  1.00  0.00     0.035 A 
HETATM    5  C   UNL     1       9.852  30.564  58.668  1.00  0.00     0.029 A 
HETATM    6  C   UNL     1      10.124  30.162  57.359  1.00  0.00     0.003 A 
HETATM    7  C   UNL     1       9.194  29.401  56.654  1.00  0.00     0.009 A 
BRANCH   4   8
HETATM    8  N   UNL     1       8.439  30.642  60.611  1.00  0.00    -0.327 N 
HETATM    9  C   UNL     1       7.578  31.626  61.062  1.00  0.00     0.226 C 
HETATM   10  O   UNL     1       6.964  32.401  60.329  1.00  0.00    -0.273 OA
HETATM   11  H   UNL     1       9.086  30.246  61.275  1.00  0.00     0.169 HD
BRANCH   9  12
HETATM   12  C   UNL     1       7.334  31.631  62.585  1.00  0.00     0.074 C 
HETATM   13  C   UNL     1       5.840  31.816  62.874  1.00  0.00     0.020 C 
BRANCH  12  14
HETATM   14  C   UNL     1       8.182  32.600  63.427  1.00  0.00     0.009 C 
HETATM   15  C   UNL     1       7.414  33.361  64.497  1.00  0.00     0.006 C 
ENDBRANCH  12  14
ENDBRANCH   9  12
ENDBRANCH   4   8
ENDBRANCH   1   2
BRANCH   1  16
HETATM   16  N   UNL     1       7.607  26.860  56.198  1.00  0.00    -0.351 N 
HETATM   17  C   UNL     1       7.734  25.880  57.161  1.00  0.00     0.273 C 
HETATM   18  O   UNL     1       7.582  26.100  58.360  1.00  0.00    -0.266 OA
HETATM   19  H   UNL     1       7.589  26.527  55.238  1.00  0.00     0.163 HD
BRANCH  17  20
HETATM   20  C   UNL     1       8.031  24.545  56.619  1.00  0.00     0.157 A 
HETATM   21  N   UNL     1       8.439  23.529  57.411  1.00  0.00    -0.168 NA
HETATM   22  N   UNL     1       8.622  22.509  56.553  1.00  0.00    -0.277 N 
HETATM   23  H   UNL     1       8.935  21.619  56.926  1.00  0.00     0.189 HD
HETATM   24  C   UNL     1       8.365  22.813  55.245  1.00  0.00     0.063 A 
HETATM   25  C   UNL     1       7.970  24.145  55.251  1.00  0.00     0.029 A 
HETATM   26  C   UNL     1       8.447  22.047  54.079  1.00  0.00     0.032 A 
HETATM   27  C   UNL     1       7.637  24.758  54.028  1.00  0.00     0.023 A 
HETATM   28  C   UNL     1       7.712  24.019  52.835  1.00  0.00    -0.061 A 
HETATM   29  C   UNL     1       8.113  22.678  52.874  1.00  0.00     0.009 A 
HETATM   30  C   UNL     1       7.360  24.684  51.536  1.00  0.00     0.048 C 
ENDBRANCH  17  20
ENDBRANCH   1  16
TORSDOF 6
ENDMDL
MODEL 4
REMARK VINA RESULT:      -9.4      2.543      4.237
REMARK  6 active torsions:
REMARK  status: ('A' for Active; 'I' for Inactive)
REMARK    1  A    between atoms: C_2  and  C_3 
REMARK    2  A    between atoms: C_3  and  C_4 
REMARK       I    between atoms: C_4  and  N_5 
REMARK    3  A    between atoms: N_5  and  C_6 
REMARK    4  A    between atoms: C_8  and  C_9 
REMARK    5  A    between atoms: C_9  and  N_10 
REMARK       I    between atoms: N_10  and  C_11 
REMARK    6  A    between atoms: C_11  and  C_12 
ROOT
HETATM    1  C   UNL     1       7.394  30.655  58.195  1.00  0.00     0.161 C 
ENDROOT
BRANCH   1   2
HETATM    2  C   UNL     1       7.740  31.055  59.603  1.00  0.00    -0.038 A 
HETATM    3  C   UNL     1       6.921  31.951  60.309  1.00  0.00     0.038 A 
HETATM    4  C   UNL     1       7.169  32.245  61.653  1.00  0.00     0.035 A 
HETATM    5  C   UNL     1       8.263  31.647  62.288  1.00  0.00     0.029 A 
HETATM    6  C   UNL     1       9.112  30.791  61.583  1.00  0.00     0.003 A 
HETATM    7  C   UNL     1       8.851  30.495  60.247  1.00  0.00     0.009 A 
BRANCH   4   8
HETATM    8  N   UNL     1       6.329  33.067  62.434  1.00  0.00    -0.327 N 
HETATM    9  C   UNL     1       5.354  32.645  63.320  1.00  0.00     0.226 C 
HETATM   10  O   UNL     1       4.979  31.479  63.436  1.00  0.00    -0.273 OA
HETATM   11  H   UNL     1       6.377  34.052  62.225  1.00  0.00     0.169 HD
BRANCH   9  12
HETATM   12  C   UNL     1       4.818  33.737  64.268  1.00  0.00     0.074 C 
HETATM   13  C   UNL     1       4.924  35.111  63.595  1.00  0.00     0.020 C 
BRANCH  12  14
HETATM   14  C   UNL     1       5.399  33.776  65.692  1.00  0.00     0.009 C 
HETATM   15  C   UNL     1       6.918  33.788  65.766  1.00  0.00     0.006 C 
ENDBRANCH  12  14
ENDBRANCH   9  12
ENDBRANCH   4   8
ENDBRANCH   1   2
BRANCH   1  16
HETATM   16  N   UNL     1       7.186  29.241  58.055  1.00  0.00    -0.351 N 
HETATM   17  C   UNL     1       7.652  28.584  56.934  1.00  0.00     0.273 C 
HETATM   18  O   UNL     1       8.042  29.174  55.930  1.00  0.00    -0.266 OA
HETATM   19  H   UNL     1       7.051  28.658  58.876  1.00  0.00     0.163 HD
BRANCH  17  20
HETATM   20  C   UNL     1       7.673  27.119  57.066  1.00  0.00     0.157 A 
HETATM   21  N   UNL     1       7.788  26.513  58.268  1.00  0.00    -0.168 NA
HETATM   22  N   UNL     1       7.790  25.203  57.966  1.00  0.00    -0.277 N 
HETATM   23  H   UNL     1       7.868  24.535  58.725  1.00  0.00     0.189 HD
HETATM   24  C   UNL     1       7.694  24.926  56.630  1.00  0.00     0.063 A 
HETATM   25  C   UNL     1       7.612  26.165  56.007  1.00  0.00     0.029 A 
HETATM   26  C   UNL     1       7.675  23.718  55.929  1.00  0.00     0.032 A 
HETATM   27  C   UNL     1       7.505  26.212  54.603  1.00  0.00     0.023 A 
HETATM   28  C   UNL     1       7.487  25.015  53.866  1.00  0.00    -0.061 A 
HETATM   29  C   UNL     1       7.571  23.788  54.534  1.00  0.00     0.009 A 
HETATM   30  C   UNL     1       7.380  25.076  52.370  1.00  0.00     0.048 C 
ENDBRANCH  17  20
ENDBRANCH   1  16
TORSDOF 6
ENDMDL
MODEL 5
REMARK VINA RESULT:      -9.1      1.971      9.642
REMARK  6 active torsions:
REMARK  status: ('A' for Active; 'I' for Inactive)
REMARK    1  A    between atoms: C_2  and  C_3 
REMARK    2  A    between atoms: C_3  and  C_4 
REMARK       I    between atoms: C_4  and  N_5 
REMARK    3  A    between atoms: N_5  and  C_6 
REMARK    4  A    between atoms: C_8  and  C_9 
REMARK    5  A    between atoms: C_9  and  N_10 
REMARK       I    between atoms: N_10  and  C_11 
REMARK    6  A    between atoms: C_11  and  C_12 
ROOT
HETATM    1  C   UNL     1       5.933  28.416  57.012  1.00  0.00     0.161 C 
ENDROOT
BRANCH   1   2
HETATM    2  C   UNL     1       6.564  27.581  55.932  1.00  0.00    -0.038 A 
HETATM    3  C   UNL     1       6.591  26.181  56.042  1.00  0.00     0.038 A 
HETATM    4  C   UNL     1       7.074  25.388  54.996  1.00  0.00     0.035 A 
HETATM    5  C   UNL     1       7.552  26.009  53.838  1.00  0.00     0.029 A 
HETATM    6  C   UNL     1       7.573  27.402  53.737  1.00  0.00     0.003 A 
HETATM    7  C   UNL     1       7.080  28.185  54.779  1.00  0.00     0.009 A 
BRANCH   4   8
HETATM    8  N   UNL     1       7.043  23.977  55.015  1.00  0.00    -0.327 N 
HETATM    9  C   UNL     1       8.073  23.134  55.390  1.00  0.00     0.226 C 
HETATM   10  O   UNL     1       9.224  23.502  55.618  1.00  0.00    -0.273 OA
HETATM   11  H   UNL     1       6.225  23.560  54.600  1.00  0.00     0.169 HD
BRANCH   9  12
HETATM   12  C   UNL     1       7.662  21.665  55.623  1.00  0.00     0.074 C 
HETATM   13  C   UNL     1       8.451  21.082  56.801  1.00  0.00     0.020 C 
BRANCH  12  14
HETATM   14  C   UNL     1       7.709  20.723  54.408  1.00  0.00     0.009 C 
HETATM   15  C   UNL     1       8.441  21.276  53.195  1.00  0.00     0.006 C 
ENDBRANCH  12  14
ENDBRANCH   9  12
ENDBRANCH   4   8
ENDBRANCH   1   2
BRANCH   1  16
HETATM   16  N   UNL     1       6.891  28.915  57.959  1.00  0.00    -0.351 N 
HETATM   17  C   UNL     1       6.972  30.270  58.208  1.00  0.00     0.273 C 
HETATM   18  O   UNL     1       6.423  31.111  57.500  1.00  0.00    -0.266 OA
HETATM   19  H   UNL     1       7.242  28.315  58.700  1.00  0.00     0.163 HD
BRANCH  17  20
HETATM   20  C   UNL     1       7.740  30.611  59.415  1.00  0.00     0.157 A 
HETATM   21  N   UNL     1       8.913  30.007  59.707  1.00  0.00    -0.168 NA
HETATM   22  N   UNL     1       9.279  30.568  60.873  1.00  0.00    -0.277 N 
HETATM   23  H   UNL     1      10.148  30.266  61.299  1.00  0.00     0.189 HD
HETATM   24  C   UNL     1       8.401  31.497  61.358  1.00  0.00     0.063 A 
HETATM   25  C   UNL     1       7.376  31.554  60.421  1.00  0.00     0.029 A 
HETATM   26  C   UNL     1       8.416  32.276  62.518  1.00  0.00     0.032 A 
HETATM   27  C   UNL     1       6.300  32.434  60.646  1.00  0.00     0.023 A 
HETATM   28  C   UNL     1       6.282  33.229  61.805  1.00  0.00    -0.061 A 
HETATM   29  C   UNL     1       7.335  33.142  62.723  1.00  0.00     0.009 A 
HETATM   30  C   UNL     1       5.126  34.159  62.039  1.00  0.00     0.048 C 
ENDBRANCH  17  20
ENDBRANCH   1  16
TORSDOF 6
ENDMDL
MODEL 6
REMARK VINA RESULT:      -9.0      2.140     10.195
REMARK  6 active torsions:
REMARK  status: ('A' for Active; 'I' for Inactive)
REMARK    1  A    between atoms: C_2  and  C_3 
REMARK    2  A    between atoms: C_3  and  C_4 
REMARK       I    between atoms: C_4  and  N_5 
REMARK    3  A    between atoms: N_5  and  C_6 
REMARK    4  A    between atoms: C_8  and  C_9 
REMARK    5  A    between atoms: C_9  and  N_10 
REMARK       I    between atoms: N_10  and  C_11 
REMARK    6  A    between atoms: C_11  and  C_12 
ROOT
HETATM    1  C   UNL     1       7.976  28.442  57.768  1.00  0.00     0.161 C 
ENDROOT
BRANCH   1   2
HETATM    2  C   UNL     1       7.078  27.370  57.213  1.00  0.00    -0.038 A 
HETATM    3  C   UNL     1       7.615  26.147  56.780  1.00  0.00     0.038 A 
HETATM    4  C   UNL     1       6.783  25.103  56.366  1.00  0.00     0.035 A 
HETATM    5  C   UNL     1       5.397  25.297  56.370  1.00  0.00     0.029 A 
HETATM    6  C   UNL     1       4.854  26.525  56.754  1.00  0.00     0.003 A 
HETATM    7  C   UNL     1       5.690  27.557  57.175  1.00  0.00     0.009 A 
BRANCH   4   8
HETATM    8  N   UNL     1       7.262  23.826  56.007  1.00  0.00    -0.327 N 
HETATM    9  C   UNL     1       7.214  23.250  54.750  1.00  0.00     0.226 C 
HETATM   10  O   UNL     1       6.602  23.721  53.793  1.00  0.00    -0.273 OA
HETATM   11  H   UNL     1       7.556  23.245  56.777  1.00  0.00     0.169 HD
BRANCH   9  12
HETATM   12  C   UNL     1       8.093  21.994  54.575  1.00  0.00     0.074 C 
HETATM   13  C   UNL     1       8.055  21.529  53.113  1.00  0.00     0.020 C 
BRANCH  12  14
HETATM   14  C   UNL     1       7.834  20.818  55.532  1.00  0.00     0.009 C 
HETATM   15  C   UNL     1       9.037  20.386  56.357  1.00  0.00     0.006 C 
ENDBRANCH  12  14
ENDBRANCH   9  12
ENDBRANCH   4   8
ENDBRANCH   1   2
BRANCH   1  16
HETATM   16  N   UNL     1       7.251  29.464  58.470  1.00  0.00    -0.351 N 
HETATM   17  C   UNL     1       7.834  30.697  58.685  1.00  0.00     0.273 C 
HETATM   18  O   UNL     1       9.032  30.908  58.509  1.00  0.00    -0.266 OA
HETATM   19  H   UNL     1       6.235  29.455  58.487  1.00  0.00     0.163 HD
BRANCH  17  20
HETATM   20  C   UNL     1       6.887  31.741  59.107  1.00  0.00     0.157 A 
HETATM   21  N   UNL     1       5.986  32.273  58.252  1.00  0.00    -0.168 NA
HETATM   22  N   UNL     1       5.339  33.185  58.998  1.00  0.00    -0.277 N 
HETATM   23  H   UNL     1       4.600  33.726  58.561  1.00  0.00     0.189 HD
HETATM   24  C   UNL     1       5.778  33.280  60.289  1.00  0.00     0.063 A 
HETATM   25  C   UNL     1       6.795  32.340  60.398  1.00  0.00     0.029 A 
HETATM   26  C   UNL     1       5.379  34.097  61.350  1.00  0.00     0.032 A 
HETATM   27  C   UNL     1       7.460  32.200  61.631  1.00  0.00     0.023 A 
HETATM   28  C   UNL     1       7.086  33.008  62.719  1.00  0.00    -0.061 A 
HETATM   29  C   UNL     1       6.055  33.942  62.567  1.00  0.00     0.009 A 
HETATM   30  C   UNL     1       7.806  32.855  64.028  1.00  0.00     0.048 C 
ENDBRANCH  17  20
ENDBRANCH   1  16
TORSDOF 6
ENDMDL
MODEL 7
REMARK VINA RESULT:      -9.0      4.257      7.320
REMARK  6 active torsions:
REMARK  status: ('A' for Active; 'I' for Inactive)
REMARK    1  A    between atoms: C_2  and  C_3 
REMARK    2  A    between atoms: C_3  and  C_4 
REMARK       I    between atoms: C_4  and  N_5 
REMARK    3  A    between atoms: N_5  and  C_6 
REMARK    4  A    between atoms: C_8  and  C_9 
REMARK    5  A    between atoms: C_9  and  N_10 
REMARK       I    between atoms: N_10  and  C_11 
REMARK    6  A    between atoms: C_11  and  C_12 
ROOT
HETATM    1  C   UNL     1       5.704  33.219  60.252  1.00  0.00     0.161 C 
ENDROOT
BRANCH   1   2
HETATM    2  C   UNL     1       6.527  33.151  61.509  1.00  0.00    -0.038 A 
HETATM    3  C   UNL     1       6.121  33.842  62.662  1.00  0.00     0.038 A 
HETATM    4  C   UNL     1       6.816  33.699  63.867  1.00  0.00     0.035 A 
HETATM    5  C   UNL     1       7.941  32.869  63.908  1.00  0.00     0.029 A 
HETATM    6  C   UNL     1       8.382  32.215  62.756  1.00  0.00     0.003 A 
HETATM    7  C   UNL     1       7.678  32.354  61.561  1.00  0.00     0.009 A 
BRANCH   4   8
HETATM    8  N   UNL     1       6.401  34.297  65.076  1.00  0.00    -0.327 N 
HETATM    9  C   UNL     1       5.269  33.983  65.807  1.00  0.00     0.226 C 
HETATM   10  O   UNL     1       4.378  33.231  65.417  1.00  0.00    -0.273 OA
HETATM   11  H   UNL     1       6.928  35.110  65.356  1.00  0.00     0.169 HD
BRANCH   9  12
HETATM   12  C   UNL     1       5.235  34.561  67.236  1.00  0.00     0.074 C 
HETATM   13  C   UNL     1       4.710  36.002  67.205  1.00  0.00     0.020 C 
BRANCH  12  14
HETATM   14  C   UNL     1       6.529  34.466  68.063  1.00  0.00     0.009 C 
HETATM   15  C   UNL     1       6.326  34.174  69.542  1.00  0.00     0.006 C 
ENDBRANCH  12  14
ENDBRANCH   9  12
ENDBRANCH   4   8
ENDBRANCH   1   2
BRANCH   1  16
HETATM   16  N   UNL     1       5.506  31.931  59.648  1.00  0.00    -0.351 N 
HETATM   17  C   UNL     1       5.604  31.791  58.278  1.00  0.00     0.273 C 
HETATM   18  O   UNL     1       5.627  32.749  57.510  1.00  0.00    -0.266 OA
HETATM   19  H   UNL     1       5.664  31.083  60.184  1.00  0.00     0.163 HD
BRANCH  17  20
HETATM   20  C   UNL     1       5.712  30.395  57.827  1.00  0.00     0.157 A 
HETATM   21  N   UNL     1       4.628  29.597  57.709  1.00  0.00    -0.168 NA
HETATM   22  N   UNL     1       5.139  28.423  57.301  1.00  0.00    -0.277 N 
HETATM   23  H   UNL     1       4.500  27.651  57.141  1.00  0.00     0.189 HD
HETATM   24  C   UNL     1       6.498  28.412  57.158  1.00  0.00     0.063 A 
HETATM   25  C   UNL     1       6.910  29.696  57.492  1.00  0.00     0.029 A 
HETATM   26  C   UNL     1       7.386  27.403  56.772  1.00  0.00     0.032 A 
HETATM   27  C   UNL     1       8.284  30.002  57.444  1.00  0.00     0.023 A 
HETATM   28  C   UNL     1       9.205  29.010  57.065  1.00  0.00    -0.061 A 
HETATM   29  C   UNL     1       8.748  27.728  56.734  1.00  0.00     0.009 A 
HETATM   30  C   UNL     1      10.668  29.344  57.024  1.00  0.00     0.048 C 
ENDBRANCH  17  20
ENDBRANCH   1  16
TORSDOF 6
ENDMDL
MODEL 8
REMARK VINA RESULT:      -8.8      2.962      9.674
REMARK  6 active torsions:
REMARK  status: ('A' for Active; 'I' for Inactive)
REMARK    1  A    between atoms: C_2  and  C_3 
REMARK    2  A    between atoms: C_3  and  C_4 
REMARK       I    between atoms: C_4  and  N_5 
REMARK    3  A    between atoms: N_5  and  C_6 
REMARK    4  A    between atoms: C_8  and  C_9 
REMARK    5  A    between atoms: C_9  and  N_10 
REMARK       I    between atoms: N_10  and  C_11 
REMARK    6  A    between atoms: C_11  and  C_12 
ROOT
HETATM    1  C   UNL     1       4.068  30.660  57.361  1.00  0.00     0.161 C 
ENDROOT
BRANCH   1   2
HETATM    2  C   UNL     1       4.136  29.942  56.041  1.00  0.00    -0.038 A 
HETATM    3  C   UNL     1       4.666  28.644  55.965  1.00  0.00     0.038 A 
HETATM    4  C   UNL     1       4.634  27.924  54.767  1.00  0.00     0.035 A 
HETATM    5  C   UNL     1       4.081  28.522  53.630  1.00  0.00     0.029 A 
HETATM    6  C   UNL     1       3.594  29.830  53.682  1.00  0.00     0.003 A 
HETATM    7  C   UNL     1       3.620  30.537  54.882  1.00  0.00     0.009 A 
BRANCH   4   8
HETATM    8  N   UNL     1       5.070  26.586  54.655  1.00  0.00    -0.327 N 
HETATM    9  C   UNL     1       6.287  26.154  54.160  1.00  0.00     0.226 C 
HETATM   10  O   UNL     1       7.108  26.880  53.602  1.00  0.00    -0.273 OA
HETATM   11  H   UNL     1       4.368  25.889  54.847  1.00  0.00     0.169 HD
BRANCH   9  12
HETATM   12  C   UNL     1       6.622  24.676  54.452  1.00  0.00     0.074 C 
HETATM   13  C   UNL     1       6.562  24.416  55.963  1.00  0.00     0.020 C 
BRANCH  12  14
HETATM   14  C   UNL     1       7.922  24.119  53.849  1.00  0.00     0.009 C 
HETATM   15  C   UNL     1       7.746  22.901  52.956  1.00  0.00     0.006 C 
ENDBRANCH  12  14
ENDBRANCH   9  12
ENDBRANCH   4   8
ENDBRANCH   1   2
BRANCH   1  16
HETATM   16  N   UNL     1       5.248  30.469  58.157  1.00  0.00    -0.351 N 
HETATM   17  C   UNL     1       6.082  31.537  58.419  1.00  0.00     0.273 C 
HETATM   18  O   UNL     1       6.000  32.608  57.822  1.00  0.00    -0.266 OA
HETATM   19  H   UNL     1       5.301  29.703  58.823  1.00  0.00     0.163 HD
BRANCH  17  20
HETATM   20  C   UNL     1       7.050  31.290  59.498  1.00  0.00     0.157 A 
HETATM   21  N   UNL     1       7.984  30.318  59.409  1.00  0.00    -0.168 NA
HETATM   22  N   UNL     1       8.642  30.398  60.579  1.00  0.00    -0.277 N 
HETATM   23  H   UNL     1       9.406  29.752  60.745  1.00  0.00     0.189 HD
HETATM   24  C   UNL     1       8.178  31.364  61.427  1.00  0.00     0.063 A 
HETATM   25  C   UNL     1       7.131  31.974  60.748  1.00  0.00     0.029 A 
HETATM   26  C   UNL     1       8.578  31.746  62.711  1.00  0.00     0.032 A 
HETATM   27  C   UNL     1       6.436  33.026  61.375  1.00  0.00     0.023 A 
HETATM   28  C   UNL     1       6.809  33.433  62.668  1.00  0.00    -0.061 A 
HETATM   29  C   UNL     1       7.871  32.792  63.318  1.00  0.00     0.009 A 
HETATM   30  C   UNL     1       6.057  34.550  63.331  1.00  0.00     0.048 C 
ENDBRANCH  17  20
ENDBRANCH   1  16
TORSDOF 6
ENDMDL
MODEL 9
REMARK VINA RESULT:      -8.8      3.048      9.891
REMARK  6 active torsions:
REMARK  status: ('A' for Active; 'I' for Inactive)
REMARK    1  A    between atoms: C_2  and  C_3 
REMARK    2  A    between atoms: C_3  and  C_4 
REMARK       I    between atoms: C_4  and  N_5 
REMARK    3  A    between atoms: N_5  and  C_6 
REMARK    4  A    between atoms: C_8  and  C_9 
REMARK    5  A    between atoms: C_9  and  N_10 
REMARK       I    between atoms: N_10  and  C_11 
REMARK    6  A    between atoms: C_11  and  C_12 
ROOT
HETATM    1  C   UNL     1       4.852  30.537  57.757  1.00  0.00     0.161 C 
ENDROOT
BRANCH   1   2
HETATM    2  C   UNL     1       5.813  29.427  57.429  1.00  0.00    -0.038 A 
HETATM    3  C   UNL     1       5.442  28.407  56.538  1.00  0.00     0.038 A 
HETATM    4  C   UNL     1       6.361  27.431  56.140  1.00  0.00     0.035 A 
HETATM    5  C   UNL     1       7.660  27.472  56.657  1.00  0.00     0.029 A 
HETATM    6  C   UNL     1       8.026  28.454  57.580  1.00  0.00     0.003 A 
HETATM    7  C   UNL     1       7.108  29.428  57.964  1.00  0.00     0.009 A 
BRANCH   4   8
HETATM    8  N   UNL     1       6.070  26.438  55.182  1.00  0.00    -0.327 N 
HETATM    9  C   UNL     1       6.517  26.397  53.873  1.00  0.00     0.226 C 
HETATM   10  O   UNL     1       7.116  27.315  53.315  1.00  0.00    -0.273 OA
HETATM   11  H   UNL     1       5.373  25.764  55.459  1.00  0.00     0.169 HD
BRANCH   9  12
HETATM   12  C   UNL     1       6.313  25.046  53.156  1.00  0.00     0.074 C 
HETATM   13  C   UNL     1       4.836  24.869  52.785  1.00  0.00     0.020 C 
BRANCH  12  14
HETATM   14  C   UNL     1       6.858  23.791  53.859  1.00  0.00     0.009 C 
HETATM   15  C   UNL     1       7.809  22.949  53.022  1.00  0.00     0.006 C 
ENDBRANCH  12  14
ENDBRANCH   9  12
ENDBRANCH   4   8
ENDBRANCH   1   2
BRANCH   1  16
HETATM   16  N   UNL     1       5.174  31.204  58.988  1.00  0.00    -0.351 N 
HETATM   17  C   UNL     1       4.224  31.982  59.618  1.00  0.00     0.273 C 
HETATM   18  O   UNL     1       3.178  32.329  59.073  1.00  0.00    -0.266 OA
HETATM   19  H   UNL     1       5.910  30.845  59.589  1.00  0.00     0.163 HD
BRANCH  17  20
HETATM   20  C   UNL     1       4.560  32.327  61.008  1.00  0.00     0.157 A 
HETATM   21  N   UNL     1       3.617  32.726  61.890  1.00  0.00    -0.168 NA
HETATM   22  N   UNL     1       4.314  32.962  63.016  1.00  0.00    -0.277 N 
HETATM   23  H   UNL     1       3.809  33.279  63.835  1.00  0.00     0.189 HD
HETATM   24  C   UNL     1       5.660  32.748  62.908  1.00  0.00     0.063 A 
HETATM   25  C   UNL     1       5.858  32.325  61.599  1.00  0.00     0.029 A 
HETATM   26  C   UNL     1       6.702  32.889  63.828  1.00  0.00     0.032 A 
HETATM   27  C   UNL     1       7.166  32.025  61.173  1.00  0.00     0.023 A 
HETATM   28  C   UNL     1       8.238  32.159  62.072  1.00  0.00    -0.061 A 
HETATM   29  C   UNL     1       7.996  32.587  63.383  1.00  0.00     0.009 A 
HETATM   30  C   UNL     1       9.631  31.843  61.607  1.00  0.00     0.048 C 
ENDBRANCH  17  20
ENDBRANCH   1  16
TORSDOF 6
ENDMDL
MODEL 10
REMARK VINA RESULT:      -8.7      5.309      9.201
REMARK  6 active torsions:
REMARK  status: ('A' for Active; 'I' for Inactive)
REMARK    1  A    between atoms: C_2  and  C_3 
REMARK    2  A    between atoms: C_3  and  C_4 
REMARK       I    between atoms: C_4  and  N_5 
REMARK    3  A    between atoms: N_5  and  C_6 
REMARK    4  A    between atoms: C_8  and  C_9 
REMARK    5  A    between atoms: C_9  and  N_10 
REMARK       I    between atoms: N_10  and  C_11 
REMARK    6  A    between atoms: C_11  and  C_12 
ROOT
HETATM    1  C   UNL     1       7.635  32.478  63.166  1.00  0.00     0.161 C 
ENDROOT
BRANCH   1   2
HETATM    2  C   UNL     1       6.613  33.034  64.119  1.00  0.00    -0.038 A 
HETATM    3  C   UNL     1       7.011  33.562  65.359  1.00  0.00     0.038 A 
HETATM    4  C   UNL     1       6.087  34.181  66.206  1.00  0.00     0.035 A 
HETATM    5  C   UNL     1       4.747  34.253  65.812  1.00  0.00     0.029 A 
HETATM    6  C   UNL     1       4.331  33.691  64.603  1.00  0.00     0.003 A 
HETATM    7  C   UNL     1       5.260  33.085  63.759  1.00  0.00     0.009 A 
BRANCH   4   8
HETATM    8  N   UNL     1       6.445  34.806  67.419  1.00  0.00    -0.327 N 
HETATM    9  C   UNL     1       5.967  34.496  68.680  1.00  0.00     0.226 C 
HETATM   10  O   UNL     1       5.037  33.722  68.899  1.00  0.00    -0.273 OA
HETATM   11  H   UNL     1       7.015  35.632  67.324  1.00  0.00     0.169 HD
BRANCH   9  12
HETATM   12  C   UNL     1       6.763  35.113  69.848  1.00  0.00     0.074 C 
HETATM   13  C   UNL     1       8.257  34.804  69.684  1.00  0.00     0.020 C 
BRANCH  12  14
HETATM   14  C   UNL     1       6.287  34.782  71.273  1.00  0.00     0.009 C 
HETATM   15  C   UNL     1       6.742  35.760  72.346  1.00  0.00     0.006 C 
ENDBRANCH  12  14
ENDBRANCH   9  12
ENDBRANCH   4   8
ENDBRANCH   1   2
BRANCH   1  16
HETATM   16  N   UNL     1       7.064  32.087  61.907  1.00  0.00    -0.351 N 
HETATM   17  C   UNL     1       7.765  32.300  60.738  1.00  0.00     0.273 C 
HETATM   18  O   UNL     1       8.763  33.014  60.680  1.00  0.00    -0.266 OA
HETATM   19  H   UNL     1       6.363  31.352  61.867  1.00  0.00     0.163 HD
BRANCH  17  20
HETATM   20  C   UNL     1       7.232  31.566  59.579  1.00  0.00     0.157 A 
HETATM   21  N   UNL     1       5.905  31.478  59.341  1.00  0.00    -0.168 NA
HETATM   22  N   UNL     1       5.830  30.726  58.229  1.00  0.00    -0.277 N 
HETATM   23  H   UNL     1       4.912  30.520  57.851  1.00  0.00     0.189 HD
HETATM   24  C   UNL     1       7.037  30.312  57.739  1.00  0.00     0.063 A 
HETATM   25  C   UNL     1       7.984  30.850  58.601  1.00  0.00     0.029 A 
HETATM   26  C   UNL     1       7.372  29.524  56.635  1.00  0.00     0.032 A 
HETATM   27  C   UNL     1       9.347  30.592  58.358  1.00  0.00     0.023 A 
HETATM   28  C   UNL     1       9.720  29.800  57.258  1.00  0.00    -0.061 A 
HETATM   29  C   UNL     1       8.733  29.278  56.412  1.00  0.00     0.009 A 
HETATM   30  C   UNL     1      11.175  29.525  57.011  1.00  0.00     0.048 C 
ENDBRANCH  17  20
ENDBRANCH   1  16
TORSDOF 6
ENDMDL
