MODEL 1
REMARK VINA RESULT:     -10.0      0.000      0.000
REMARK  7 active torsions:
REMARK  status: ('A' for Active; 'I' for Inactive)
REMARK    1  A    between atoms: C_5  and  O_6 
REMARK    2  A    between atoms: O_6  and  C_7 
REMARK    3  A    between atoms: C_7  and  C_8 
REMARK       I    between atoms: C_8  and  N_9 
REMARK    4  A    between atoms: N_9  and  C_10 
REMARK    5  A    between atoms: C_13  and  N_14 
REMARK    6  A    between atoms: N_17  and  C_19 
REMARK    7  A    between atoms: C_19  and  C_20 
ROOT
HETATM    1  C   UNL     1       7.343  28.651  56.422  1.00  0.00     0.034 A 
HETATM    2  C   UNL     1       6.325  29.557  56.706  1.00  0.00     0.032 A 
HETATM    3  C   UNL     1       6.416  30.423  57.802  1.00  0.00     0.031 A 
HETATM    4  C   UNL     1       7.524  30.433  58.658  1.00  0.00     0.030 A 
HETATM    5  C   UNL     1       8.542  29.515  58.367  1.00  0.00     0.031 A 
HETATM    6  C   UNL     1       8.455  28.635  57.267  1.00  0.00     0.032 A 
ENDROOT
BRANCH   1   7
HETATM    7  N   UNL     1       7.282  27.726  55.356  1.00  0.00    -0.325 N 
HETATM    8  C   UNL     1       6.456  26.617  55.281  1.00  0.00     0.246 C 
HETATM    9  O   UNL     1       5.567  26.322  56.078  1.00  0.00    -0.271 OA
HETATM   10  H   UNL     1       7.875  27.887  54.548  1.00  0.00     0.169 HD
BRANCH   8  11
HETATM   11  C   UNL     1       6.770  25.667  54.124  1.00  0.00     0.278 C 
BRANCH  11  12
HETATM   12  O   UNL     1       8.038  25.029  54.186  1.00  0.00    -0.342 OA
BRANCH  12  13
HETATM   13  C   UNL     1       7.995  23.649  54.157  1.00  0.00     0.075 A 
HETATM   14  C   UNL     1       8.147  22.977  55.388  1.00  0.00    -0.023 A 
HETATM   15  C   UNL     1       8.195  21.561  55.406  1.00  0.00    -0.053 A 
HETATM   16  C   UNL     1       8.322  23.753  56.669  1.00  0.00     0.052 C 
HETATM   17  C   UNL     1       8.395  20.775  56.675  1.00  0.00     0.049 C 
HETATM   18  C   UNL     1       8.006  20.845  54.214  1.00  0.00     0.007 A 
HETATM   19  C   UNL     1       7.806  21.512  53.012  1.00  0.00     0.003 A 
HETATM   20  C   UNL     1       7.804  22.905  52.983  1.00  0.00     0.037 A 
ENDBRANCH  12  13
ENDBRANCH  11  12
ENDBRANCH   8  11
ENDBRANCH   1   7
BRANCH   4  21
HETATM   21  N   UNL     1       7.536  31.282  59.760  1.00  0.00    -0.378 N 
HETATM   22  C   UNL     1       8.788  31.847  60.278  1.00  0.00     0.150 C 
HETATM   23  C   UNL     1       8.656  32.083  61.803  1.00  0.00     0.255 C 
HETATM   24  N   UNL     1       7.410  32.906  62.149  1.00  0.00    -0.064 N 
HETATM   25  H   UNL     1       7.554  33.844  61.757  1.00  0.00     0.280 HD
HETATM   26  C   UNL     1       6.154  32.319  61.506  1.00  0.00     0.255 C 
HETATM   27  C   UNL     1       6.346  32.120  59.991  1.00  0.00     0.150 C 
BRANCH  24  28
HETATM   28  C   UNL     1       7.214  33.062  63.639  1.00  0.00     0.273 C 
BRANCH  28  29
HETATM   29  C   UNL     1       6.057  33.948  64.004  1.00  0.00    -0.033 A 
HETATM   30  C   UNL     1       5.046  33.481  64.858  1.00  0.00     0.009 A 
HETATM   31  C   UNL     1       3.969  34.305  65.191  1.00  0.00     0.001 A 
HETATM   32  C   UNL     1       3.891  35.596  64.673  1.00  0.00     0.000 A 
HETATM   33  C   UNL     1       4.889  36.069  63.825  1.00  0.00     0.001 A 
HETATM   34  C   UNL     1       5.968  35.250  63.491  1.00  0.00     0.009 A 
ENDBRANCH  28  29
ENDBRANCH  24  28
ENDBRANCH   4  21
TORSDOF 7
ENDMDL
MODEL 2
REMARK VINA RESULT:      -9.8      2.342     12.000
REMARK  7 active torsions:
REMARK  status: ('A' for Active; 'I' for Inactive)
REMARK    1  A    between atoms: C_5  and  O_6 
REMARK    2  A    between atoms: O_6  and  C_7 
REMARK    3  A    between atoms: C_7  and  C_8 
REMARK       I    between atoms: C_8  and  N_9 
REMARK    4  A    between atoms: N_9  and  C_10 
REMARK    5  A    between atoms: C_13  and  N_14 
REMARK    6  A    between atoms: N_17  and  C_19 
REMARK    7  A    between atoms: C_19  and  C_20 
ROOT
HETATM    1  C   UNL     1       7.008  29.860  58.124  1.00  0.00     0.034 A 
HETATM    2  C   UNL     1       7.872  28.769  58.077  1.00  0.00     0.032 A 
HETATM    3  C   UNL     1       7.794  27.832  57.041  1.00  0.00     0.031 A 
HETATM    4  C   UNL     1       6.860  27.941  56.002  1.00  0.00     0.030 A 
HETATM    5  C   UNL     1       5.993  29.040  56.060  1.00  0.00     0.031 A 
HETATM    6  C   UNL     1       6.062  29.985  57.105  1.00  0.00     0.032 A 
ENDROOT
BRANCH   1   7
HETATM    7  N   UNL     1       7.016  30.809  59.170  1.00  0.00    -0.325 N 
HETATM    8  C   UNL     1       8.024  31.717  59.446  1.00  0.00     0.246 C 
HETATM    9  O   UNL     1       9.023  31.918  58.757  1.00  0.00    -0.271 OA
HETATM   10  H   UNL     1       6.201  30.862  59.774  1.00  0.00     0.169 HD
BRANCH   8  11
HETATM   11  C   UNL     1       7.868  32.458  60.774  1.00  0.00     0.278 C 
BRANCH  11  12
HETATM   12  O   UNL     1       7.163  31.753  61.787  1.00  0.00    -0.342 OA
BRANCH  12  13
HETATM   13  C   UNL     1       6.847  32.501  62.903  1.00  0.00     0.075 A 
HETATM   14  C   UNL     1       5.496  32.873  63.063  1.00  0.00    -0.023 A 
HETATM   15  C   UNL     1       5.129  33.712  64.146  1.00  0.00    -0.053 A 
HETATM   16  C   UNL     1       4.456  32.440  62.060  1.00  0.00     0.052 C 
HETATM   17  C   UNL     1       3.715  34.183  64.359  1.00  0.00     0.049 C 
HETATM   18  C   UNL     1       6.097  34.089  65.089  1.00  0.00     0.007 A 
HETATM   19  C   UNL     1       7.416  33.677  64.955  1.00  0.00     0.003 A 
HETATM   20  C   UNL     1       7.790  32.891  63.867  1.00  0.00     0.037 A 
ENDBRANCH  12  13
ENDBRANCH  11  12
ENDBRANCH   8  11
ENDBRANCH   1   7
BRANCH   4  21
HETATM   21  N   UNL     1       6.798  26.952  55.026  1.00  0.00    -0.378 N 
HETATM   22  C   UNL     1       5.778  25.898  55.070  1.00  0.00     0.150 C 
HETATM   23  C   UNL     1       6.336  24.611  54.412  1.00  0.00     0.255 C 
HETATM   24  N   UNL     1       6.894  24.882  53.010  1.00  0.00    -0.064 N 
HETATM   25  H   UNL     1       6.098  25.146  52.418  1.00  0.00     0.280 HD
HETATM   26  C   UNL     1       7.880  26.050  53.014  1.00  0.00     0.255 C 
HETATM   27  C   UNL     1       7.262  27.297  53.670  1.00  0.00     0.150 C 
BRANCH  24  28
HETATM   28  C   UNL     1       7.531  23.658  52.394  1.00  0.00     0.273 C 
BRANCH  28  29
HETATM   29  C   UNL     1       8.006  22.654  53.404  1.00  0.00    -0.033 A 
HETATM   30  C   UNL     1       8.727  23.069  54.535  1.00  0.00     0.009 A 
HETATM   31  C   UNL     1       9.172  22.131  55.469  1.00  0.00     0.001 A 
HETATM   32  C   UNL     1       8.905  20.777  55.283  1.00  0.00     0.000 A 
HETATM   33  C   UNL     1       8.189  20.355  54.165  1.00  0.00     0.001 A 
HETATM   34  C   UNL     1       7.740  21.287  53.230  1.00  0.00     0.009 A 
ENDBRANCH  28  29
ENDBRANCH  24  28
ENDBRANCH   4  21
TORSDOF 7
ENDMDL
MODEL 3
REMARK VINA RESULT:      -9.8      2.599     11.642
REMARK  7 active torsions:
REMARK  status: ('A' for Active; 'I' for Inactive)
REMARK    1  A    between atoms: C_5  and  O_6 
REMARK    2  A    between atoms: O_6  and  C_7 
REMARK    3  A    between atoms: C_7  and  C_8 
REMARK       I    between atoms: C_8  and  N_9 
REMARK    4  A    between atoms: N_9  and  C_10 
REMARK    5  A    between atoms: C_13  and  N_14 
REMARK    6  A    between atoms: N_17  and  C_19 
REMARK    7  A    between atoms: C_19  and  C_20 
ROOT
HETATM    1  C   UNL     1       5.273  30.069  57.659  1.00  0.00     0.034 A 
HETATM    2  C   UNL     1       6.474  29.366  57.673  1.00  0.00     0.032 A 
HETATM    3  C   UNL     1       6.748  28.390  56.708  1.00  0.00     0.031 A 
HETATM    4  C   UNL     1       5.845  28.076  55.683  1.00  0.00     0.030 A 
HETATM    5  C   UNL     1       4.638  28.787  55.681  1.00  0.00     0.031 A 
HETATM    6  C   UNL     1       4.352  29.768  56.653  1.00  0.00     0.032 A 
ENDROOT
BRANCH   1   7
HETATM    7  N   UNL     1       4.929  31.032  58.634  1.00  0.00    -0.325 N 
HETATM    8  C   UNL     1       5.231  32.383  58.595  1.00  0.00     0.246 C 
HETATM    9  O   UNL     1       5.749  32.980  57.652  1.00  0.00    -0.271 OA
HETATM   10  H   UNL     1       4.386  30.727  59.437  1.00  0.00     0.169 HD
BRANCH   8  11
HETATM   11  C   UNL     1       4.940  33.138  59.892  1.00  0.00     0.278 C 
BRANCH  11  12
HETATM   12  O   UNL     1       4.893  32.339  61.066  1.00  0.00    -0.342 OA
BRANCH  12  13
HETATM   13  C   UNL     1       6.028  32.393  61.851  1.00  0.00     0.075 A 
HETATM   14  C   UNL     1       5.904  33.012  63.113  1.00  0.00    -0.023 A 
HETATM   15  C   UNL     1       7.055  33.170  63.925  1.00  0.00    -0.053 A 
HETATM   16  C   UNL     1       4.577  33.562  63.572  1.00  0.00     0.052 C 
HETATM   17  C   UNL     1       7.010  33.856  65.265  1.00  0.00     0.049 C 
HETATM   18  C   UNL     1       8.281  32.633  63.503  1.00  0.00     0.007 A 
HETATM   19  C   UNL     1       8.385  31.979  62.282  1.00  0.00     0.003 A 
HETATM   20  C   UNL     1       7.266  31.862  61.460  1.00  0.00     0.037 A 
ENDBRANCH  12  13
ENDBRANCH  11  12
ENDBRANCH   8  11
ENDBRANCH   1   7
BRANCH   4  21
HETATM   21  N   UNL     1       6.152  27.061  54.783  1.00  0.00    -0.378 N 
HETATM   22  C   UNL     1       5.356  25.830  54.716  1.00  0.00     0.150 C 
HETATM   23  C   UNL     1       6.256  24.656  54.259  1.00  0.00     0.255 C 
HETATM   24  N   UNL     1       7.009  24.983  52.963  1.00  0.00    -0.064 N 
HETATM   25  H   UNL     1       6.303  25.067  52.222  1.00  0.00     0.280 HD
HETATM   26  C   UNL     1       7.743  26.320  53.064  1.00  0.00     0.255 C 
HETATM   27  C   UNL     1       6.791  27.445  53.511  1.00  0.00     0.150 C 
BRANCH  24  28
HETATM   28  C   UNL     1       7.966  23.887  52.557  1.00  0.00     0.273 C 
BRANCH  28  29
HETATM   29  C   UNL     1       8.124  22.812  53.594  1.00  0.00    -0.033 A 
HETATM   30  C   UNL     1       8.630  23.119  54.866  1.00  0.00     0.009 A 
HETATM   31  C   UNL     1       8.782  22.116  55.825  1.00  0.00     0.001 A 
HETATM   32  C   UNL     1       8.433  20.802  55.523  1.00  0.00     0.000 A 
HETATM   33  C   UNL     1       7.930  20.486  54.263  1.00  0.00     0.001 A 
HETATM   34  C   UNL     1       7.775  21.485  53.302  1.00  0.00     0.009 A 
ENDBRANCH  28  29
ENDBRANCH  24  28
ENDBRANCH   4  21
TORSDOF 7
ENDMDL
MODEL 4
REMARK VINA RESULT:      -9.7      2.534     12.407
REMARK  7 active torsions:
REMARK  status: ('A' for Active; 'I' for Inactive)
REMARK    1  A    between atoms: C_5  and  O_6 
REMARK    2  A    between atoms: O_6  and  C_7 
REMARK    3  A    between atoms: C_7  and  C_8 
REMARK       I    between atoms: C_8  and  N_9 
REMARK    4  A    between atoms: N_9  and  C_10 
REMARK    5  A    between atoms: C_13  and  N_14 
REMARK    6  A    between atoms: N_17  and  C_19 
REMARK    7  A    between atoms: C_19  and  C_20 
ROOT
HETATM    1  C   UNL     1       6.921  31.123  58.925  1.00  0.00     0.034 A 
HETATM    2  C   UNL     1       8.015  30.262  58.909  1.00  0.00     0.032 A 
HETATM    3  C   UNL     1       8.014  29.111  58.111  1.00  0.00     0.031 A 
HETATM    4  C   UNL     1       6.932  28.770  57.290  1.00  0.00     0.030 A 
HETATM    5  C   UNL     1       5.834  29.641  57.316  1.00  0.00     0.031 A 
HETATM    6  C   UNL     1       5.826  30.800  58.121  1.00  0.00     0.032 A 
ENDROOT
BRANCH   1   7
HETATM    7  N   UNL     1       6.852  32.272  59.743  1.00  0.00    -0.325 N 
HETATM    8  C   UNL     1       6.961  32.302  61.124  1.00  0.00     0.246 C 
HETATM    9  O   UNL     1       7.247  31.349  61.847  1.00  0.00    -0.271 OA
HETATM   10  H   UNL     1       6.736  33.174  59.293  1.00  0.00     0.169 HD
BRANCH   8  11
HETATM   11  C   UNL     1       6.614  33.648  61.760  1.00  0.00     0.278 C 
BRANCH  11  12
HETATM   12  O   UNL     1       5.416  33.670  62.524  1.00  0.00    -0.342 OA
BRANCH  12  13
HETATM   13  C   UNL     1       5.596  33.833  63.883  1.00  0.00     0.075 A 
HETATM   14  C   UNL     1       4.478  34.259  64.631  1.00  0.00    -0.023 A 
HETATM   15  C   UNL     1       4.627  34.523  66.015  1.00  0.00    -0.053 A 
HETATM   16  C   UNL     1       3.149  34.497  63.958  1.00  0.00     0.052 C 
HETATM   17  C   UNL     1       3.491  35.019  66.870  1.00  0.00     0.049 C 
HETATM   18  C   UNL     1       5.859  34.275  66.640  1.00  0.00     0.007 A 
HETATM   19  C   UNL     1       6.942  33.806  65.908  1.00  0.00     0.003 A 
HETATM   20  C   UNL     1       6.813  33.589  64.538  1.00  0.00     0.037 A 
ENDBRANCH  12  13
ENDBRANCH  11  12
ENDBRANCH   8  11
ENDBRANCH   1   7
BRANCH   4  21
HETATM   21  N   UNL     1       6.969  27.588  56.558  1.00  0.00    -0.378 N 
HETATM   22  C   UNL     1       7.374  26.319  57.173  1.00  0.00     0.150 C 
HETATM   23  C   UNL     1       8.032  25.413  56.104  1.00  0.00     0.255 C 
HETATM   24  N   UNL     1       7.142  25.250  54.866  1.00  0.00    -0.064 N 
HETATM   25  H   UNL     1       6.309  24.729  55.165  1.00  0.00     0.280 HD
HETATM   26  C   UNL     1       6.678  26.602  54.327  1.00  0.00     0.255 C 
HETATM   27  C   UNL     1       6.025  27.449  55.435  1.00  0.00     0.150 C 
BRANCH  24  28
HETATM   28  C   UNL     1       7.810  24.449  53.773  1.00  0.00     0.273 C 
BRANCH  28  29
HETATM   29  C   UNL     1       7.853  22.973  54.050  1.00  0.00    -0.033 A 
HETATM   30  C   UNL     1       7.755  22.492  55.365  1.00  0.00     0.009 A 
HETATM   31  C   UNL     1       7.802  21.120  55.618  1.00  0.00     0.001 A 
HETATM   32  C   UNL     1       7.949  20.219  54.566  1.00  0.00     0.000 A 
HETATM   33  C   UNL     1       8.047  20.686  53.257  1.00  0.00     0.001 A 
HETATM   34  C   UNL     1       7.999  22.056  52.998  1.00  0.00     0.009 A 
ENDBRANCH  28  29
ENDBRANCH  24  28
ENDBRANCH   4  21
TORSDOF 7
ENDMDL
MODEL 5
REMARK VINA RESULT:      -9.5      2.779     12.192
REMARK  7 active torsions:
REMARK  status: ('A' for Active; 'I' for Inactive)
REMARK    1  A    between atoms: C_5  and  O_6 
REMARK    2  A    between atoms: O_6  and  C_7 
REMARK    3  A    between atoms: C_7  and  C_8 
REMARK       I    between atoms: C_8  and  N_9 
REMARK    4  A    between atoms: N_9  and  C_10 
REMARK    5  A    between atoms: C_13  and  N_14 
REMARK    6  A    between atoms: N_17  and  C_19 
REMARK    7  A    between atoms: C_19  and  C_20 
ROOT
HETATM    1  C   UNL     1       5.485  31.503  58.503  1.00  0.00     0.034 A 
HETATM    2  C   UNL     1       6.783  31.006  58.583  1.00  0.00     0.032 A 
HETATM    3  C   UNL     1       7.109  29.752  58.055  1.00  0.00     0.031 A 
HETATM    4  C   UNL     1       6.163  28.940  57.416  1.00  0.00     0.030 A 
HETATM    5  C   UNL     1       4.858  29.447  57.344  1.00  0.00     0.031 A 
HETATM    6  C   UNL     1       4.521  30.707  57.879  1.00  0.00     0.032 A 
ENDROOT
BRANCH   1   7
HETATM    7  N   UNL     1       5.094  32.741  59.059  1.00  0.00    -0.325 N 
HETATM    8  C   UNL     1       4.278  32.922  60.163  1.00  0.00     0.246 C 
HETATM    9  O   UNL     1       3.854  32.035  60.902  1.00  0.00    -0.271 OA
HETATM   10  H   UNL     1       5.456  33.591  58.637  1.00  0.00     0.169 HD
BRANCH   8  11
HETATM   11  C   UNL     1       3.833  34.367  60.396  1.00  0.00     0.278 C 
BRANCH  11  12
HETATM   12  O   UNL     1       4.828  35.232  60.926  1.00  0.00    -0.342 OA
BRANCH  12  13
HETATM   13  C   UNL     1       4.842  35.325  62.304  1.00  0.00     0.075 A 
HETATM   14  C   UNL     1       5.850  34.608  62.983  1.00  0.00    -0.023 A 
HETATM   15  C   UNL     1       5.861  34.600  64.401  1.00  0.00    -0.053 A 
HETATM   16  C   UNL     1       6.870  33.804  62.217  1.00  0.00     0.052 C 
HETATM   17  C   UNL     1       6.880  33.826  65.196  1.00  0.00     0.049 C 
HETATM   18  C   UNL     1       4.925  35.371  65.107  1.00  0.00     0.007 A 
HETATM   19  C   UNL     1       3.967  36.116  64.431  1.00  0.00     0.003 A 
HETATM   20  C   UNL     1       3.923  36.090  63.039  1.00  0.00     0.037 A 
ENDBRANCH  12  13
ENDBRANCH  11  12
ENDBRANCH   8  11
ENDBRANCH   1   7
BRANCH   4  21
HETATM   21  N   UNL     1       6.535  27.682  56.955  1.00  0.00    -0.378 N 
HETATM   22  C   UNL     1       5.681  26.921  56.035  1.00  0.00     0.150 C 
HETATM   23  C   UNL     1       5.892  25.405  56.268  1.00  0.00     0.255 C 
HETATM   24  N   UNL     1       7.375  25.018  56.207  1.00  0.00    -0.064 N 
HETATM   25  H   UNL     1       7.684  25.173  55.240  1.00  0.00     0.280 HD
HETATM   26  C   UNL     1       8.224  25.906  57.116  1.00  0.00     0.255 C 
HETATM   27  C   UNL     1       7.975  27.397  56.827  1.00  0.00     0.150 C 
BRANCH  24  28
HETATM   28  C   UNL     1       7.608  23.561  56.529  1.00  0.00     0.273 C 
BRANCH  28  29
HETATM   29  C   UNL     1       7.754  22.691  55.313  1.00  0.00    -0.033 A 
HETATM   30  C   UNL     1       7.789  23.262  54.031  1.00  0.00     0.009 A 
HETATM   31  C   UNL     1       7.918  22.450  52.902  1.00  0.00     0.001 A 
HETATM   32  C   UNL     1       8.012  21.068  53.042  1.00  0.00     0.000 A 
HETATM   33  C   UNL     1       7.979  20.491  54.310  1.00  0.00     0.001 A 
HETATM   34  C   UNL     1       7.851  21.298  55.441  1.00  0.00     0.009 A 
ENDBRANCH  28  29
ENDBRANCH  24  28
ENDBRANCH   4  21
TORSDOF 7
ENDMDL
MODEL 6
REMARK VINA RESULT:      -9.4      1.794      2.699
REMARK  7 active torsions:
REMARK  status: ('A' for Active; 'I' for Inactive)
REMARK    1  A    between atoms: C_5  and  O_6 
REMARK    2  A    between atoms: O_6  and  C_7 
REMARK    3  A    between atoms: C_7  and  C_8 
REMARK       I    between atoms: C_8  and  N_9 
REMARK    4  A    between atoms: N_9  and  C_10 
REMARK    5  A    between atoms: C_13  and  N_14 
REMARK    6  A    between atoms: N_17  and  C_19 
REMARK    7  A    between atoms: C_19  and  C_20 
ROOT
HETATM    1  C   UNL     1       7.132  28.555  57.234  1.00  0.00     0.034 A 
HETATM    2  C   UNL     1       5.846  29.051  57.038  1.00  0.00     0.032 A 
HETATM    3  C   UNL     1       5.431  30.239  57.649  1.00  0.00     0.031 A 
HETATM    4  C   UNL     1       6.277  30.992  58.475  1.00  0.00     0.030 A 
HETATM    5  C   UNL     1       7.568  30.482  58.669  1.00  0.00     0.031 A 
HETATM    6  C   UNL     1       7.991  29.283  58.060  1.00  0.00     0.032 A 
ENDROOT
BRANCH   1   7
HETATM    7  N   UNL     1       7.586  27.339  56.677  1.00  0.00    -0.325 N 
HETATM    8  C   UNL     1       7.870  26.175  57.372  1.00  0.00     0.246 C 
HETATM    9  O   UNL     1       7.665  25.980  58.569  1.00  0.00    -0.271 OA
HETATM   10  H   UNL     1       7.699  27.286  55.669  1.00  0.00     0.169 HD
BRANCH   8  11
HETATM   11  C   UNL     1       8.566  25.094  56.545  1.00  0.00     0.278 C 
BRANCH  11  12
HETATM   12  O   UNL     1       7.727  24.375  55.652  1.00  0.00    -0.342 OA
BRANCH  12  13
HETATM   13  C   UNL     1       8.000  23.024  55.558  1.00  0.00     0.075 A 
HETATM   14  C   UNL     1       8.096  22.479  54.260  1.00  0.00    -0.023 A 
HETATM   15  C   UNL     1       8.292  21.084  54.105  1.00  0.00    -0.053 A 
HETATM   16  C   UNL     1       7.930  23.356  53.044  1.00  0.00     0.052 C 
HETATM   17  C   UNL     1       8.365  20.424  52.753  1.00  0.00     0.049 C 
HETATM   18  C   UNL     1       8.472  20.279  55.240  1.00  0.00     0.007 A 
HETATM   19  C   UNL     1       8.427  20.830  56.514  1.00  0.00     0.003 A 
HETATM   20  C   UNL     1       8.189  22.193  56.672  1.00  0.00     0.037 A 
ENDBRANCH  12  13
ENDBRANCH  11  12
ENDBRANCH   8  11
ENDBRANCH   1   7
BRANCH   4  21
HETATM   21  N   UNL     1       5.792  32.139  59.094  1.00  0.00    -0.378 N 
HETATM   22  C   UNL     1       6.401  32.659  60.324  1.00  0.00     0.150 C 
HETATM   23  C   UNL     1       5.325  33.388  61.165  1.00  0.00     0.255 C 
HETATM   24  N   UNL     1       4.575  34.444  60.344  1.00  0.00    -0.064 N 
HETATM   25  H   UNL     1       5.255  35.177  60.110  1.00  0.00     0.280 HD
HETATM   26  C   UNL     1       4.044  33.864  59.034  1.00  0.00     0.255 C 
HETATM   27  C   UNL     1       5.164  33.164  58.242  1.00  0.00     0.150 C 
BRANCH  24  28
HETATM   28  C   UNL     1       3.456  35.096  61.122  1.00  0.00     0.273 C 
BRANCH  28  29
HETATM   29  C   UNL     1       3.893  35.670  62.440  1.00  0.00    -0.033 A 
HETATM   30  C   UNL     1       4.728  36.797  62.483  1.00  0.00     0.009 A 
HETATM   31  C   UNL     1       5.137  37.324  63.709  1.00  0.00     0.001 A 
HETATM   32  C   UNL     1       4.721  36.731  64.899  1.00  0.00     0.000 A 
HETATM   33  C   UNL     1       3.891  35.612  64.868  1.00  0.00     0.001 A 
HETATM   34  C   UNL     1       3.478  35.083  63.645  1.00  0.00     0.009 A 
ENDBRANCH  28  29
ENDBRANCH  24  28
ENDBRANCH   4  21
TORSDOF 7
ENDMDL
MODEL 7
REMARK VINA RESULT:      -9.3      2.749     12.084
REMARK  7 active torsions:
REMARK  status: ('A' for Active; 'I' for Inactive)
REMARK    1  A    between atoms: C_5  and  O_6 
REMARK    2  A    between atoms: O_6  and  C_7 
REMARK    3  A    between atoms: C_7  and  C_8 
REMARK       I    between atoms: C_8  and  N_9 
REMARK    4  A    between atoms: N_9  and  C_10 
REMARK    5  A    between atoms: C_13  and  N_14 
REMARK    6  A    between atoms: N_17  and  C_19 
REMARK    7  A    between atoms: C_19  and  C_20 
ROOT
HETATM    1  C   UNL     1       5.095  30.809  57.865  1.00  0.00     0.034 A 
HETATM    2  C   UNL     1       6.400  30.341  57.986  1.00  0.00     0.032 A 
HETATM    3  C   UNL     1       6.824  29.203  57.291  1.00  0.00     0.031 A 
HETATM    4  C   UNL     1       5.975  28.486  56.439  1.00  0.00     0.030 A 
HETATM    5  C   UNL     1       4.662  28.963  56.327  1.00  0.00     0.031 A 
HETATM    6  C   UNL     1       4.225  30.106  57.029  1.00  0.00     0.032 A 
ENDROOT
BRANCH   1   7
HETATM    7  N   UNL     1       4.603  31.925  58.578  1.00  0.00    -0.325 N 
HETATM    8  C   UNL     1       4.862  33.256  58.298  1.00  0.00     0.246 C 
HETATM    9  O   UNL     1       5.470  33.682  57.317  1.00  0.00    -0.271 OA
HETATM   10  H   UNL     1       3.979  31.756  59.361  1.00  0.00     0.169 HD
BRANCH   8  11
HETATM   11  C   UNL     1       4.393  34.237  59.372  1.00  0.00     0.278 C 
BRANCH  11  12
HETATM   12  O   UNL     1       4.117  33.663  60.643  1.00  0.00    -0.342 OA
BRANCH  12  13
HETATM   13  C   UNL     1       4.754  34.272  61.706  1.00  0.00     0.075 A 
HETATM   14  C   UNL     1       5.768  33.534  62.352  1.00  0.00    -0.023 A 
HETATM   15  C   UNL     1       6.397  34.076  63.501  1.00  0.00    -0.053 A 
HETATM   16  C   UNL     1       6.139  32.154  61.871  1.00  0.00     0.052 C 
HETATM   17  C   UNL     1       7.459  33.332  64.267  1.00  0.00     0.049 C 
HETATM   18  C   UNL     1       6.066  35.371  63.927  1.00  0.00     0.007 A 
HETATM   19  C   UNL     1       5.103  36.114  63.255  1.00  0.00     0.003 A 
HETATM   20  C   UNL     1       4.449  35.566  62.154  1.00  0.00     0.037 A 
ENDBRANCH  12  13
ENDBRANCH  11  12
ENDBRANCH   8  11
ENDBRANCH   1   7
BRANCH   4  21
HETATM   21  N   UNL     1       6.439  27.334  55.813  1.00  0.00    -0.378 N 
HETATM   22  C   UNL     1       7.484  27.391  54.784  1.00  0.00     0.150 C 
HETATM   23  C   UNL     1       7.289  26.224  53.784  1.00  0.00     0.255 C 
HETATM   24  N   UNL     1       7.188  24.870  54.498  1.00  0.00    -0.064 N 
HETATM   25  H   UNL     1       8.104  24.690  54.925  1.00  0.00     0.280 HD
HETATM   26  C   UNL     1       6.149  24.903  55.618  1.00  0.00     0.255 C 
HETATM   27  C   UNL     1       6.405  26.076  56.581  1.00  0.00     0.150 C 
BRANCH  24  28
HETATM   28  C   UNL     1       6.900  23.734  53.545  1.00  0.00     0.273 C 
BRANCH  28  29
HETATM   29  C   UNL     1       7.563  22.442  53.931  1.00  0.00    -0.033 A 
HETATM   30  C   UNL     1       8.043  21.566  52.945  1.00  0.00     0.009 A 
HETATM   31  C   UNL     1       8.654  20.364  53.308  1.00  0.00     0.001 A 
HETATM   32  C   UNL     1       8.788  20.026  54.652  1.00  0.00     0.000 A 
HETATM   33  C   UNL     1       8.317  20.889  55.639  1.00  0.00     0.001 A 
HETATM   34  C   UNL     1       7.707  22.092  55.282  1.00  0.00     0.009 A 
ENDBRANCH  28  29
ENDBRANCH  24  28
ENDBRANCH   4  21
TORSDOF 7
ENDMDL
MODEL 8
REMARK VINA RESULT:      -9.3      2.702     11.950
REMARK  7 active torsions:
REMARK  status: ('A' for Active; 'I' for Inactive)
REMARK    1  A    between atoms: C_5  and  O_6 
REMARK    2  A    between atoms: O_6  and  C_7 
REMARK    3  A    between atoms: C_7  and  C_8 
REMARK       I    between atoms: C_8  and  N_9 
REMARK    4  A    between atoms: N_9  and  C_10 
REMARK    5  A    between atoms: C_13  and  N_14 
REMARK    6  A    between atoms: N_17  and  C_19 
REMARK    7  A    between atoms: C_19  and  C_20 
ROOT
HETATM    1  C   UNL     1       5.797  31.524  58.699  1.00  0.00     0.034 A 
HETATM    2  C   UNL     1       4.846  30.850  57.939  1.00  0.00     0.032 A 
HETATM    3  C   UNL     1       5.177  29.682  57.242  1.00  0.00     0.031 A 
HETATM    4  C   UNL     1       6.464  29.130  57.275  1.00  0.00     0.030 A 
HETATM    5  C   UNL     1       7.415  29.818  58.040  1.00  0.00     0.031 A 
HETATM    6  C   UNL     1       7.090  30.998  58.741  1.00  0.00     0.032 A 
ENDROOT
BRANCH   1   7
HETATM    7  N   UNL     1       5.527  32.729  59.385  1.00  0.00    -0.325 N 
HETATM    8  C   UNL     1       4.723  32.873  60.503  1.00  0.00     0.246 C 
HETATM    9  O   UNL     1       4.205  31.959  61.143  1.00  0.00    -0.271 OA
HETATM   10  H   UNL     1       5.977  33.578  59.056  1.00  0.00     0.169 HD
BRANCH   8  11
HETATM   11  C   UNL     1       4.424  34.322  60.891  1.00  0.00     0.278 C 
BRANCH  11  12
HETATM   12  O   UNL     1       5.506  35.031  61.480  1.00  0.00    -0.342 OA
BRANCH  12  13
HETATM   13  C   UNL     1       6.104  34.393  62.549  1.00  0.00     0.075 A 
HETATM   14  C   UNL     1       5.636  34.728  63.837  1.00  0.00    -0.023 A 
HETATM   15  C   UNL     1       6.270  34.168  64.974  1.00  0.00    -0.053 A 
HETATM   16  C   UNL     1       4.515  35.721  64.013  1.00  0.00     0.052 C 
HETATM   17  C   UNL     1       5.853  34.507  66.381  1.00  0.00     0.049 C 
HETATM   18  C   UNL     1       7.295  33.225  64.802  1.00  0.00     0.007 A 
HETATM   19  C   UNL     1       7.717  32.861  63.530  1.00  0.00     0.003 A 
HETATM   20  C   UNL     1       7.128  33.444  62.411  1.00  0.00     0.037 A 
ENDBRANCH  12  13
ENDBRANCH  11  12
ENDBRANCH   8  11
ENDBRANCH   1   7
BRANCH   4  21
HETATM   21  N   UNL     1       6.746  27.995  56.522  1.00  0.00    -0.378 N 
HETATM   22  C   UNL     1       7.762  28.012  55.463  1.00  0.00     0.150 C 
HETATM   23  C   UNL     1       7.379  26.992  54.363  1.00  0.00     0.255 C 
HETATM   24  N   UNL     1       7.107  25.599  54.944  1.00  0.00    -0.064 N 
HETATM   25  H   UNL     1       7.999  25.252  55.315  1.00  0.00     0.280 HD
HETATM   26  C   UNL     1       6.112  25.659  56.102  1.00  0.00     0.255 C 
HETATM   27  C   UNL     1       6.555  26.682  57.164  1.00  0.00     0.150 C 
BRANCH  24  28
HETATM   28  C   UNL     1       6.638  24.616  53.897  1.00  0.00     0.273 C 
BRANCH  28  29
HETATM   29  C   UNL     1       7.243  23.249  54.042  1.00  0.00    -0.033 A 
HETATM   30  C   UNL     1       7.349  22.648  55.305  1.00  0.00     0.009 A 
HETATM   31  C   UNL     1       7.917  21.379  55.436  1.00  0.00     0.001 A 
HETATM   32  C   UNL     1       8.384  20.703  54.312  1.00  0.00     0.000 A 
HETATM   33  C   UNL     1       8.283  21.290  53.053  1.00  0.00     0.001 A 
HETATM   34  C   UNL     1       7.714  22.556  52.916  1.00  0.00     0.009 A 
ENDBRANCH  28  29
ENDBRANCH  24  28
ENDBRANCH   4  21
TORSDOF 7
ENDMDL
MODEL 9
REMARK VINA RESULT:      -9.0      1.888      2.637
REMARK  7 active torsions:
REMARK  status: ('A' for Active; 'I' for Inactive)
REMARK    1  A    between atoms: C_5  and  O_6 
REMARK    2  A    between atoms: O_6  and  C_7 
REMARK    3  A    between atoms: C_7  and  C_8 
REMARK       I    between atoms: C_8  and  N_9 
REMARK    4  A    between atoms: N_9  and  C_10 
REMARK    5  A    between atoms: C_13  and  N_14 
REMARK    6  A    between atoms: N_17  and  C_19 
REMARK    7  A    between atoms: C_19  and  C_20 
ROOT
HETATM    1  C   UNL     1       6.014  28.216  56.108  1.00  0.00     0.034 A 
HETATM    2  C   UNL     1       4.685  28.621  56.034  1.00  0.00     0.032 A 
HETATM    3  C   UNL     1       4.227  29.724  56.764  1.00  0.00     0.031 A 
HETATM    4  C   UNL     1       5.070  30.477  57.591  1.00  0.00     0.030 A 
HETATM    5  C   UNL     1       6.406  30.059  57.661  1.00  0.00     0.031 A 
HETATM    6  C   UNL     1       6.873  28.945  56.933  1.00  0.00     0.032 A 
ENDROOT
BRANCH   1   7
HETATM    7  N   UNL     1       6.517  27.084  55.428  1.00  0.00    -0.325 N 
HETATM    8  C   UNL     1       6.829  27.009  54.081  1.00  0.00     0.246 C 
HETATM    9  O   UNL     1       6.823  27.947  53.284  1.00  0.00    -0.271 OA
HETATM   10  H   UNL     1       6.697  26.243  55.967  1.00  0.00     0.169 HD
BRANCH   8  11
HETATM   11  C   UNL     1       7.129  25.598  53.574  1.00  0.00     0.278 C 
BRANCH  11  12
HETATM   12  O   UNL     1       8.033  24.844  54.370  1.00  0.00    -0.342 OA
BRANCH  12  13
HETATM   13  C   UNL     1       7.964  23.476  54.190  1.00  0.00     0.075 A 
HETATM   14  C   UNL     1       8.025  22.674  55.349  1.00  0.00    -0.023 A 
HETATM   15  C   UNL     1       8.043  21.263  55.216  1.00  0.00    -0.053 A 
HETATM   16  C   UNL     1       8.135  23.304  56.714  1.00  0.00     0.052 C 
HETATM   17  C   UNL     1       8.147  20.342  56.404  1.00  0.00     0.049 C 
HETATM   18  C   UNL     1       7.914  20.684  53.945  1.00  0.00     0.007 A 
HETATM   19  C   UNL     1       7.803  21.479  52.812  1.00  0.00     0.003 A 
HETATM   20  C   UNL     1       7.831  22.867  52.933  1.00  0.00     0.037 A 
ENDBRANCH  12  13
ENDBRANCH  11  12
ENDBRANCH   8  11
ENDBRANCH   1   7
BRANCH   4  21
HETATM   21  N   UNL     1       4.547  31.533  58.329  1.00  0.00    -0.378 N 
HETATM   22  C   UNL     1       4.574  32.910  57.822  1.00  0.00     0.150 C 
HETATM   23  C   UNL     1       4.656  33.898  59.012  1.00  0.00     0.255 C 
HETATM   24  N   UNL     1       3.557  33.637  60.049  1.00  0.00    -0.064 N 
HETATM   25  H   UNL     1       2.662  33.857  59.596  1.00  0.00     0.280 HD
HETATM   26  C   UNL     1       3.520  32.168  60.469  1.00  0.00     0.255 C 
HETATM   27  C   UNL     1       3.428  31.241  59.243  1.00  0.00     0.150 C 
BRANCH  24  28
HETATM   28  C   UNL     1       3.683  34.528  61.262  1.00  0.00     0.273 C 
BRANCH  28  29
HETATM   29  C   UNL     1       4.692  34.042  62.264  1.00  0.00    -0.033 A 
HETATM   30  C   UNL     1       6.046  33.931  61.911  1.00  0.00     0.009 A 
HETATM   31  C   UNL     1       6.981  33.474  62.843  1.00  0.00     0.001 A 
HETATM   32  C   UNL     1       6.573  33.123  64.127  1.00  0.00     0.000 A 
HETATM   33  C   UNL     1       5.232  33.230  64.488  1.00  0.00     0.001 A 
HETATM   34  C   UNL     1       4.295  33.688  63.562  1.00  0.00     0.009 A 
ENDBRANCH  28  29
ENDBRANCH  24  28
ENDBRANCH   4  21
TORSDOF 7
ENDMDL
MODEL 10
REMARK VINA RESULT:      -8.9      1.123      2.053
REMARK  7 active torsions:
REMARK  status: ('A' for Active; 'I' for Inactive)
REMARK    1  A    between atoms: C_5  and  O_6 
REMARK    2  A    between atoms: O_6  and  C_7 
REMARK    3  A    between atoms: C_7  and  C_8 
REMARK       I    between atoms: C_8  and  N_9 
REMARK    4  A    between atoms: N_9  and  C_10 
REMARK    5  A    between atoms: C_13  and  N_14 
REMARK    6  A    between atoms: N_17  and  C_19 
REMARK    7  A    between atoms: C_19  and  C_20 
ROOT
HETATM    1  C   UNL     1       7.645  29.120  56.274  1.00  0.00     0.034 A 
HETATM    2  C   UNL     1       8.821  29.583  56.859  1.00  0.00     0.032 A 
HETATM    3  C   UNL     1       8.791  30.327  58.044  1.00  0.00     0.031 A 
HETATM    4  C   UNL     1       7.595  30.637  58.704  1.00  0.00     0.030 A 
HETATM    5  C   UNL     1       6.417  30.170  58.105  1.00  0.00     0.031 A 
HETATM    6  C   UNL     1       6.439  29.424  56.908  1.00  0.00     0.032 A 
ENDROOT
BRANCH   1   7
HETATM    7  N   UNL     1       7.616  28.403  55.058  1.00  0.00    -0.325 N 
HETATM    8  C   UNL     1       6.552  28.332  54.174  1.00  0.00     0.246 C 
HETATM    9  O   UNL     1       5.504  28.971  54.253  1.00  0.00    -0.271 OA
HETATM   10  H   UNL     1       8.455  27.905  54.774  1.00  0.00     0.169 HD
BRANCH   8  11
HETATM   11  C   UNL     1       6.717  27.298  53.060  1.00  0.00     0.278 C 
BRANCH  11  12
HETATM   12  O   UNL     1       5.946  26.114  53.209  1.00  0.00    -0.342 OA
BRANCH  12  13
HETATM   13  C   UNL     1       6.505  25.156  54.031  1.00  0.00     0.075 A 
HETATM   14  C   UNL     1       7.362  24.213  53.425  1.00  0.00    -0.023 A 
HETATM   15  C   UNL     1       7.897  23.158  54.205  1.00  0.00    -0.053 A 
HETATM   16  C   UNL     1       7.658  24.283  51.948  1.00  0.00     0.052 C 
HETATM   17  C   UNL     1       8.786  22.092  53.621  1.00  0.00     0.049 C 
HETATM   18  C   UNL     1       7.639  23.114  55.584  1.00  0.00     0.007 A 
HETATM   19  C   UNL     1       6.836  24.075  56.184  1.00  0.00     0.003 A 
HETATM   20  C   UNL     1       6.270  25.087  55.413  1.00  0.00     0.037 A 
ENDBRANCH  12  13
ENDBRANCH  11  12
ENDBRANCH   8  11
ENDBRANCH   1   7
BRANCH   4  21
HETATM   21  N   UNL     1       7.626  31.423  59.851  1.00  0.00    -0.378 N 
HETATM   22  C   UNL     1       8.894  31.863  60.444  1.00  0.00     0.150 C 
HETATM   23  C   UNL     1       8.720  32.026  61.974  1.00  0.00     0.255 C 
HETATM   24  N   UNL     1       7.525  32.922  62.321  1.00  0.00    -0.064 N 
HETATM   25  H   UNL     1       7.754  33.866  61.988  1.00  0.00     0.280 HD
HETATM   26  C   UNL     1       6.256  32.467  61.602  1.00  0.00     0.255 C 
HETATM   27  C   UNL     1       6.492  32.335  60.086  1.00  0.00     0.150 C 
BRANCH  24  28
HETATM   28  C   UNL     1       7.282  33.013  63.810  1.00  0.00     0.273 C 
BRANCH  28  29
HETATM   29  C   UNL     1       6.140  33.916  64.179  1.00  0.00    -0.033 A 
HETATM   30  C   UNL     1       5.087  33.442  64.977  1.00  0.00     0.009 A 
HETATM   31  C   UNL     1       4.024  34.283  65.312  1.00  0.00     0.001 A 
HETATM   32  C   UNL     1       4.002  35.598  64.855  1.00  0.00     0.000 A 
HETATM   33  C   UNL     1       5.042  36.079  64.064  1.00  0.00     0.001 A 
HETATM   34  C   UNL     1       6.107  35.244  63.727  1.00  0.00     0.009 A 
ENDBRANCH  28  29
ENDBRANCH  24  28
ENDBRANCH   4  21
TORSDOF 7
ENDMDL
