MODEL 1
REMARK VINA RESULT:     -10.4      0.000      0.000
REMARK  6 active torsions:
REMARK  status: ('A' for Active; 'I' for Inactive)
REMARK    1  A    between atoms: C_4  and  C_5 
REMARK    2  A    between atoms: C_5  and  N_6 
REMARK    3  A    between atoms: C_10  and  C_11 
REMARK    4  A    between atoms: C_11  and  C_12 
REMARK    5  A    between atoms: N_21  and  C_22 
REMARK    6  A    between atoms: C_22  and  C_23 
ROOT
HETATM    1  C   UNL     1       5.166  27.632  53.465  1.00  0.00     0.164 C 
HETATM    2  N   UNL     1       4.455  27.663  54.739  1.00  0.00    -0.319 N 
HETATM    3  C   UNL     1       5.301  27.826  55.811  1.00  0.00     0.326 C 
HETATM    4  O   UNL     1       4.937  28.089  56.942  1.00  0.00    -0.247 OA
HETATM    5  N   UNL     1       6.574  27.636  55.382  1.00  0.00    -0.265 N 
HETATM    6  C   UNL     1       6.598  27.515  54.023  1.00  0.00     0.263 C 
HETATM    7  O   UNL     1       7.595  27.301  53.344  1.00  0.00    -0.270 OA
HETATM    8  H   UNL     1       3.505  28.015  54.813  1.00  0.00     0.166 HD
ENDROOT
BRANCH   1   9
HETATM    9  C   UNL     1       4.688  26.392  52.624  1.00  0.00     0.033 C 
HETATM   10  C   UNL     1       4.535  25.074  53.400  1.00  0.00     0.036 C 
HETATM   11  C   UNL     1       5.837  24.340  53.681  1.00  0.00     0.235 C 
HETATM   12  N   UNL     1       6.701  24.194  52.454  1.00  0.00    -0.067 N 
HETATM   13  H   UNL     1       6.287  23.429  51.909  1.00  0.00     0.280 HD
HETATM   14  C   UNL     1       6.803  25.391  51.540  1.00  0.00     0.235 C 
HETATM   15  C   UNL     1       5.468  26.081  51.335  1.00  0.00     0.036 C 
BRANCH  12  16
HETATM   16  C   UNL     1       8.118  23.736  52.815  1.00  0.00     0.274 C 
BRANCH  16  17
HETATM   17  C   UNL     1       8.246  23.094  54.175  1.00  0.00    -0.026 A 
HETATM   18  C   UNL     1       8.514  23.927  55.284  1.00  0.00     0.016 A 
HETATM   19  C   UNL     1       8.586  23.415  56.582  1.00  0.00    -0.061 A 
HETATM   20  C   UNL     1       8.858  24.308  57.757  1.00  0.00     0.048 C 
HETATM   21  C   UNL     1       8.415  22.044  56.772  1.00  0.00     0.007 A 
HETATM   22  C   UNL     1       8.174  21.202  55.685  1.00  0.00     0.008 A 
HETATM   23  C   UNL     1       8.076  21.711  54.380  1.00  0.00    -0.054 A 
HETATM   24  C   UNL     1       7.874  20.743  53.246  1.00  0.00     0.049 C 
ENDBRANCH  16  17
ENDBRANCH  12  16
ENDBRANCH   1   9
BRANCH   1  25
HETATM   25  C   UNL     1       4.895  28.953  52.743  1.00  0.00     0.072 A 
HETATM   26  N   UNL     1       4.068  29.809  53.408  1.00  0.00    -0.262 NA
HETATM   27  C   UNL     1       3.821  31.017  52.853  1.00  0.00     0.117 A 
HETATM   28  C   UNL     1       4.349  31.425  51.644  1.00  0.00     0.019 A 
HETATM   29  C   UNL     1       5.185  30.547  50.967  1.00  0.00     0.003 A 
HETATM   30  C   UNL     1       5.467  29.297  51.518  1.00  0.00     0.030 A 
ENDBRANCH   1  25
BRANCH   5  31
HETATM   31  C   UNL     1       7.751  27.683  56.231  1.00  0.00     0.168 C 
BRANCH  31  32
HETATM   32  C   UNL     1       8.248  29.114  56.465  1.00  0.00     0.140 C 
HETATM   33  O   UNL     1       9.377  29.396  55.609  1.00  0.00    -0.384 OA
HETATM   34  C   UNL     1      10.470  29.841  56.422  1.00  0.00     0.168 C 
HETATM   35  C   UNL     1       9.863  30.300  57.726  1.00  0.00     0.029 C 
HETATM   36  C   UNL     1       8.726  29.324  57.897  1.00  0.00     0.036 C 
ENDBRANCH  31  32
ENDBRANCH   5  31
TORSDOF 6
ENDMDL
MODEL 2
REMARK VINA RESULT:     -10.2      2.943      4.818
REMARK  6 active torsions:
REMARK  status: ('A' for Active; 'I' for Inactive)
REMARK    1  A    between atoms: C_4  and  C_5 
REMARK    2  A    between atoms: C_5  and  N_6 
REMARK    3  A    between atoms: C_10  and  C_11 
REMARK    4  A    between atoms: C_11  and  C_12 
REMARK    5  A    between atoms: N_21  and  C_22 
REMARK    6  A    between atoms: C_22  and  C_23 
ROOT
HETATM    1  C   UNL     1       5.105  29.745  56.157  1.00  0.00     0.164 C 
HETATM    2  N   UNL     1       5.165  30.644  55.008  1.00  0.00    -0.319 N 
HETATM    3  C   UNL     1       4.772  31.924  55.319  1.00  0.00     0.326 C 
HETATM    4  O   UNL     1       4.932  32.889  54.595  1.00  0.00    -0.247 OA
HETATM    5  N   UNL     1       4.185  31.904  56.542  1.00  0.00    -0.265 N 
HETATM    6  C   UNL     1       4.330  30.673  57.112  1.00  0.00     0.263 C 
HETATM    7  O   UNL     1       3.878  30.333  58.200  1.00  0.00    -0.270 OA
HETATM    8  H   UNL     1       5.840  30.511  54.261  1.00  0.00     0.166 HD
ENDROOT
BRANCH   1   9
HETATM    9  C   UNL     1       4.341  28.429  55.758  1.00  0.00     0.033 C 
HETATM   10  C   UNL     1       4.533  27.231  56.702  1.00  0.00     0.036 C 
HETATM   11  C   UNL     1       5.845  26.482  56.530  1.00  0.00     0.235 C 
HETATM   12  N   UNL     1       6.138  26.141  55.091  1.00  0.00    -0.067 N 
HETATM   13  H   UNL     1       5.547  25.331  54.870  1.00  0.00     0.280 HD
HETATM   14  C   UNL     1       5.845  27.203  54.060  1.00  0.00     0.235 C 
HETATM   15  C   UNL     1       4.534  27.920  54.320  1.00  0.00     0.036 C 
BRANCH  12  16
HETATM   16  C   UNL     1       7.585  25.671  54.908  1.00  0.00     0.274 C 
BRANCH  16  17
HETATM   17  C   UNL     1       7.731  24.233  54.475  1.00  0.00    -0.026 A 
HETATM   18  C   UNL     1       7.783  23.236  55.475  1.00  0.00     0.016 A 
HETATM   19  C   UNL     1       7.856  21.879  55.151  1.00  0.00    -0.061 A 
HETATM   20  C   UNL     1       7.896  20.825  56.219  1.00  0.00     0.048 C 
HETATM   21  C   UNL     1       7.907  21.513  53.807  1.00  0.00     0.007 A 
HETATM   22  C   UNL     1       7.882  22.485  52.805  1.00  0.00     0.008 A 
HETATM   23  C   UNL     1       7.784  23.850  53.120  1.00  0.00    -0.054 A 
HETATM   24  C   UNL     1       7.822  24.849  51.997  1.00  0.00     0.049 C 
ENDBRANCH  16  17
ENDBRANCH  12  16
ENDBRANCH   1   9
BRANCH   1  25
HETATM   25  C   UNL     1       6.539  29.461  56.606  1.00  0.00     0.072 A 
HETATM   26  N   UNL     1       7.436  29.304  55.592  1.00  0.00    -0.262 NA
HETATM   27  C   UNL     1       8.733  29.097  55.914  1.00  0.00     0.117 A 
HETATM   28  C   UNL     1       9.196  29.023  57.213  1.00  0.00     0.019 A 
HETATM   29  C   UNL     1       8.277  29.176  58.243  1.00  0.00     0.003 A 
HETATM   30  C   UNL     1       6.934  29.400  57.943  1.00  0.00     0.030 A 
ENDBRANCH   1  25
BRANCH   5  31
HETATM   31  C   UNL     1       3.601  33.059  57.201  1.00  0.00     0.168 C 
BRANCH  31  32
HETATM   32  C   UNL     1       4.555  33.699  58.216  1.00  0.00     0.140 C 
HETATM   33  O   UNL     1       5.838  33.035  58.181  1.00  0.00    -0.384 OA
HETATM   34  C   UNL     1       6.163  32.592  59.504  1.00  0.00     0.168 C 
HETATM   35  C   UNL     1       5.308  33.410  60.442  1.00  0.00     0.029 C 
HETATM   36  C   UNL     1       4.038  33.567  59.644  1.00  0.00     0.036 C 
ENDBRANCH  31  32
ENDBRANCH   5  31
TORSDOF 6
ENDMDL
MODEL 3
REMARK VINA RESULT:      -9.9      2.601      6.926
REMARK  6 active torsions:
REMARK  status: ('A' for Active; 'I' for Inactive)
REMARK    1  A    between atoms: C_4  and  C_5 
REMARK    2  A    between atoms: C_5  and  N_6 
REMARK    3  A    between atoms: C_10  and  C_11 
REMARK    4  A    between atoms: C_11  and  C_12 
REMARK    5  A    between atoms: N_21  and  C_22 
REMARK    6  A    between atoms: C_22  and  C_23 
ROOT
HETATM    1  C   UNL     1       6.434  26.003  54.419  1.00  0.00     0.164 C 
HETATM    2  N   UNL     1       7.187  26.990  53.651  1.00  0.00    -0.319 N 
HETATM    3  C   UNL     1       7.917  27.835  54.452  1.00  0.00     0.326 C 
HETATM    4  O   UNL     1       8.777  28.596  54.048  1.00  0.00    -0.247 OA
HETATM    5  N   UNL     1       7.504  27.670  55.734  1.00  0.00    -0.265 N 
HETATM    6  C   UNL     1       6.637  26.620  55.816  1.00  0.00     0.263 C 
HETATM    7  O   UNL     1       6.066  26.244  56.833  1.00  0.00    -0.270 OA
HETATM    8  H   UNL     1       7.530  26.791  52.716  1.00  0.00     0.166 HD
ENDROOT
BRANCH   1   9
HETATM    9  C   UNL     1       4.941  25.976  53.924  1.00  0.00     0.033 C 
HETATM   10  C   UNL     1       4.642  25.033  52.747  1.00  0.00     0.036 C 
HETATM   11  C   UNL     1       5.051  25.560  51.381  1.00  0.00     0.235 C 
HETATM   12  N   UNL     1       4.574  26.969  51.132  1.00  0.00    -0.067 N 
HETATM   13  H   UNL     1       3.577  26.889  50.898  1.00  0.00     0.280 HD
HETATM   14  C   UNL     1       4.689  27.946  52.278  1.00  0.00     0.235 C 
HETATM   15  C   UNL     1       4.289  27.333  53.606  1.00  0.00     0.036 C 
BRANCH  12  16
HETATM   16  C   UNL     1       5.249  27.582  49.900  1.00  0.00     0.274 C 
BRANCH  16  17
HETATM   17  C   UNL     1       4.301  28.214  48.911  1.00  0.00    -0.026 A 
HETATM   18  C   UNL     1       3.307  27.400  48.326  1.00  0.00     0.016 A 
HETATM   19  C   UNL     1       2.355  27.925  47.448  1.00  0.00    -0.061 A 
HETATM   20  C   UNL     1       1.292  27.056  46.840  1.00  0.00     0.048 C 
HETATM   21  C   UNL     1       2.416  29.280  47.126  1.00  0.00     0.007 A 
HETATM   22  C   UNL     1       3.408  30.095  47.676  1.00  0.00     0.008 A 
HETATM   23  C   UNL     1       4.353  29.582  48.578  1.00  0.00    -0.054 A 
HETATM   24  C   UNL     1       5.431  30.499  49.087  1.00  0.00     0.049 C 
ENDBRANCH  16  17
ENDBRANCH  12  16
ENDBRANCH   1   9
BRANCH   1  25
HETATM   25  C   UNL     1       7.120  24.647  54.241  1.00  0.00     0.072 A 
HETATM   26  N   UNL     1       6.906  23.760  55.253  1.00  0.00    -0.262 NA
HETATM   27  C   UNL     1       7.443  22.524  55.143  1.00  0.00     0.117 A 
HETATM   28  C   UNL     1       8.206  22.115  54.067  1.00  0.00     0.019 A 
HETATM   29  C   UNL     1       8.428  23.025  53.041  1.00  0.00     0.003 A 
HETATM   30  C   UNL     1       7.880  24.305  53.122  1.00  0.00     0.030 A 
ENDBRANCH   1  25
BRANCH   5  31
HETATM   31  C   UNL     1       8.009  28.419  56.871  1.00  0.00     0.168 C 
BRANCH  31  32
HETATM   32  C   UNL     1       7.444  29.842  56.934  1.00  0.00     0.140 C 
HETATM   33  O   UNL     1       8.155  30.618  57.924  1.00  0.00    -0.384 OA
HETATM   34  C   UNL     1       7.206  31.164  58.848  1.00  0.00     0.168 C 
HETATM   35  C   UNL     1       5.869  31.127  58.148  1.00  0.00     0.029 C 
HETATM   36  C   UNL     1       5.976  29.855  57.345  1.00  0.00     0.036 C 
ENDBRANCH  31  32
ENDBRANCH   5  31
TORSDOF 6
ENDMDL
MODEL 4
REMARK VINA RESULT:      -9.9      2.543      6.714
REMARK  6 active torsions:
REMARK  status: ('A' for Active; 'I' for Inactive)
REMARK    1  A    between atoms: C_4  and  C_5 
REMARK    2  A    between atoms: C_5  and  N_6 
REMARK    3  A    between atoms: C_10  and  C_11 
REMARK    4  A    between atoms: C_11  and  C_12 
REMARK    5  A    between atoms: N_21  and  C_22 
REMARK    6  A    between atoms: C_22  and  C_23 
ROOT
HETATM    1  C   UNL     1       6.476  25.991  54.476  1.00  0.00     0.164 C 
HETATM    2  N   UNL     1       7.194  26.984  53.682  1.00  0.00    -0.319 N 
HETATM    3  C   UNL     1       7.964  27.820  54.454  1.00  0.00     0.326 C 
HETATM    4  O   UNL     1       8.805  28.584  54.015  1.00  0.00    -0.247 OA
HETATM    5  N   UNL     1       7.614  27.645  55.752  1.00  0.00    -0.265 N 
HETATM    6  C   UNL     1       6.749  26.595  55.867  1.00  0.00     0.263 C 
HETATM    7  O   UNL     1       6.227  26.211  56.908  1.00  0.00    -0.270 OA
HETATM    8  H   UNL     1       7.490  26.794  52.729  1.00  0.00     0.166 HD
ENDROOT
BRANCH   1   9
HETATM    9  C   UNL     1       4.962  25.973  54.054  1.00  0.00     0.033 C 
HETATM   10  C   UNL     1       4.576  24.937  52.986  1.00  0.00     0.036 C 
HETATM   11  C   UNL     1       4.934  25.321  51.560  1.00  0.00     0.235 C 
HETATM   12  N   UNL     1       4.489  26.717  51.202  1.00  0.00    -0.067 N 
HETATM   13  H   UNL     1       3.481  26.651  51.022  1.00  0.00     0.280 HD
HETATM   14  C   UNL     1       4.691  27.790  52.244  1.00  0.00     0.235 C 
HETATM   15  C   UNL     1       4.337  27.316  53.641  1.00  0.00     0.036 C 
BRANCH  12  16
HETATM   16  C   UNL     1       5.123  27.189  49.888  1.00  0.00     0.274 C 
BRANCH  16  17
HETATM   17  C   UNL     1       4.149  27.766  48.891  1.00  0.00    -0.026 A 
HETATM   18  C   UNL     1       4.071  29.171  48.768  1.00  0.00     0.016 A 
HETATM   19  C   UNL     1       3.238  29.777  47.825  1.00  0.00    -0.061 A 
HETATM   20  C   UNL     1       3.171  31.271  47.690  1.00  0.00     0.048 C 
HETATM   21  C   UNL     1       2.447  28.968  47.010  1.00  0.00     0.007 A 
HETATM   22  C   UNL     1       2.492  27.578  47.134  1.00  0.00     0.008 A 
HETATM   23  C   UNL     1       3.344  26.958  48.062  1.00  0.00    -0.054 A 
HETATM   24  C   UNL     1       3.301  25.460  48.187  1.00  0.00     0.049 C 
ENDBRANCH  16  17
ENDBRANCH  12  16
ENDBRANCH   1   9
BRANCH   1  25
HETATM   25  C   UNL     1       7.150  24.636  54.252  1.00  0.00     0.072 A 
HETATM   26  N   UNL     1       6.953  23.728  55.249  1.00  0.00    -0.262 NA
HETATM   27  C   UNL     1       7.479  22.491  55.099  1.00  0.00     0.117 A 
HETATM   28  C   UNL     1       8.215  22.103  53.997  1.00  0.00     0.019 A 
HETATM   29  C   UNL     1       8.420  23.034  52.987  1.00  0.00     0.003 A 
HETATM   30  C   UNL     1       7.882  24.315  53.109  1.00  0.00     0.030 A 
ENDBRANCH   1  25
BRANCH   5  31
HETATM   31  C   UNL     1       8.176  28.381  56.871  1.00  0.00     0.168 C 
BRANCH  31  32
HETATM   32  C   UNL     1       7.634  29.812  56.961  1.00  0.00     0.140 C 
HETATM   33  O   UNL     1       8.371  30.563  57.952  1.00  0.00    -0.384 OA
HETATM   34  C   UNL     1       7.444  31.110  58.897  1.00  0.00     0.168 C 
HETATM   35  C   UNL     1       6.096  31.104  58.216  1.00  0.00     0.029 C 
HETATM   36  C   UNL     1       6.172  29.842  57.394  1.00  0.00     0.036 C 
ENDBRANCH  31  32
ENDBRANCH   5  31
TORSDOF 6
ENDMDL
MODEL 5
REMARK VINA RESULT:      -9.8      2.039      7.245
REMARK  6 active torsions:
REMARK  status: ('A' for Active; 'I' for Inactive)
REMARK    1  A    between atoms: C_4  and  C_5 
REMARK    2  A    between atoms: C_5  and  N_6 
REMARK    3  A    between atoms: C_10  and  C_11 
REMARK    4  A    between atoms: C_11  and  C_12 
REMARK    5  A    between atoms: N_21  and  C_22 
REMARK    6  A    between atoms: C_22  and  C_23 
ROOT
HETATM    1  C   UNL     1       6.611  24.731  55.006  1.00  0.00     0.164 C 
HETATM    2  N   UNL     1       5.326  24.464  54.368  1.00  0.00    -0.319 N 
HETATM    3  C   UNL     1       5.187  25.121  53.168  1.00  0.00     0.326 C 
HETATM    4  O   UNL     1       4.305  24.898  52.359  1.00  0.00    -0.247 OA
HETATM    5  N   UNL     1       6.180  26.039  53.068  1.00  0.00    -0.265 N 
HETATM    6  C   UNL     1       7.065  25.888  54.096  1.00  0.00     0.263 C 
HETATM    7  O   UNL     1       8.049  26.590  54.299  1.00  0.00    -0.270 OA
HETATM    8  H   UNL     1       4.837  23.583  54.498  1.00  0.00     0.166 HD
ENDROOT
BRANCH   1   9
HETATM    9  C   UNL     1       6.380  25.131  56.510  1.00  0.00     0.033 C 
HETATM   10  C   UNL     1       5.335  26.231  56.757  1.00  0.00     0.036 C 
HETATM   11  C   UNL     1       5.816  27.647  56.488  1.00  0.00     0.235 C 
HETATM   12  N   UNL     1       7.142  27.948  57.142  1.00  0.00    -0.067 N 
HETATM   13  H   UNL     1       6.932  28.115  58.133  1.00  0.00     0.280 HD
HETATM   14  C   UNL     1       8.197  26.870  57.083  1.00  0.00     0.235 C 
HETATM   15  C   UNL     1       7.628  25.486  57.335  1.00  0.00     0.036 C 
BRANCH  12  16
HETATM   16  C   UNL     1       7.748  29.252  56.612  1.00  0.00     0.274 C 
BRANCH  16  17
HETATM   17  C   UNL     1       8.189  30.222  57.680  1.00  0.00    -0.026 A 
HETATM   18  C   UNL     1       7.195  30.858  58.456  1.00  0.00     0.016 A 
HETATM   19  C   UNL     1       7.525  31.722  59.503  1.00  0.00    -0.061 A 
HETATM   20  C   UNL     1       6.464  32.383  60.333  1.00  0.00     0.048 C 
HETATM   21  C   UNL     1       8.872  31.977  59.761  1.00  0.00     0.007 A 
HETATM   22  C   UNL     1       9.868  31.377  58.988  1.00  0.00     0.008 A 
HETATM   23  C   UNL     1       9.546  30.489  57.950  1.00  0.00    -0.054 A 
HETATM   24  C   UNL     1      10.663  29.923  57.118  1.00  0.00     0.049 C 
ENDBRANCH  16  17
ENDBRANCH  12  16
ENDBRANCH   1   9
BRANCH   1  25
HETATM   25  C   UNL     1       7.471  23.473  54.874  1.00  0.00     0.072 A 
HETATM   26  N   UNL     1       7.347  22.584  55.899  1.00  0.00    -0.262 NA
HETATM   27  C   UNL     1       8.041  21.425  55.827  1.00  0.00     0.117 A 
HETATM   28  C   UNL     1       8.878  21.100  54.779  1.00  0.00     0.019 A 
HETATM   29  C   UNL     1       9.007  22.012  53.740  1.00  0.00     0.003 A 
HETATM   30  C   UNL     1       8.297  23.211  53.780  1.00  0.00     0.030 A 
ENDBRANCH   1  25
BRANCH   5  31
HETATM   31  C   UNL     1       6.348  26.962  51.959  1.00  0.00     0.168 C 
BRANCH  31  32
HETATM   32  C   UNL     1       5.493  28.225  52.113  1.00  0.00     0.140 C 
HETATM   33  O   UNL     1       4.937  28.290  53.445  1.00  0.00    -0.384 OA
HETATM   34  C   UNL     1       3.514  28.425  53.343  1.00  0.00     0.168 C 
HETATM   35  C   UNL     1       3.240  28.932  51.947  1.00  0.00     0.029 C 
HETATM   36  C   UNL     1       4.312  28.235  51.149  1.00  0.00     0.036 C 
ENDBRANCH  31  32
ENDBRANCH   5  31
TORSDOF 6
ENDMDL
MODEL 6
REMARK VINA RESULT:      -9.7      2.465      4.011
REMARK  6 active torsions:
REMARK  status: ('A' for Active; 'I' for Inactive)
REMARK    1  A    between atoms: C_4  and  C_5 
REMARK    2  A    between atoms: C_5  and  N_6 
REMARK    3  A    between atoms: C_10  and  C_11 
REMARK    4  A    between atoms: C_11  and  C_12 
REMARK    5  A    between atoms: N_21  and  C_22 
REMARK    6  A    between atoms: C_22  and  C_23 
ROOT
HETATM    1  C   UNL     1       5.926  28.293  57.017  1.00  0.00     0.164 C 
HETATM    2  N   UNL     1       4.797  29.079  57.504  1.00  0.00    -0.319 N 
HETATM    3  C   UNL     1       5.180  30.306  57.992  1.00  0.00     0.326 C 
HETATM    4  O   UNL     1       4.412  31.212  58.258  1.00  0.00    -0.247 OA
HETATM    5  N   UNL     1       6.530  30.309  58.126  1.00  0.00    -0.265 N 
HETATM    6  C   UNL     1       7.057  29.174  57.582  1.00  0.00     0.263 C 
HETATM    7  O   UNL     1       8.245  28.871  57.578  1.00  0.00    -0.270 OA
HETATM    8  H   UNL     1       3.868  28.985  57.104  1.00  0.00     0.166 HD
ENDROOT
BRANCH   1   9
HETATM    9  C   UNL     1       5.860  26.843  57.622  1.00  0.00     0.033 C 
HETATM   10  C   UNL     1       7.188  26.277  58.151  1.00  0.00     0.036 C 
HETATM   11  C   UNL     1       8.134  25.752  57.083  1.00  0.00     0.235 C 
HETATM   12  N   UNL     1       7.455  24.825  56.107  1.00  0.00    -0.067 N 
HETATM   13  H   UNL     1       7.366  23.925  56.592  1.00  0.00     0.280 HD
HETATM   14  C   UNL     1       6.077  25.217  55.632  1.00  0.00     0.235 C 
HETATM   15  C   UNL     1       5.208  25.755  56.753  1.00  0.00     0.036 C 
BRANCH  12  16
HETATM   16  C   UNL     1       8.334  24.559  54.880  1.00  0.00     0.274 C 
BRANCH  16  17
HETATM   17  C   UNL     1       8.262  23.149  54.347  1.00  0.00    -0.026 A 
HETATM   18  C   UNL     1       8.557  22.086  55.228  1.00  0.00     0.016 A 
HETATM   19  C   UNL     1       8.454  20.752  54.825  1.00  0.00    -0.061 A 
HETATM   20  C   UNL     1       8.755  19.627  55.772  1.00  0.00     0.048 C 
HETATM   21  C   UNL     1       8.077  20.476  53.512  1.00  0.00     0.007 A 
HETATM   22  C   UNL     1       7.806  21.515  52.619  1.00  0.00     0.008 A 
HETATM   23  C   UNL     1       7.883  22.858  53.021  1.00  0.00    -0.054 A 
HETATM   24  C   UNL     1       7.637  23.929  51.995  1.00  0.00     0.049 C 
ENDBRANCH  16  17
ENDBRANCH  12  16
ENDBRANCH   1   9
BRANCH   1  25
HETATM   25  C   UNL     1       5.864  28.279  55.489  1.00  0.00     0.072 A 
HETATM   26  N   UNL     1       7.064  28.096  54.869  1.00  0.00    -0.262 NA
HETATM   27  C   UNL     1       7.080  28.026  53.518  1.00  0.00     0.117 A 
HETATM   28  C   UNL     1       5.950  28.142  52.733  1.00  0.00     0.019 A 
HETATM   29  C   UNL     1       4.731  28.336  53.369  1.00  0.00     0.003 A 
HETATM   30  C   UNL     1       4.681  28.403  54.761  1.00  0.00     0.030 A 
ENDBRANCH   1  25
BRANCH   5  31
HETATM   31  C   UNL     1       7.309  31.415  58.654  1.00  0.00     0.168 C 
BRANCH  31  32
HETATM   32  C   UNL     1       7.951  31.086  60.006  1.00  0.00     0.140 C 
HETATM   33  O   UNL     1       7.130  31.588  61.083  1.00  0.00    -0.384 OA
HETATM   34  C   UNL     1       7.933  32.430  61.920  1.00  0.00     0.168 C 
HETATM   35  C   UNL     1       9.369  32.057  61.636  1.00  0.00     0.029 C 
HETATM   36  C   UNL     1       9.319  31.741  60.162  1.00  0.00     0.036 C 
ENDBRANCH  31  32
ENDBRANCH   5  31
TORSDOF 6
ENDMDL
MODEL 7
REMARK VINA RESULT:      -9.6      1.808      5.075
REMARK  6 active torsions:
REMARK  status: ('A' for Active; 'I' for Inactive)
REMARK    1  A    between atoms: C_4  and  C_5 
REMARK    2  A    between atoms: C_5  and  N_6 
REMARK    3  A    between atoms: C_10  and  C_11 
REMARK    4  A    between atoms: C_11  and  C_12 
REMARK    5  A    between atoms: N_21  and  C_22 
REMARK    6  A    between atoms: C_22  and  C_23 
ROOT
HETATM    1  C   UNL     1       6.161  28.156  56.559  1.00  0.00     0.164 C 
HETATM    2  N   UNL     1       7.203  27.990  55.550  1.00  0.00    -0.319 N 
HETATM    3  C   UNL     1       6.805  28.418  54.306  1.00  0.00     0.326 C 
HETATM    4  O   UNL     1       7.554  28.575  53.359  1.00  0.00    -0.247 OA
HETATM    5  N   UNL     1       5.463  28.616  54.332  1.00  0.00    -0.265 N 
HETATM    6  C   UNL     1       4.995  28.487  55.607  1.00  0.00     0.263 C 
HETATM    7  O   UNL     1       3.821  28.575  55.948  1.00  0.00    -0.270 OA
HETATM    8  H   UNL     1       8.189  28.038  55.787  1.00  0.00     0.166 HD
ENDROOT
BRANCH   1   9
HETATM    9  C   UNL     1       5.989  26.817  57.365  1.00  0.00     0.033 C 
HETATM   10  C   UNL     1       7.217  26.353  58.165  1.00  0.00     0.036 C 
HETATM   11  C   UNL     1       8.303  25.680  57.342  1.00  0.00     0.235 C 
HETATM   12  N   UNL     1       7.764  24.605  56.432  1.00  0.00    -0.067 N 
HETATM   13  H   UNL     1       7.594  23.790  57.032  1.00  0.00     0.280 HD
HETATM   14  C   UNL     1       6.475  24.903  55.705  1.00  0.00     0.235 C 
HETATM   15  C   UNL     1       5.458  25.599  56.589  1.00  0.00     0.036 C 
BRANCH  12  16
HETATM   16  C   UNL     1       8.811  24.161  55.404  1.00  0.00     0.274 C 
BRANCH  16  17
HETATM   17  C   UNL     1       8.523  22.835  54.744  1.00  0.00    -0.026 A 
HETATM   18  C   UNL     1       8.620  21.664  55.527  1.00  0.00     0.016 A 
HETATM   19  C   UNL     1       8.311  20.406  55.004  1.00  0.00    -0.061 A 
HETATM   20  C   UNL     1       8.402  19.168  55.846  1.00  0.00     0.048 C 
HETATM   21  C   UNL     1       7.925  20.313  53.667  1.00  0.00     0.007 A 
HETATM   22  C   UNL     1       7.848  21.457  52.870  1.00  0.00     0.008 A 
HETATM   23  C   UNL     1       8.134  22.728  53.394  1.00  0.00    -0.054 A 
HETATM   24  C   UNL     1       8.090  23.912  52.467  1.00  0.00     0.049 C 
ENDBRANCH  16  17
ENDBRANCH  12  16
ENDBRANCH   1   9
BRANCH   1  25
HETATM   25  C   UNL     1       6.565  29.321  57.463  1.00  0.00     0.072 A 
HETATM   26  N   UNL     1       5.637  30.314  57.566  1.00  0.00    -0.262 NA
HETATM   27  C   UNL     1       5.905  31.355  58.387  1.00  0.00     0.117 A 
HETATM   28  C   UNL     1       7.073  31.474  59.115  1.00  0.00     0.019 A 
HETATM   29  C   UNL     1       8.019  30.463  59.000  1.00  0.00     0.003 A 
HETATM   30  C   UNL     1       7.767  29.372  58.170  1.00  0.00     0.030 A 
ENDBRANCH   1  25
BRANCH   5  31
HETATM   31  C   UNL     1       4.663  29.030  53.193  1.00  0.00     0.168 C 
BRANCH  31  32
HETATM   32  C   UNL     1       4.220  27.846  52.326  1.00  0.00     0.140 C 
HETATM   33  O   UNL     1       4.342  26.613  53.068  1.00  0.00    -0.384 OA
HETATM   34  C   UNL     1       5.153  25.703  52.315  1.00  0.00     0.168 C 
HETATM   35  C   UNL     1       5.128  26.198  50.889  1.00  0.00     0.029 C 
HETATM   36  C   UNL     1       5.089  27.694  51.083  1.00  0.00     0.036 C 
ENDBRANCH  31  32
ENDBRANCH   5  31
TORSDOF 6
ENDMDL
MODEL 8
REMARK VINA RESULT:      -9.6      2.479      6.958
REMARK  6 active torsions:
REMARK  status: ('A' for Active; 'I' for Inactive)
REMARK    1  A    between atoms: C_4  and  C_5 
REMARK    2  A    between atoms: C_5  and  N_6 
REMARK    3  A    between atoms: C_10  and  C_11 
REMARK    4  A    between atoms: C_11  and  C_12 
REMARK    5  A    between atoms: N_21  and  C_22 
REMARK    6  A    between atoms: C_22  and  C_23 
ROOT
HETATM    1  C   UNL     1       6.717  26.836  55.737  1.00  0.00     0.164 C 
HETATM    2  N   UNL     1       6.558  25.827  56.780  1.00  0.00    -0.319 N 
HETATM    3  C   UNL     1       7.316  24.705  56.547  1.00  0.00     0.326 C 
HETATM    4  O   UNL     1       7.513  23.825  57.365  1.00  0.00    -0.247 OA
HETATM    5  N   UNL     1       7.779  24.759  55.274  1.00  0.00    -0.265 N 
HETATM    6  C   UNL     1       7.481  25.969  54.718  1.00  0.00     0.263 C 
HETATM    7  O   UNL     1       7.737  26.308  53.568  1.00  0.00    -0.270 OA
HETATM    8  H   UNL     1       6.347  26.081  57.741  1.00  0.00     0.166 HD
ENDROOT
BRANCH   1   9
HETATM    9  C   UNL     1       5.303  27.324  55.253  1.00  0.00     0.033 C 
HETATM   10  C   UNL     1       4.500  26.320  54.409  1.00  0.00     0.036 C 
HETATM   11  C   UNL     1       4.927  26.219  52.954  1.00  0.00     0.235 C 
HETATM   12  N   UNL     1       5.055  27.566  52.288  1.00  0.00    -0.067 N 
HETATM   13  H   UNL     1       4.096  27.865  52.075  1.00  0.00     0.280 HD
HETATM   14  C   UNL     1       5.701  28.670  53.089  1.00  0.00     0.235 C 
HETATM   15  C   UNL     1       5.242  28.683  54.535  1.00  0.00     0.036 C 
BRANCH  12  16
HETATM   16  C   UNL     1       5.773  27.461  50.938  1.00  0.00     0.274 C 
BRANCH  16  17
HETATM   17  C   UNL     1       4.861  27.465  49.736  1.00  0.00    -0.026 A 
HETATM   18  C   UNL     1       4.366  26.228  49.269  1.00  0.00     0.016 A 
HETATM   19  C   UNL     1       3.469  26.155  48.200  1.00  0.00    -0.061 A 
HETATM   20  C   UNL     1       2.936  24.837  47.718  1.00  0.00     0.048 C 
HETATM   21  C   UNL     1       3.082  27.337  47.569  1.00  0.00     0.007 A 
HETATM   22  C   UNL     1       3.581  28.567  48.001  1.00  0.00     0.008 A 
HETATM   23  C   UNL     1       4.463  28.652  49.089  1.00  0.00    -0.054 A 
HETATM   24  C   UNL     1       5.010  30.002  49.466  1.00  0.00     0.049 C 
ENDBRANCH  16  17
ENDBRANCH  12  16
ENDBRANCH   1   9
BRANCH   1  25
HETATM   25  C   UNL     1       7.551  27.981  56.315  1.00  0.00     0.072 A 
HETATM   26  N   UNL     1       7.240  28.325  57.597  1.00  0.00    -0.262 NA
HETATM   27  C   UNL     1       7.968  29.298  58.191  1.00  0.00     0.117 A 
HETATM   28  C   UNL     1       9.000  29.970  57.566  1.00  0.00     0.019 A 
HETATM   29  C   UNL     1       9.308  29.621  56.258  1.00  0.00     0.003 A 
HETATM   30  C   UNL     1       8.582  28.615  55.621  1.00  0.00     0.030 A 
ENDBRANCH   1  25
BRANCH   5  31
HETATM   31  C   UNL     1       8.586  23.732  54.639  1.00  0.00     0.168 C 
BRANCH  31  32
HETATM   32  C   UNL     1       7.756  22.517  54.209  1.00  0.00     0.140 C 
HETATM   33  O   UNL     1       7.960  21.423  55.131  1.00  0.00    -0.384 OA
HETATM   34  C   UNL     1       8.379  20.271  54.390  1.00  0.00     0.168 C 
HETATM   35  C   UNL     1       7.964  20.517  52.959  1.00  0.00     0.029 C 
HETATM   36  C   UNL     1       8.165  22.007  52.832  1.00  0.00     0.036 C 
ENDBRANCH  31  32
ENDBRANCH   5  31
TORSDOF 6
ENDMDL
MODEL 9
REMARK VINA RESULT:      -9.5      2.917      4.241
REMARK  6 active torsions:
REMARK  status: ('A' for Active; 'I' for Inactive)
REMARK    1  A    between atoms: C_4  and  C_5 
REMARK    2  A    between atoms: C_5  and  N_6 
REMARK    3  A    between atoms: C_10  and  C_11 
REMARK    4  A    between atoms: C_11  and  C_12 
REMARK    5  A    between atoms: N_21  and  C_22 
REMARK    6  A    between atoms: C_22  and  C_23 
ROOT
HETATM    1  C   UNL     1       5.107  28.709  56.210  1.00  0.00     0.164 C 
HETATM    2  N   UNL     1       3.722  29.124  56.419  1.00  0.00    -0.319 N 
HETATM    3  C   UNL     1       3.595  30.486  56.552  1.00  0.00     0.326 C 
HETATM    4  O   UNL     1       2.535  31.085  56.525  1.00  0.00    -0.247 OA
HETATM    5  N   UNL     1       4.832  31.016  56.722  1.00  0.00    -0.265 N 
HETATM    6  C   UNL     1       5.783  30.054  56.538  1.00  0.00     0.263 C 
HETATM    7  O   UNL     1       6.992  30.215  56.658  1.00  0.00    -0.270 OA
HETATM    8  H   UNL     1       2.943  28.599  56.032  1.00  0.00     0.166 HD
ENDROOT
BRANCH   1   9
HETATM    9  C   UNL     1       5.461  27.539  57.199  1.00  0.00     0.033 C 
HETATM   10  C   UNL     1       6.923  27.481  57.672  1.00  0.00     0.036 C 
HETATM   11  C   UNL     1       7.899  26.887  56.669  1.00  0.00     0.235 C 
HETATM   12  N   UNL     1       7.422  25.576  56.096  1.00  0.00    -0.067 N 
HETATM   13  H   UNL     1       7.604  24.871  56.821  1.00  0.00     0.280 HD
HETATM   14  C   UNL     1       5.961  25.477  55.731  1.00  0.00     0.235 C 
HETATM   15  C   UNL     1       5.059  26.118  56.769  1.00  0.00     0.036 C 
BRANCH  12  16
HETATM   16  C   UNL     1       8.256  25.156  54.881  1.00  0.00     0.274 C 
BRANCH  16  17
HETATM   17  C   UNL     1       8.113  23.707  54.488  1.00  0.00    -0.026 A 
HETATM   18  C   UNL     1       8.228  22.727  55.498  1.00  0.00     0.016 A 
HETATM   19  C   UNL     1       8.047  21.369  55.223  1.00  0.00    -0.061 A 
HETATM   20  C   UNL     1       8.156  20.334  56.304  1.00  0.00     0.048 C 
HETATM   21  C   UNL     1       7.776  20.981  53.911  1.00  0.00     0.007 A 
HETATM   22  C   UNL     1       7.684  21.934  52.895  1.00  0.00     0.008 A 
HETATM   23  C   UNL     1       7.839  23.302  53.166  1.00  0.00    -0.054 A 
HETATM   24  C   UNL     1       7.787  24.271  52.017  1.00  0.00     0.049 C 
ENDBRANCH  16  17
ENDBRANCH  12  16
ENDBRANCH   1   9
BRANCH   1  25
HETATM   25  C   UNL     1       5.255  28.289  54.747  1.00  0.00     0.072 A 
HETATM   26  N   UNL     1       4.092  27.931  54.134  1.00  0.00    -0.262 NA
HETATM   27  C   UNL     1       4.139  27.593  52.825  1.00  0.00     0.117 A 
HETATM   28  C   UNL     1       5.302  27.577  52.080  1.00  0.00     0.019 A 
HETATM   29  C   UNL     1       6.486  27.935  52.713  1.00  0.00     0.003 A 
HETATM   30  C   UNL     1       6.468  28.298  54.059  1.00  0.00     0.030 A 
ENDBRANCH   1  25
BRANCH   5  31
HETATM   31  C   UNL     1       5.109  32.425  56.940  1.00  0.00     0.168 C 
BRANCH  31  32
HETATM   32  C   UNL     1       5.144  32.792  58.428  1.00  0.00     0.140 C 
HETATM   33  O   UNL     1       4.655  31.690  59.224  1.00  0.00    -0.384 OA
HETATM   34  C   UNL     1       3.586  32.162  60.054  1.00  0.00     0.168 C 
HETATM   35  C   UNL     1       3.739  33.662  60.123  1.00  0.00     0.029 C 
HETATM   36  C   UNL     1       4.248  33.985  58.741  1.00  0.00     0.036 C 
ENDBRANCH  31  32
ENDBRANCH   5  31
TORSDOF 6
ENDMDL
MODEL 10
REMARK VINA RESULT:      -9.5      1.827      6.064
REMARK  6 active torsions:
REMARK  status: ('A' for Active; 'I' for Inactive)
REMARK    1  A    between atoms: C_4  and  C_5 
REMARK    2  A    between atoms: C_5  and  N_6 
REMARK    3  A    between atoms: C_10  and  C_11 
REMARK    4  A    between atoms: C_11  and  C_12 
REMARK    5  A    between atoms: N_21  and  C_22 
REMARK    6  A    between atoms: C_22  and  C_23 
ROOT
HETATM    1  C   UNL     1       5.213  28.012  53.625  1.00  0.00     0.164 C 
HETATM    2  N   UNL     1       6.666  28.117  53.720  1.00  0.00    -0.319 N 
HETATM    3  C   UNL     1       7.303  26.955  53.355  1.00  0.00     0.326 C 
HETATM    4  O   UNL     1       8.500  26.860  53.152  1.00  0.00    -0.247 OA
HETATM    5  N   UNL     1       6.377  25.968  53.277  1.00  0.00    -0.265 N 
HETATM    6  C   UNL     1       5.123  26.488  53.419  1.00  0.00     0.263 C 
HETATM    7  O   UNL     1       4.080  25.844  53.429  1.00  0.00    -0.270 OA
HETATM    8  H   UNL     1       7.148  29.000  53.578  1.00  0.00     0.166 HD
ENDROOT
BRANCH   1   9
HETATM    9  C   UNL     1       4.558  28.534  54.957  1.00  0.00     0.033 C 
HETATM   10  C   UNL     1       5.079  29.884  55.475  1.00  0.00     0.036 C 
HETATM   11  C   UNL     1       6.417  29.824  56.195  1.00  0.00     0.235 C 
HETATM   12  N   UNL     1       6.467  28.741  57.243  1.00  0.00    -0.067 N 
HETATM   13  H   UNL     1       5.952  29.110  58.051  1.00  0.00     0.280 HD
HETATM   14  C   UNL     1       5.849  27.411  56.887  1.00  0.00     0.235 C 
HETATM   15  C   UNL     1       4.533  27.561  56.148  1.00  0.00     0.036 C 
BRANCH  12  16
HETATM   16  C   UNL     1       7.899  28.497  57.731  1.00  0.00     0.274 C 
BRANCH  16  17
HETATM   17  C   UNL     1       8.616  29.730  58.225  1.00  0.00    -0.026 A 
HETATM   18  C   UNL     1       8.122  30.371  59.382  1.00  0.00     0.016 A 
HETATM   19  C   UNL     1       8.765  31.481  59.934  1.00  0.00    -0.061 A 
HETATM   20  C   UNL     1       8.243  32.149  61.173  1.00  0.00     0.048 C 
HETATM   21  C   UNL     1       9.906  31.977  59.303  1.00  0.00     0.007 A 
HETATM   22  C   UNL     1      10.394  31.371  58.144  1.00  0.00     0.008 A 
HETATM   23  C   UNL     1       9.768  30.241  57.596  1.00  0.00    -0.054 A 
HETATM   24  C   UNL     1      10.310  29.673  56.313  1.00  0.00     0.049 C 
ENDBRANCH  16  17
ENDBRANCH  12  16
ENDBRANCH   1   9
BRANCH   1  25
HETATM   25  C   UNL     1       4.762  28.823  52.409  1.00  0.00     0.072 A 
HETATM   26  N   UNL     1       5.773  29.270  51.612  1.00  0.00    -0.262 NA
HETATM   27  C   UNL     1       5.447  29.954  50.492  1.00  0.00     0.117 A 
HETATM   28  C   UNL     1       4.148  30.236  50.118  1.00  0.00     0.019 A 
HETATM   29  C   UNL     1       3.121  29.785  50.938  1.00  0.00     0.003 A 
HETATM   30  C   UNL     1       3.425  29.068  52.095  1.00  0.00     0.030 A 
ENDBRANCH   1  25
BRANCH   5  31
HETATM   31  C   UNL     1       6.667  24.580  52.960  1.00  0.00     0.168 C 
BRANCH  31  32
HETATM   32  C   UNL     1       6.803  23.709  54.213  1.00  0.00     0.140 C 
HETATM   33  O   UNL     1       7.201  24.518  55.342  1.00  0.00    -0.384 OA
HETATM   34  C   UNL     1       8.387  23.956  55.915  1.00  0.00     0.168 C 
HETATM   35  C   UNL     1       8.446  22.524  55.440  1.00  0.00     0.029 C 
HETATM   36  C   UNL     1       7.875  22.637  54.048  1.00  0.00     0.036 C 
ENDBRANCH  31  32
ENDBRANCH   5  31
TORSDOF 6
ENDMDL
