MODEL 1
REMARK VINA RESULT:     -10.0      0.000      0.000
REMARK  6 active torsions:
REMARK  status: ('A' for Active; 'I' for Inactive)
REMARK    1  A    between atoms: N_3  and  C_4 
REMARK    2  A    between atoms: C_12  and  C_13 
REMARK       I    between atoms: C_13  and  N_14 
REMARK    3  A    between atoms: N_14  and  N_15 
REMARK       I    between atoms: N_15  and  C_16 
REMARK    4  A    between atoms: C_16  and  C_17 
REMARK    5  A    between atoms: C_17  and  C_18 
REMARK    6  A    between atoms: C_21  and  O_22 
ROOT
HETATM    1  C   UNL     1       7.894  27.508  56.975  1.00  0.00     0.272 C 
HETATM    2  N   UNL     1       8.459  28.571  56.302  1.00  0.00    -0.263 N 
HETATM    3  O   UNL     1       7.647  27.565  58.180  1.00  0.00    -0.266 OA
HETATM    4  H   UNL     1       8.517  28.616  55.288  1.00  0.00     0.190 HD
ENDROOT
BRANCH   1   5
HETATM    5  C   UNL     1       7.554  26.344  56.158  1.00  0.00     0.058 A 
HETATM    6  C   UNL     1       8.090  25.056  56.192  1.00  0.00     0.029 A 
HETATM    7  N   UNL     1       7.471  24.293  55.193  1.00  0.00    -0.319 N 
HETATM    8  C   UNL     1       9.047  24.469  57.184  1.00  0.00     0.070 C 
HETATM    9  C   UNL     1       6.488  25.077  54.598  1.00  0.00     0.014 A 
HETATM   10  C   UNL     1       5.637  24.663  53.445  1.00  0.00     0.068 C 
HETATM   11  C   UNL     1       6.516  26.319  55.194  1.00  0.00     0.044 A 
BRANCH   7  12
HETATM   12  C   UNL     1       7.797  22.948  54.840  1.00  0.00     0.039 A 
HETATM   13  C   UNL     1       8.415  22.675  53.613  1.00  0.00     0.030 A 
HETATM   14  C   UNL     1       8.719  21.358  53.259  1.00  0.00     0.002 A 
HETATM   15  C   UNL     1       8.410  20.311  54.127  1.00  0.00     0.000 A 
HETATM   16  C   UNL     1       7.799  20.578  55.350  1.00  0.00     0.002 A 
HETATM   17  C   UNL     1       7.491  21.893  55.709  1.00  0.00     0.030 A 
ENDBRANCH   7  12
ENDBRANCH   1   5
BRANCH   2  18
HETATM   18  N   UNL     1       8.711  29.751  57.009  1.00  0.00    -0.267 N 
HETATM   19  C   UNL     1      10.014  30.059  57.340  1.00  0.00     0.240 C 
HETATM   20  O   UNL     1      10.971  29.397  56.940  1.00  0.00    -0.272 OA
HETATM   21  H   UNL     1       7.896  30.248  57.366  1.00  0.00     0.190 HD
BRANCH  19  22
HETATM   22  C   UNL     1      10.156  31.265  58.251  1.00  0.00     0.143 C 
BRANCH  22  23
HETATM   23  C   UNL     1       9.174  31.284  59.398  1.00  0.00    -0.049 A 
HETATM   24  C   UNL     1       9.495  30.686  60.626  1.00  0.00     0.010 A 
HETATM   25  C   UNL     1       8.602  30.744  61.700  1.00  0.00     0.037 A 
HETATM   26  C   UNL     1       7.385  31.398  61.545  1.00  0.00     0.065 A 
HETATM   27  C   UNL     1       7.045  31.987  60.334  1.00  0.00     0.037 A 
HETATM   28  C   UNL     1       7.937  31.931  59.262  1.00  0.00     0.010 A 
BRANCH  26  29
HETATM   29  O   UNL     1       6.490  31.488  62.570  1.00  0.00    -0.361 OA
HETATM   30  H   UNL     1       6.584  32.360  62.987  1.00  0.00     0.217 HD
ENDBRANCH  26  29
ENDBRANCH  22  23
ENDBRANCH  19  22
ENDBRANCH   2  18
TORSDOF 6
ENDMDL
MODEL 2
REMARK VINA RESULT:      -9.6      1.397      2.286
REMARK  6 active torsions:
REMARK  status: ('A' for Active; 'I' for Inactive)
REMARK    1  A    between atoms: N_3  and  C_4 
REMARK    2  A    between atoms: C_12  and  C_13 
REMARK       I    between atoms: C_13  and  N_14 
REMARK    3  A    between atoms: N_14  and  N_15 
REMARK       I    between atoms: N_15  and  C_16 
REMARK    4  A    between atoms: C_16  and  C_17 
REMARK    5  A    between atoms: C_17  and  C_18 
REMARK    6  A    between atoms: C_21  and  O_22 
ROOT
HETATM    1  C   UNL     1       8.081  27.684  57.044  1.00  0.00     0.272 C 
HETATM    2  N   UNL     1       7.132  28.269  57.854  1.00  0.00    -0.263 N 
HETATM    3  O   UNL     1       9.247  28.078  57.027  1.00  0.00    -0.266 OA
HETATM    4  H   UNL     1       6.214  27.862  58.014  1.00  0.00     0.190 HD
ENDROOT
BRANCH   1   5
HETATM    5  C   UNL     1       7.629  26.536  56.258  1.00  0.00     0.058 A 
HETATM    6  C   UNL     1       8.125  25.232  56.236  1.00  0.00     0.029 A 
HETATM    7  N   UNL     1       7.391  24.495  55.298  1.00  0.00    -0.319 N 
HETATM    8  C   UNL     1       9.152  24.609  57.131  1.00  0.00     0.070 C 
HETATM    9  C   UNL     1       6.381  25.314  54.801  1.00  0.00     0.014 A 
HETATM   10  C   UNL     1       5.413  24.934  53.732  1.00  0.00     0.068 C 
HETATM   11  C   UNL     1       6.504  26.550  55.397  1.00  0.00     0.044 A 
BRANCH   7  12
HETATM   12  C   UNL     1       7.639  23.143  54.910  1.00  0.00     0.039 A 
HETATM   13  C   UNL     1       7.438  22.103  55.826  1.00  0.00     0.030 A 
HETATM   14  C   UNL     1       7.697  20.781  55.454  1.00  0.00     0.002 A 
HETATM   15  C   UNL     1       8.154  20.493  54.169  1.00  0.00     0.000 A 
HETATM   16  C   UNL     1       8.351  21.525  53.252  1.00  0.00     0.002 A 
HETATM   17  C   UNL     1       8.095  22.848  53.619  1.00  0.00     0.030 A 
ENDBRANCH   7  12
ENDBRANCH   1   5
BRANCH   2  18
HETATM   18  N   UNL     1       7.528  29.305  58.707  1.00  0.00    -0.267 N 
HETATM   19  C   UNL     1       7.181  30.599  58.380  1.00  0.00     0.240 C 
HETATM   20  O   UNL     1       6.441  30.866  57.433  1.00  0.00    -0.272 OA
HETATM   21  H   UNL     1       8.178  29.056  59.450  1.00  0.00     0.190 HD
BRANCH  19  22
HETATM   22  C   UNL     1       7.806  31.655  59.275  1.00  0.00     0.143 C 
BRANCH  22  23
HETATM   23  C   UNL     1       7.044  31.901  60.554  1.00  0.00    -0.049 A 
HETATM   24  C   UNL     1       5.720  32.366  60.522  1.00  0.00     0.010 A 
HETATM   25  C   UNL     1       5.003  32.550  61.707  1.00  0.00     0.037 A 
HETATM   26  C   UNL     1       5.610  32.273  62.927  1.00  0.00     0.065 A 
HETATM   27  C   UNL     1       6.923  31.822  62.980  1.00  0.00     0.037 A 
HETATM   28  C   UNL     1       7.639  31.636  61.797  1.00  0.00     0.010 A 
BRANCH  26  29
HETATM   29  O   UNL     1       4.942  32.427  64.106  1.00  0.00    -0.361 OA
HETATM   30  H   UNL     1       5.560  32.262  64.836  1.00  0.00     0.217 HD
ENDBRANCH  26  29
ENDBRANCH  22  23
ENDBRANCH  19  22
ENDBRANCH   2  18
TORSDOF 6
ENDMDL
MODEL 3
REMARK VINA RESULT:      -9.5      2.534      3.755
REMARK  6 active torsions:
REMARK  status: ('A' for Active; 'I' for Inactive)
REMARK    1  A    between atoms: N_3  and  C_4 
REMARK    2  A    between atoms: C_12  and  C_13 
REMARK       I    between atoms: C_13  and  N_14 
REMARK    3  A    between atoms: N_14  and  N_15 
REMARK       I    between atoms: N_15  and  C_16 
REMARK    4  A    between atoms: C_16  and  C_17 
REMARK    5  A    between atoms: C_17  and  C_18 
REMARK    6  A    between atoms: C_21  and  O_22 
ROOT
HETATM    1  C   UNL     1       7.487  29.426  58.061  1.00  0.00     0.272 C 
HETATM    2  N   UNL     1       8.693  29.747  58.647  1.00  0.00    -0.263 N 
HETATM    3  O   UNL     1       6.508  30.168  58.153  1.00  0.00    -0.266 OA
HETATM    4  H   UNL     1       9.555  29.245  58.449  1.00  0.00     0.190 HD
ENDROOT
BRANCH   1   5
HETATM    5  C   UNL     1       7.465  28.190  57.281  1.00  0.00     0.058 A 
HETATM    6  C   UNL     1       7.022  27.978  55.975  1.00  0.00     0.029 A 
HETATM    7  N   UNL     1       7.166  26.618  55.674  1.00  0.00    -0.319 N 
HETATM    8  C   UNL     1       6.597  28.993  54.958  1.00  0.00     0.070 C 
HETATM    9  C   UNL     1       7.782  25.999  56.757  1.00  0.00     0.014 A 
HETATM   10  C   UNL     1       8.062  24.538  56.869  1.00  0.00     0.068 C 
HETATM   11  C   UNL     1       7.989  26.952  57.731  1.00  0.00     0.044 A 
BRANCH   7  12
HETATM   12  C   UNL     1       6.747  25.975  54.469  1.00  0.00     0.039 A 
HETATM   13  C   UNL     1       5.431  25.515  54.341  1.00  0.00     0.030 A 
HETATM   14  C   UNL     1       5.024  24.871  53.169  1.00  0.00     0.002 A 
HETATM   15  C   UNL     1       5.927  24.685  52.123  1.00  0.00     0.000 A 
HETATM   16  C   UNL     1       7.237  25.145  52.245  1.00  0.00     0.002 A 
HETATM   17  C   UNL     1       7.649  25.788  53.414  1.00  0.00     0.030 A 
ENDBRANCH   7  12
ENDBRANCH   1   5
BRANCH   2  18
HETATM   18  N   UNL     1       8.806  30.968  59.320  1.00  0.00    -0.267 N 
HETATM   19  C   UNL     1       8.981  30.956  60.688  1.00  0.00     0.240 C 
HETATM   20  O   UNL     1       9.157  29.916  61.322  1.00  0.00    -0.272 OA
HETATM   21  H   UNL     1       8.606  31.805  58.774  1.00  0.00     0.190 HD
BRANCH  19  22
HETATM   22  C   UNL     1       8.917  32.328  61.335  1.00  0.00     0.143 C 
BRANCH  22  23
HETATM   23  C   UNL     1       7.784  32.487  62.320  1.00  0.00    -0.049 A 
HETATM   24  C   UNL     1       8.033  32.892  63.640  1.00  0.00     0.010 A 
HETATM   25  C   UNL     1       6.978  33.082  64.537  1.00  0.00     0.037 A 
HETATM   26  C   UNL     1       5.671  32.863  64.115  1.00  0.00     0.065 A 
HETATM   27  C   UNL     1       5.405  32.451  62.814  1.00  0.00     0.037 A 
HETATM   28  C   UNL     1       6.458  32.265  61.918  1.00  0.00     0.010 A 
BRANCH  26  29
HETATM   29  O   UNL     1       4.612  33.048  64.953  1.00  0.00    -0.361 OA
HETATM   30  H   UNL     1       3.999  33.680  64.544  1.00  0.00     0.217 HD
ENDBRANCH  26  29
ENDBRANCH  22  23
ENDBRANCH  19  22
ENDBRANCH   2  18
TORSDOF 6
ENDMDL
MODEL 4
REMARK VINA RESULT:      -9.5      2.185      3.070
REMARK  6 active torsions:
REMARK  status: ('A' for Active; 'I' for Inactive)
REMARK    1  A    between atoms: N_3  and  C_4 
REMARK    2  A    between atoms: C_12  and  C_13 
REMARK       I    between atoms: C_13  and  N_14 
REMARK    3  A    between atoms: N_14  and  N_15 
REMARK       I    between atoms: N_15  and  C_16 
REMARK    4  A    between atoms: C_16  and  C_17 
REMARK    5  A    between atoms: C_17  and  C_18 
REMARK    6  A    between atoms: C_21  and  O_22 
ROOT
HETATM    1  C   UNL     1       8.130  29.230  57.689  1.00  0.00     0.272 C 
HETATM    2  N   UNL     1       7.188  29.702  58.579  1.00  0.00    -0.263 N 
HETATM    3  O   UNL     1       9.327  29.486  57.821  1.00  0.00    -0.266 OA
HETATM    4  H   UNL     1       6.227  29.373  58.593  1.00  0.00     0.190 HD
ENDROOT
BRANCH   1   5
HETATM    5  C   UNL     1       7.625  28.364  56.625  1.00  0.00     0.058 A 
HETATM    6  C   UNL     1       7.954  27.040  56.334  1.00  0.00     0.029 A 
HETATM    7  N   UNL     1       7.237  26.645  55.196  1.00  0.00    -0.319 N 
HETATM    8  C   UNL     1       8.796  26.091  57.131  1.00  0.00     0.070 C 
HETATM    9  C   UNL     1       6.395  27.692  54.833  1.00  0.00     0.014 A 
HETATM   10  C   UNL     1       5.505  27.704  53.636  1.00  0.00     0.068 C 
HETATM   11  C   UNL     1       6.607  28.733  55.710  1.00  0.00     0.044 A 
BRANCH   7  12
HETATM   12  C   UNL     1       7.355  25.392  54.522  1.00  0.00     0.039 A 
HETATM   13  C   UNL     1       7.851  25.345  53.213  1.00  0.00     0.030 A 
HETATM   14  C   UNL     1       7.951  24.121  52.545  1.00  0.00     0.002 A 
HETATM   15  C   UNL     1       7.560  22.943  53.181  1.00  0.00     0.000 A 
HETATM   16  C   UNL     1       7.071  22.985  54.485  1.00  0.00     0.002 A 
HETATM   17  C   UNL     1       6.967  24.205  55.156  1.00  0.00     0.030 A 
ENDBRANCH   7  12
ENDBRANCH   1   5
BRANCH   2  18
HETATM   18  N   UNL     1       7.623  30.451  59.677  1.00  0.00    -0.267 N 
HETATM   19  C   UNL     1       7.531  31.826  59.620  1.00  0.00     0.240 C 
HETATM   20  O   UNL     1       6.978  32.413  58.689  1.00  0.00    -0.272 OA
HETATM   21  H   UNL     1       8.119  29.939  60.406  1.00  0.00     0.190 HD
BRANCH  19  22
HETATM   22  C   UNL     1       8.187  32.542  60.787  1.00  0.00     0.143 C 
BRANCH  22  23
HETATM   23  C   UNL     1       7.300  32.673  62.001  1.00  0.00    -0.049 A 
HETATM   24  C   UNL     1       7.854  32.762  63.287  1.00  0.00     0.010 A 
HETATM   25  C   UNL     1       7.033  32.928  64.405  1.00  0.00     0.037 A 
HETATM   26  C   UNL     1       5.654  33.001  64.239  1.00  0.00     0.065 A 
HETATM   27  C   UNL     1       5.086  32.904  62.975  1.00  0.00     0.037 A 
HETATM   28  C   UNL     1       5.906  32.741  61.858  1.00  0.00     0.010 A 
BRANCH  26  29
HETATM   29  O   UNL     1       4.817  33.174  65.301  1.00  0.00    -0.361 OA
HETATM   30  H   UNL     1       4.690  34.126  65.443  1.00  0.00     0.217 HD
ENDBRANCH  26  29
ENDBRANCH  22  23
ENDBRANCH  19  22
ENDBRANCH   2  18
TORSDOF 6
ENDMDL
MODEL 5
REMARK VINA RESULT:      -9.0      2.640      9.227
REMARK  6 active torsions:
REMARK  status: ('A' for Active; 'I' for Inactive)
REMARK    1  A    between atoms: N_3  and  C_4 
REMARK    2  A    between atoms: C_12  and  C_13 
REMARK       I    between atoms: C_13  and  N_14 
REMARK    3  A    between atoms: N_14  and  N_15 
REMARK       I    between atoms: N_15  and  C_16 
REMARK    4  A    between atoms: C_16  and  C_17 
REMARK    5  A    between atoms: C_17  and  C_18 
REMARK    6  A    between atoms: C_21  and  O_22 
ROOT
HETATM    1  C   UNL     1       5.586  28.189  55.795  1.00  0.00     0.272 C 
HETATM    2  N   UNL     1       6.576  27.695  54.971  1.00  0.00    -0.263 N 
HETATM    3  O   UNL     1       4.467  27.677  55.837  1.00  0.00    -0.266 OA
HETATM    4  H   UNL     1       7.547  27.986  55.038  1.00  0.00     0.190 HD
ENDROOT
BRANCH   1   5
HETATM    5  C   UNL     1       5.970  29.310  56.651  1.00  0.00     0.058 A 
HETATM    6  C   UNL     1       7.048  29.420  57.530  1.00  0.00     0.029 A 
HETATM    7  N   UNL     1       6.981  30.671  58.158  1.00  0.00    -0.319 N 
HETATM    8  C   UNL     1       8.201  28.481  57.715  1.00  0.00     0.070 C 
HETATM    9  C   UNL     1       5.914  31.374  57.607  1.00  0.00     0.014 A 
HETATM   10  C   UNL     1       5.458  32.726  58.041  1.00  0.00     0.068 C 
HETATM   11  C   UNL     1       5.308  30.562  56.673  1.00  0.00     0.044 A 
BRANCH   7  12
HETATM   12  C   UNL     1       7.848  31.140  59.191  1.00  0.00     0.039 A 
HETATM   13  C   UNL     1       9.137  31.587  58.875  1.00  0.00     0.030 A 
HETATM   14  C   UNL     1       9.993  32.031  59.887  1.00  0.00     0.002 A 
HETATM   15  C   UNL     1       9.566  32.031  61.214  1.00  0.00     0.000 A 
HETATM   16  C   UNL     1       8.283  31.591  61.533  1.00  0.00     0.002 A 
HETATM   17  C   UNL     1       7.424  31.145  60.526  1.00  0.00     0.030 A 
ENDBRANCH   7  12
ENDBRANCH   1   5
BRANCH   2  18
HETATM   18  N   UNL     1       6.300  26.559  54.203  1.00  0.00    -0.267 N 
HETATM   19  C   UNL     1       7.072  25.431  54.390  1.00  0.00     0.240 C 
HETATM   20  O   UNL     1       7.915  25.348  55.283  1.00  0.00    -0.272 OA
HETATM   21  H   UNL     1       5.633  26.677  53.442  1.00  0.00     0.190 HD
BRANCH  19  22
HETATM   22  C   UNL     1       6.802  24.320  53.390  1.00  0.00     0.143 C 
BRANCH  22  23
HETATM   23  C   UNL     1       7.356  22.978  53.804  1.00  0.00    -0.049 A 
HETATM   24  C   UNL     1       7.918  22.111  52.854  1.00  0.00     0.010 A 
HETATM   25  C   UNL     1       8.470  20.889  53.246  1.00  0.00     0.037 A 
HETATM   26  C   UNL     1       8.458  20.530  54.590  1.00  0.00     0.065 A 
HETATM   27  C   UNL     1       7.897  21.370  55.544  1.00  0.00     0.037 A 
HETATM   28  C   UNL     1       7.348  22.592  55.153  1.00  0.00     0.010 A 
BRANCH  26  29
HETATM   29  O   UNL     1       8.997  19.353  55.017  1.00  0.00    -0.361 OA
HETATM   30  H   UNL     1       8.609  18.628  54.500  1.00  0.00     0.217 HD
ENDBRANCH  26  29
ENDBRANCH  22  23
ENDBRANCH  19  22
ENDBRANCH   2  18
TORSDOF 6
ENDMDL
MODEL 6
REMARK VINA RESULT:      -9.0      3.149      5.020
REMARK  6 active torsions:
REMARK  status: ('A' for Active; 'I' for Inactive)
REMARK    1  A    between atoms: N_3  and  C_4 
REMARK    2  A    between atoms: C_12  and  C_13 
REMARK       I    between atoms: C_13  and  N_14 
REMARK    3  A    between atoms: N_14  and  N_15 
REMARK       I    between atoms: N_15  and  C_16 
REMARK    4  A    between atoms: C_16  and  C_17 
REMARK    5  A    between atoms: C_17  and  C_18 
REMARK    6  A    between atoms: C_21  and  O_22 
ROOT
HETATM    1  C   UNL     1       7.518  31.128  58.827  1.00  0.00     0.272 C 
HETATM    2  N   UNL     1       6.877  31.246  60.043  1.00  0.00    -0.263 N 
HETATM    3  O   UNL     1       8.503  31.812  58.548  1.00  0.00    -0.266 OA
HETATM    4  H   UNL     1       6.175  30.586  60.364  1.00  0.00     0.190 HD
ENDROOT
BRANCH   1   5
HETATM    5  C   UNL     1       6.992  30.104  57.926  1.00  0.00     0.058 A 
HETATM    6  C   UNL     1       7.671  29.090  57.251  1.00  0.00     0.029 A 
HETATM    7  N   UNL     1       6.747  28.378  56.475  1.00  0.00    -0.319 N 
HETATM    8  C   UNL     1       9.103  28.671  57.391  1.00  0.00     0.070 C 
HETATM    9  C   UNL     1       5.480  28.890  56.735  1.00  0.00     0.014 A 
HETATM   10  C   UNL     1       4.221  28.454  56.066  1.00  0.00     0.068 C 
HETATM   11  C   UNL     1       5.617  29.926  57.634  1.00  0.00     0.044 A 
BRANCH   7  12
HETATM   12  C   UNL     1       7.051  27.318  55.567  1.00  0.00     0.039 A 
HETATM   13  C   UNL     1       7.357  27.604  54.231  1.00  0.00     0.030 A 
HETATM   14  C   UNL     1       7.639  26.567  53.338  1.00  0.00     0.002 A 
HETATM   15  C   UNL     1       7.617  25.243  53.775  1.00  0.00     0.000 A 
HETATM   16  C   UNL     1       7.318  24.953  55.105  1.00  0.00     0.002 A 
HETATM   17  C   UNL     1       7.035  25.986  56.002  1.00  0.00     0.030 A 
ENDBRANCH   7  12
ENDBRANCH   1   5
BRANCH   2  18
HETATM   18  N   UNL     1       7.397  32.136  60.988  1.00  0.00    -0.267 N 
HETATM   19  C   UNL     1       7.868  31.632  62.183  1.00  0.00     0.240 C 
HETATM   20  O   UNL     1       7.953  30.424  62.402  1.00  0.00    -0.272 OA
HETATM   21  H   UNL     1       7.265  33.128  60.796  1.00  0.00     0.190 HD
BRANCH  19  22
HETATM   22  C   UNL     1       8.247  32.695  63.199  1.00  0.00     0.143 C 
BRANCH  22  23
HETATM   23  C   UNL     1       7.105  33.125  64.088  1.00  0.00    -0.049 A 
HETATM   24  C   UNL     1       5.774  32.905  63.702  1.00  0.00     0.010 A 
HETATM   25  C   UNL     1       4.720  33.264  64.546  1.00  0.00     0.037 A 
HETATM   26  C   UNL     1       4.996  33.846  65.778  1.00  0.00     0.065 A 
HETATM   27  C   UNL     1       6.307  34.082  66.174  1.00  0.00     0.037 A 
HETATM   28  C   UNL     1       7.359  33.721  65.332  1.00  0.00     0.010 A 
BRANCH  26  29
HETATM   29  O   UNL     1       3.998  34.200  66.638  1.00  0.00    -0.361 OA
HETATM   30  H   UNL     1       4.384  34.715  67.365  1.00  0.00     0.217 HD
ENDBRANCH  26  29
ENDBRANCH  22  23
ENDBRANCH  19  22
ENDBRANCH   2  18
TORSDOF 6
ENDMDL
MODEL 7
REMARK VINA RESULT:      -8.9      5.400      9.549
REMARK  6 active torsions:
REMARK  status: ('A' for Active; 'I' for Inactive)
REMARK    1  A    between atoms: N_3  and  C_4 
REMARK    2  A    between atoms: C_12  and  C_13 
REMARK       I    between atoms: C_13  and  N_14 
REMARK    3  A    between atoms: N_14  and  N_15 
REMARK       I    between atoms: N_15  and  C_16 
REMARK    4  A    between atoms: C_16  and  C_17 
REMARK    5  A    between atoms: C_17  and  C_18 
REMARK    6  A    between atoms: C_21  and  O_22 
ROOT
HETATM    1  C   UNL     1       4.972  26.308  52.710  1.00  0.00     0.272 C 
HETATM    2  N   UNL     1       4.930  26.468  54.079  1.00  0.00    -0.263 N 
HETATM    3  O   UNL     1       5.381  25.268  52.194  1.00  0.00    -0.266 OA
HETATM    4  H   UNL     1       4.446  27.238  54.531  1.00  0.00     0.190 HD
ENDROOT
BRANCH   1   5
HETATM    5  C   UNL     1       4.445  27.421  51.922  1.00  0.00     0.058 A 
HETATM    6  C   UNL     1       4.380  27.569  50.536  1.00  0.00     0.029 A 
HETATM    7  N   UNL     1       3.826  28.823  50.249  1.00  0.00    -0.319 N 
HETATM    8  C   UNL     1       4.684  26.555  49.475  1.00  0.00     0.070 C 
HETATM    9  C   UNL     1       3.464  29.420  51.453  1.00  0.00     0.014 A 
HETATM   10  C   UNL     1       2.895  30.791  51.597  1.00  0.00     0.068 C 
HETATM   11  C   UNL     1       3.816  28.565  52.475  1.00  0.00     0.044 A 
BRANCH   7  12
HETATM   12  C   UNL     1       3.669  29.395  48.950  1.00  0.00     0.039 A 
HETATM   13  C   UNL     1       2.472  29.216  48.245  1.00  0.00     0.030 A 
HETATM   14  C   UNL     1       2.323  29.761  46.967  1.00  0.00     0.002 A 
HETATM   15  C   UNL     1       3.365  30.487  46.390  1.00  0.00     0.000 A 
HETATM   16  C   UNL     1       4.556  30.672  47.090  1.00  0.00     0.002 A 
HETATM   17  C   UNL     1       4.711  30.128  48.367  1.00  0.00     0.030 A 
ENDBRANCH   7  12
ENDBRANCH   1   5
BRANCH   2  18
HETATM   18  N   UNL     1       5.324  25.397  54.888  1.00  0.00    -0.267 N 
HETATM   19  C   UNL     1       6.612  25.377  55.379  1.00  0.00     0.240 C 
HETATM   20  O   UNL     1       7.392  26.317  55.227  1.00  0.00    -0.272 OA
HETATM   21  H   UNL     1       4.673  24.615  54.952  1.00  0.00     0.190 HD
BRANCH  19  22
HETATM   22  C   UNL     1       6.984  24.092  56.097  1.00  0.00     0.143 C 
BRANCH  22  23
HETATM   23  C   UNL     1       7.387  22.969  55.172  1.00  0.00    -0.049 A 
HETATM   24  C   UNL     1       7.568  21.666  55.662  1.00  0.00     0.010 A 
HETATM   25  C   UNL     1       7.896  20.620  54.796  1.00  0.00     0.037 A 
HETATM   26  C   UNL     1       8.048  20.876  53.438  1.00  0.00     0.065 A 
HETATM   27  C   UNL     1       7.883  22.161  52.935  1.00  0.00     0.037 A 
HETATM   28  C   UNL     1       7.553  23.205  53.799  1.00  0.00     0.010 A 
BRANCH  26  29
HETATM   29  O   UNL     1       8.356  19.882  52.556  1.00  0.00    -0.361 OA
HETATM   30  H   UNL     1       8.756  19.146  53.047  1.00  0.00     0.217 HD
ENDBRANCH  26  29
ENDBRANCH  22  23
ENDBRANCH  19  22
ENDBRANCH   2  18
TORSDOF 6
ENDMDL
MODEL 8
REMARK VINA RESULT:      -8.9      6.502     10.613
REMARK  6 active torsions:
REMARK  status: ('A' for Active; 'I' for Inactive)
REMARK    1  A    between atoms: N_3  and  C_4 
REMARK    2  A    between atoms: C_12  and  C_13 
REMARK       I    between atoms: C_13  and  N_14 
REMARK    3  A    between atoms: N_14  and  N_15 
REMARK       I    between atoms: N_15  and  C_16 
REMARK    4  A    between atoms: C_16  and  C_17 
REMARK    5  A    between atoms: C_17  and  C_18 
REMARK    6  A    between atoms: C_21  and  O_22 
ROOT
HETATM    1  C   UNL     1       5.313  27.172  50.753  1.00  0.00     0.272 C 
HETATM    2  N   UNL     1       5.867  25.913  50.653  1.00  0.00    -0.263 N 
HETATM    3  O   UNL     1       5.643  27.953  51.645  1.00  0.00    -0.266 OA
HETATM    4  H   UNL     1       5.742  25.317  49.839  1.00  0.00     0.190 HD
ENDROOT
BRANCH   1   5
HETATM    5  C   UNL     1       4.362  27.535  49.703  1.00  0.00     0.058 A 
HETATM    6  C   UNL     1       3.964  28.801  49.272  1.00  0.00     0.029 A 
HETATM    7  N   UNL     1       3.003  28.644  48.264  1.00  0.00    -0.319 N 
HETATM    8  C   UNL     1       4.525  30.136  49.656  1.00  0.00     0.070 C 
HETATM    9  C   UNL     1       2.868  27.284  48.005  1.00  0.00     0.014 A 
HETATM   10  C   UNL     1       1.900  26.684  47.043  1.00  0.00     0.068 C 
HETATM   11  C   UNL     1       3.707  26.603  48.860  1.00  0.00     0.044 A 
BRANCH   7  12
HETATM   12  C   UNL     1       2.282  29.695  47.621  1.00  0.00     0.039 A 
HETATM   13  C   UNL     1       1.085  30.166  48.176  1.00  0.00     0.030 A 
HETATM   14  C   UNL     1       0.369  31.183  47.538  1.00  0.00     0.002 A 
HETATM   15  C   UNL     1       0.844  31.733  46.349  1.00  0.00     0.000 A 
HETATM   16  C   UNL     1       2.037  31.271  45.795  1.00  0.00     0.002 A 
HETATM   17  C   UNL     1       2.756  30.255  46.428  1.00  0.00     0.030 A 
ENDBRANCH   7  12
ENDBRANCH   1   5
BRANCH   2  18
HETATM   18  N   UNL     1       6.860  25.546  51.567  1.00  0.00    -0.267 N 
HETATM   19  C   UNL     1       6.489  24.869  52.710  1.00  0.00     0.240 C 
HETATM   20  O   UNL     1       5.338  24.476  52.901  1.00  0.00    -0.272 OA
HETATM   21  H   UNL     1       7.790  25.929  51.404  1.00  0.00     0.190 HD
BRANCH  19  22
HETATM   22  C   UNL     1       7.615  24.674  53.710  1.00  0.00     0.143 C 
BRANCH  22  23
HETATM   23  C   UNL     1       7.959  23.227  53.969  1.00  0.00    -0.049 A 
HETATM   24  C   UNL     1       7.937  22.288  52.926  1.00  0.00     0.010 A 
HETATM   25  C   UNL     1       8.299  20.959  53.159  1.00  0.00     0.037 A 
HETATM   26  C   UNL     1       8.681  20.566  54.437  1.00  0.00     0.065 A 
HETATM   27  C   UNL     1       8.699  21.478  55.485  1.00  0.00     0.037 A 
HETATM   28  C   UNL     1       8.340  22.806  55.251  1.00  0.00     0.010 A 
BRANCH  26  29
HETATM   29  O   UNL     1       9.054  19.282  54.706  1.00  0.00    -0.361 OA
HETATM   30  H   UNL     1       8.862  18.734  53.927  1.00  0.00     0.217 HD
ENDBRANCH  26  29
ENDBRANCH  22  23
ENDBRANCH  19  22
ENDBRANCH   2  18
TORSDOF 6
ENDMDL
MODEL 9
REMARK VINA RESULT:      -8.8      3.296     10.611
REMARK  6 active torsions:
REMARK  status: ('A' for Active; 'I' for Inactive)
REMARK    1  A    between atoms: N_3  and  C_4 
REMARK    2  A    between atoms: C_12  and  C_13 
REMARK       I    between atoms: C_13  and  N_14 
REMARK    3  A    between atoms: N_14  and  N_15 
REMARK       I    between atoms: N_15  and  C_16 
REMARK    4  A    between atoms: C_16  and  C_17 
REMARK    5  A    between atoms: C_17  and  C_18 
REMARK    6  A    between atoms: C_21  and  O_22 
ROOT
HETATM    1  C   UNL     1       8.281  31.265  59.524  1.00  0.00     0.272 C 
HETATM    2  N   UNL     1       7.868  29.960  59.358  1.00  0.00    -0.263 N 
HETATM    3  O   UNL     1       9.045  31.807  58.724  1.00  0.00    -0.266 OA
HETATM    4  H   UNL     1       7.115  29.545  59.899  1.00  0.00     0.190 HD
ENDROOT
BRANCH   1   5
HETATM    5  C   UNL     1       7.709  31.975  60.667  1.00  0.00     0.058 A 
HETATM    6  C   UNL     1       6.539  32.730  60.741  1.00  0.00     0.029 A 
HETATM    7  N   UNL     1       6.426  33.245  62.039  1.00  0.00    -0.319 N 
HETATM    8  C   UNL     1       5.463  32.887  59.711  1.00  0.00     0.070 C 
HETATM    9  C   UNL     1       7.476  32.739  62.797  1.00  0.00     0.014 A 
HETATM   10  C   UNL     1       7.760  33.090  64.219  1.00  0.00     0.068 C 
HETATM   11  C   UNL     1       8.249  31.946  61.977  1.00  0.00     0.044 A 
BRANCH   7  12
HETATM   12  C   UNL     1       5.415  34.142  62.502  1.00  0.00     0.039 A 
HETATM   13  C   UNL     1       4.247  33.639  63.090  1.00  0.00     0.030 A 
HETATM   14  C   UNL     1       3.250  34.514  63.528  1.00  0.00     0.002 A 
HETATM   15  C   UNL     1       3.415  35.891  63.384  1.00  0.00     0.000 A 
HETATM   16  C   UNL     1       4.577  36.396  62.803  1.00  0.00     0.002 A 
HETATM   17  C   UNL     1       5.576  35.526  62.363  1.00  0.00     0.030 A 
ENDBRANCH   7  12
ENDBRANCH   1   5
BRANCH   2  18
HETATM   18  N   UNL     1       8.300  29.262  58.225  1.00  0.00    -0.267 N 
HETATM   19  C   UNL     1       7.366  28.582  57.471  1.00  0.00     0.240 C 
HETATM   20  O   UNL     1       6.157  28.660  57.689  1.00  0.00    -0.272 OA
HETATM   21  H   UNL     1       9.308  29.177  58.103  1.00  0.00     0.190 HD
BRANCH  19  22
HETATM   22  C   UNL     1       7.963  27.722  56.371  1.00  0.00     0.143 C 
BRANCH  22  23
HETATM   23  C   UNL     1       6.933  27.045  55.498  1.00  0.00    -0.049 A 
HETATM   24  C   UNL     1       6.315  27.741  54.449  1.00  0.00     0.010 A 
HETATM   25  C   UNL     1       5.395  27.100  53.614  1.00  0.00     0.037 A 
HETATM   26  C   UNL     1       5.091  25.761  53.831  1.00  0.00     0.065 A 
HETATM   27  C   UNL     1       5.685  25.057  54.872  1.00  0.00     0.037 A 
HETATM   28  C   UNL     1       6.605  25.697  55.703  1.00  0.00     0.010 A 
BRANCH  26  29
HETATM   29  O   UNL     1       4.209  25.093  53.034  1.00  0.00    -0.361 OA
HETATM   30  H   UNL     1       3.447  25.670  52.864  1.00  0.00     0.217 HD
ENDBRANCH  26  29
ENDBRANCH  22  23
ENDBRANCH  19  22
ENDBRANCH   2  18
TORSDOF 6
ENDMDL
MODEL 10
REMARK VINA RESULT:      -8.7      3.196      5.692
REMARK  6 active torsions:
REMARK  status: ('A' for Active; 'I' for Inactive)
REMARK    1  A    between atoms: N_3  and  C_4 
REMARK    2  A    between atoms: C_12  and  C_13 
REMARK       I    between atoms: C_13  and  N_14 
REMARK    3  A    between atoms: N_14  and  N_15 
REMARK       I    between atoms: N_15  and  C_16 
REMARK    4  A    between atoms: C_16  and  C_17 
REMARK    5  A    between atoms: C_17  and  C_18 
REMARK    6  A    between atoms: C_21  and  O_22 
ROOT
HETATM    1  C   UNL     1       7.155  31.211  59.690  1.00  0.00     0.272 C 
HETATM    2  N   UNL     1       7.444  30.786  60.970  1.00  0.00    -0.263 N 
HETATM    3  O   UNL     1       6.497  32.231  59.482  1.00  0.00    -0.266 OA
HETATM    4  H   UNL     1       8.118  30.053  61.170  1.00  0.00     0.190 HD
ENDROOT
BRANCH   1   5
HETATM    5  C   UNL     1       7.728  30.412  58.608  1.00  0.00     0.058 A 
HETATM    6  C   UNL     1       7.093  29.537  57.726  1.00  0.00     0.029 A 
HETATM    7  N   UNL     1       8.063  28.973  56.886  1.00  0.00    -0.319 N 
HETATM    8  C   UNL     1       5.625  29.300  57.541  1.00  0.00     0.070 C 
HETATM    9  C   UNL     1       9.287  29.564  57.185  1.00  0.00     0.014 A 
HETATM   10  C   UNL     1      10.593  29.201  56.561  1.00  0.00     0.068 C 
HETATM   11  C   UNL     1       9.089  30.457  58.216  1.00  0.00     0.044 A 
BRANCH   7  12
HETATM   12  C   UNL     1       7.838  27.963  55.902  1.00  0.00     0.039 A 
HETATM   13  C   UNL     1       7.778  28.307  54.546  1.00  0.00     0.030 A 
HETATM   14  C   UNL     1       7.542  27.322  53.583  1.00  0.00     0.002 A 
HETATM   15  C   UNL     1       7.367  25.994  53.969  1.00  0.00     0.000 A 
HETATM   16  C   UNL     1       7.430  25.647  55.318  1.00  0.00     0.002 A 
HETATM   17  C   UNL     1       7.665  26.627  56.284  1.00  0.00     0.030 A 
ENDBRANCH   7  12
ENDBRANCH   1   5
BRANCH   2  18
HETATM   18  N   UNL     1       7.011  31.567  62.047  1.00  0.00    -0.267 N 
HETATM   19  C   UNL     1       7.946  32.286  62.761  1.00  0.00     0.240 C 
HETATM   20  O   UNL     1       9.127  32.357  62.420  1.00  0.00    -0.272 OA
HETATM   21  H   UNL     1       6.040  31.446  62.332  1.00  0.00     0.190 HD
BRANCH  19  22
HETATM   22  C   UNL     1       7.396  32.956  64.007  1.00  0.00     0.143 C 
BRANCH  22  23
HETATM   23  C   UNL     1       6.150  33.773  63.762  1.00  0.00    -0.049 A 
HETATM   24  C   UNL     1       6.136  34.786  62.791  1.00  0.00     0.010 A 
HETATM   25  C   UNL     1       4.969  35.510  62.536  1.00  0.00     0.037 A 
HETATM   26  C   UNL     1       3.813  35.224  63.254  1.00  0.00     0.065 A 
HETATM   27  C   UNL     1       3.809  34.232  64.226  1.00  0.00     0.037 A 
HETATM   28  C   UNL     1       4.974  33.507  64.480  1.00  0.00     0.010 A 
BRANCH  26  29
HETATM   29  O   UNL     1       2.649  35.897  63.027  1.00  0.00    -0.361 OA
HETATM   30  H   UNL     1       2.637  36.193  62.103  1.00  0.00     0.217 HD
ENDBRANCH  26  29
ENDBRANCH  22  23
ENDBRANCH  19  22
ENDBRANCH   2  18
TORSDOF 6
ENDMDL
