MODEL 1
REMARK VINA RESULT:      -9.0      0.000      0.000
REMARK  7 active torsions:
REMARK  status: ('A' for Active; 'I' for Inactive)
REMARK    1  A    between atoms: N_2  and  C_4 
REMARK    2  A    between atoms: N_2  and  C_10 
REMARK    3  A    between atoms: C_10  and  C_11 
REMARK    4  A    between atoms: C_12  and  N_13 
REMARK       I    between atoms: N_13  and  C_14 
REMARK       I    between atoms: C_14  and  N_15 
REMARK    5  A    between atoms: N_15  and  C_16 
REMARK    6  A    between atoms: C_16  and  C_17 
REMARK    7  A    between atoms: C_17  and  C_18 
ROOT
HETATM    1  C   UNL     1       8.371  29.063  57.710  1.00  0.00    -0.006 A 
HETATM    2  C   UNL     1       8.594  30.096  58.646  1.00  0.00     0.044 A 
HETATM    3  C   UNL     1       9.802  30.826  58.560  1.00  0.00     0.030 A 
HETATM    4  C   UNL     1      10.750  30.589  57.566  1.00  0.00     0.002 A 
HETATM    5  C   UNL     1      10.519  29.604  56.625  1.00  0.00     0.001 A 
HETATM    6  C   UNL     1       9.350  28.852  56.699  1.00  0.00     0.011 A 
ENDROOT
BRANCH   2   7
HETATM    7  N   UNL     1       7.764  30.546  59.703  1.00  0.00    -0.308 N 
HETATM    8  C   UNL     1       6.941  31.631  59.812  1.00  0.00     0.320 C 
HETATM    9  N   UNL     1       6.444  31.778  61.083  1.00  0.00    -0.343 N 
HETATM   10  O   UNL     1       6.710  32.448  58.931  1.00  0.00    -0.247 OA
HETATM   11  H   UNL     1       6.449  30.995  61.722  1.00  0.00     0.164 HD
HETATM   12  H   UNL     1       7.930  30.095  60.593  1.00  0.00     0.170 HD
BRANCH   9  13
HETATM   13  C   UNL     1       5.624  32.924  61.451  1.00  0.00     0.130 C 
BRANCH  13  14
HETATM   14  C   UNL     1       4.758  32.643  62.682  1.00  0.00     0.079 C 
BRANCH  14  15
HETATM   15  C   UNL     1       5.409  33.112  63.963  1.00  0.00     0.042 A 
HETATM   16  N   UNL     1       6.786  33.111  63.974  1.00  0.00    -0.248 NA
HETATM   17  C   UNL     1       7.365  33.511  65.057  1.00  0.00     0.210 A 
HETATM   18  N   UNL     1       6.701  33.936  66.168  1.00  0.00    -0.318 N 
HETATM   19  C   UNL     1       5.341  33.984  66.214  1.00  0.00     0.248 A 
HETATM   20  H   UNL     1       7.198  34.251  66.989  1.00  0.00     0.169 HD
HETATM   21  O   UNL     1       4.711  34.409  67.173  1.00  0.00    -0.268 OA
HETATM   22  C   UNL     1       4.661  33.508  65.003  1.00  0.00     0.101 A 
ENDBRANCH  14  15
ENDBRANCH  13  14
ENDBRANCH   9  13
ENDBRANCH   2   7
BRANCH   1  23
HETATM   23  C   UNL     1       7.224  28.075  57.685  1.00  0.00     0.275 C 
BRANCH  23  24
HETATM   24  N   UNL     1       7.394  26.776  56.908  1.00  0.00    -0.067 N 
HETATM   25  C   UNL     1       7.641  25.594  57.805  1.00  0.00     0.270 C 
HETATM   26  H   UNL     1       8.296  26.951  56.419  1.00  0.00     0.280 HD
BRANCH  24  27
HETATM   27  C   UNL     1       6.334  26.498  55.841  1.00  0.00     0.188 C 
HETATM   28  C   UNL     1       6.332  27.516  54.685  1.00  0.00     0.033 C 
HETATM   29  C   UNL     1       7.522  27.383  53.737  1.00  0.00     0.002 C 
HETATM   30  C   UNL     1       7.635  25.968  53.187  1.00  0.00     0.000 C 
HETATM   31  C   UNL     1       7.680  24.930  54.302  1.00  0.00     0.002 C 
HETATM   32  C   UNL     1       6.496  25.078  55.259  1.00  0.00     0.033 C 
ENDBRANCH  24  27
ENDBRANCH  23  24
ENDBRANCH   1  23
TORSDOF 7
ENDMDL
MODEL 2
REMARK VINA RESULT:      -9.0      4.908      7.423
REMARK  7 active torsions:
REMARK  status: ('A' for Active; 'I' for Inactive)
REMARK    1  A    between atoms: N_2  and  C_4 
REMARK    2  A    between atoms: N_2  and  C_10 
REMARK    3  A    between atoms: C_10  and  C_11 
REMARK    4  A    between atoms: C_12  and  N_13 
REMARK       I    between atoms: N_13  and  C_14 
REMARK       I    between atoms: C_14  and  N_15 
REMARK    5  A    between atoms: N_15  and  C_16 
REMARK    6  A    between atoms: C_16  and  C_17 
REMARK    7  A    between atoms: C_17  and  C_18 
ROOT
HETATM    1  C   UNL     1       7.931  23.173  53.678  1.00  0.00    -0.006 A 
HETATM    2  C   UNL     1       8.322  23.080  55.031  1.00  0.00     0.044 A 
HETATM    3  C   UNL     1       8.502  21.792  55.587  1.00  0.00     0.030 A 
HETATM    4  C   UNL     1       8.347  20.626  54.839  1.00  0.00     0.002 A 
HETATM    5  C   UNL     1       8.000  20.714  53.505  1.00  0.00     0.001 A 
HETATM    6  C   UNL     1       7.793  21.968  52.935  1.00  0.00     0.011 A 
ENDROOT
BRANCH   2   7
HETATM    7  N   UNL     1       8.583  24.114  55.965  1.00  0.00    -0.308 N 
HETATM    8  C   UNL     1       7.747  24.930  56.672  1.00  0.00     0.320 C 
HETATM    9  N   UNL     1       8.431  25.911  57.347  1.00  0.00    -0.343 N 
HETATM   10  O   UNL     1       6.524  24.882  56.669  1.00  0.00    -0.247 OA
HETATM   11  H   UNL     1       9.419  25.804  57.529  1.00  0.00     0.164 HD
HETATM   12  H   UNL     1       9.545  24.426  55.994  1.00  0.00     0.170 HD
BRANCH   9  13
HETATM   13  C   UNL     1       7.732  26.954  58.086  1.00  0.00     0.130 C 
BRANCH  13  14
HETATM   14  C   UNL     1       7.570  28.235  57.263  1.00  0.00     0.079 C 
BRANCH  14  15
HETATM   15  C   UNL     1       8.725  29.191  57.456  1.00  0.00     0.042 A 
HETATM   16  N   UNL     1       9.900  28.852  56.823  1.00  0.00    -0.248 NA
HETATM   17  C   UNL     1      10.900  29.657  56.971  1.00  0.00     0.210 A 
HETATM   18  N   UNL     1      10.856  30.808  57.698  1.00  0.00    -0.318 N 
HETATM   19  C   UNL     1       9.719  31.213  58.327  1.00  0.00     0.248 A 
HETATM   20  H   UNL     1      11.661  31.412  57.776  1.00  0.00     0.169 HD
HETATM   21  O   UNL     1       9.625  32.265  58.944  1.00  0.00    -0.268 OA
HETATM   22  C   UNL     1       8.577  30.300  58.195  1.00  0.00     0.101 A 
ENDBRANCH  14  15
ENDBRANCH  13  14
ENDBRANCH   9  13
ENDBRANCH   2   7
BRANCH   1  23
HETATM   23  C   UNL     1       7.559  24.425  52.911  1.00  0.00     0.275 C 
BRANCH  23  24
HETATM   24  N   UNL     1       6.831  25.544  53.645  1.00  0.00    -0.067 N 
HETATM   25  C   UNL     1       7.535  26.869  53.520  1.00  0.00     0.270 C 
HETATM   26  H   UNL     1       6.959  25.250  54.635  1.00  0.00     0.280 HD
BRANCH  24  27
HETATM   27  C   UNL     1       5.329  25.644  53.380  1.00  0.00     0.188 C 
HETATM   28  C   UNL     1       4.777  27.080  53.452  1.00  0.00     0.033 C 
HETATM   29  C   UNL     1       5.185  27.962  52.273  1.00  0.00     0.002 C 
HETATM   30  C   UNL     1       4.804  27.321  50.946  1.00  0.00     0.000 C 
HETATM   31  C   UNL     1       5.364  25.910  50.818  1.00  0.00     0.002 C 
HETATM   32  C   UNL     1       4.968  25.035  52.009  1.00  0.00     0.033 C 
ENDBRANCH  24  27
ENDBRANCH  23  24
ENDBRANCH   1  23
TORSDOF 7
ENDMDL
MODEL 3
REMARK VINA RESULT:      -8.7      6.759     11.055
REMARK  7 active torsions:
REMARK  status: ('A' for Active; 'I' for Inactive)
REMARK    1  A    between atoms: N_2  and  C_4 
REMARK    2  A    between atoms: N_2  and  C_10 
REMARK    3  A    between atoms: C_10  and  C_11 
REMARK    4  A    between atoms: C_12  and  N_13 
REMARK       I    between atoms: N_13  and  C_14 
REMARK       I    between atoms: C_14  and  N_15 
REMARK    5  A    between atoms: N_15  and  C_16 
REMARK    6  A    between atoms: C_16  and  C_17 
REMARK    7  A    between atoms: C_17  and  C_18 
ROOT
HETATM    1  C   UNL     1       6.555  26.668  55.643  1.00  0.00    -0.006 A 
HETATM    2  C   UNL     1       6.985  27.819  54.949  1.00  0.00     0.044 A 
HETATM    3  C   UNL     1       7.747  28.779  55.655  1.00  0.00     0.030 A 
HETATM    4  C   UNL     1       8.119  28.606  56.987  1.00  0.00     0.002 A 
HETATM    5  C   UNL     1       7.732  27.464  57.659  1.00  0.00     0.001 A 
HETATM    6  C   UNL     1       6.961  26.512  56.998  1.00  0.00     0.011 A 
ENDROOT
BRANCH   2   7
HETATM    7  N   UNL     1       6.773  28.186  53.596  1.00  0.00    -0.308 N 
HETATM    8  C   UNL     1       5.640  28.531  52.916  1.00  0.00     0.320 C 
HETATM    9  N   UNL     1       5.863  28.654  51.567  1.00  0.00    -0.343 N 
HETATM   10  O   UNL     1       4.521  28.648  53.397  1.00  0.00    -0.247 OA
HETATM   11  H   UNL     1       6.803  28.785  51.220  1.00  0.00     0.164 HD
HETATM   12  H   UNL     1       7.553  27.998  52.979  1.00  0.00     0.170 HD
BRANCH   9  13
HETATM   13  C   UNL     1       4.774  28.918  50.637  1.00  0.00     0.130 C 
BRANCH  13  14
HETATM   14  C   UNL     1       5.037  28.316  49.254  1.00  0.00     0.079 C 
BRANCH  14  15
HETATM   15  C   UNL     1       3.807  27.658  48.671  1.00  0.00     0.042 A 
HETATM   16  N   UNL     1       2.597  28.175  49.078  1.00  0.00    -0.248 NA
HETATM   17  C   UNL     1       1.532  27.630  48.589  1.00  0.00     0.210 A 
HETATM   18  N   UNL     1       1.538  26.597  47.702  1.00  0.00    -0.318 N 
HETATM   19  C   UNL     1       2.700  26.057  47.241  1.00  0.00     0.248 A 
HETATM   20  H   UNL     1       0.679  26.211  47.338  1.00  0.00     0.169 HD
HETATM   21  O   UNL     1       2.746  25.165  46.405  1.00  0.00    -0.268 OA
HETATM   22  C   UNL     1       3.923  26.642  47.803  1.00  0.00     0.101 A 
ENDBRANCH  14  15
ENDBRANCH  13  14
ENDBRANCH   9  13
ENDBRANCH   2   7
BRANCH   1  23
HETATM   23  C   UNL     1       5.632  25.579  55.137  1.00  0.00     0.275 C 
BRANCH  23  24
HETATM   24  N   UNL     1       6.167  24.579  54.121  1.00  0.00    -0.067 N 
HETATM   25  C   UNL     1       5.696  24.871  52.721  1.00  0.00     0.270 C 
HETATM   26  H   UNL     1       5.669  23.713  54.410  1.00  0.00     0.280 HD
BRANCH  24  27
HETATM   27  C   UNL     1       7.668  24.298  54.194  1.00  0.00     0.188 C 
HETATM   28  C   UNL     1       8.098  23.529  55.457  1.00  0.00     0.033 C 
HETATM   29  C   UNL     1       7.680  22.060  55.462  1.00  0.00     0.002 C 
HETATM   30  C   UNL     1       8.178  21.338  54.218  1.00  0.00     0.000 C 
HETATM   31  C   UNL     1       7.741  22.047  52.941  1.00  0.00     0.002 C 
HETATM   32  C   UNL     1       8.146  23.522  52.947  1.00  0.00     0.033 C 
ENDBRANCH  24  27
ENDBRANCH  23  24
ENDBRANCH   1  23
TORSDOF 7
ENDMDL
MODEL 4
REMARK VINA RESULT:      -8.6      7.254     11.600
REMARK  7 active torsions:
REMARK  status: ('A' for Active; 'I' for Inactive)
REMARK    1  A    between atoms: N_2  and  C_4 
REMARK    2  A    between atoms: N_2  and  C_10 
REMARK    3  A    between atoms: C_10  and  C_11 
REMARK    4  A    between atoms: C_12  and  N_13 
REMARK       I    between atoms: N_13  and  C_14 
REMARK       I    between atoms: C_14  and  N_15 
REMARK    5  A    between atoms: N_15  and  C_16 
REMARK    6  A    between atoms: C_16  and  C_17 
REMARK    7  A    between atoms: C_17  and  C_18 
ROOT
HETATM    1  C   UNL     1       7.950  23.602  55.700  1.00  0.00    -0.006 A 
HETATM    2  C   UNL     1       7.807  23.293  54.330  1.00  0.00     0.044 A 
HETATM    3  C   UNL     1       8.094  21.973  53.910  1.00  0.00     0.030 A 
HETATM    4  C   UNL     1       8.469  20.969  54.801  1.00  0.00     0.002 A 
HETATM    5  C   UNL     1       8.574  21.258  56.148  1.00  0.00     0.001 A 
HETATM    6  C   UNL     1       8.321  22.555  56.588  1.00  0.00     0.011 A 
ENDROOT
BRANCH   2   7
HETATM    7  N   UNL     1       7.399  24.125  53.258  1.00  0.00    -0.308 N 
HETATM    8  C   UNL     1       6.188  24.674  52.946  1.00  0.00     0.320 C 
HETATM    9  N   UNL     1       6.198  25.286  51.717  1.00  0.00    -0.343 N 
HETATM   10  O   UNL     1       5.166  24.588  53.615  1.00  0.00    -0.247 OA
HETATM   11  H   UNL     1       7.075  25.551  51.292  1.00  0.00     0.164 HD
HETATM   12  H   UNL     1       8.061  24.189  52.496  1.00  0.00     0.170 HD
BRANCH   9  13
HETATM   13  C   UNL     1       4.987  25.853  51.140  1.00  0.00     0.130 C 
BRANCH  13  14
HETATM   14  C   UNL     1       5.285  27.052  50.236  1.00  0.00     0.079 C 
BRANCH  14  15
HETATM   15  C   UNL     1       4.286  27.185  49.109  1.00  0.00     0.042 A 
HETATM   16  N   UNL     1       3.724  28.432  48.947  1.00  0.00    -0.248 NA
HETATM   17  C   UNL     1       2.870  28.570  47.987  1.00  0.00     0.210 A 
HETATM   18  N   UNL     1       2.507  27.571  47.135  1.00  0.00    -0.318 N 
HETATM   19  C   UNL     1       3.043  26.323  47.227  1.00  0.00     0.248 A 
HETATM   20  H   UNL     1       1.842  27.730  46.392  1.00  0.00     0.169 HD
HETATM   21  O   UNL     1       2.782  25.416  46.448  1.00  0.00    -0.268 OA
HETATM   22  C   UNL     1       3.996  26.135  48.327  1.00  0.00     0.101 A 
ENDBRANCH  14  15
ENDBRANCH  13  14
ENDBRANCH   9  13
ENDBRANCH   2   7
BRANCH   1  23
HETATM   23  C   UNL     1       7.824  24.962  56.355  1.00  0.00     0.275 C 
BRANCH  23  24
HETATM   24  N   UNL     1       6.503  25.711  56.238  1.00  0.00    -0.067 N 
HETATM   25  C   UNL     1       5.432  25.133  57.123  1.00  0.00     0.270 C 
HETATM   26  H   UNL     1       6.222  25.472  55.264  1.00  0.00     0.280 HD
BRANCH  24  27
HETATM   27  C   UNL     1       6.594  27.234  56.334  1.00  0.00     0.188 C 
HETATM   28  C   UNL     1       7.695  27.850  55.451  1.00  0.00     0.033 C 
HETATM   29  C   UNL     1       7.381  27.823  53.956  1.00  0.00     0.002 C 
HETATM   30  C   UNL     1       6.043  28.486  53.661  1.00  0.00     0.000 C 
HETATM   31  C   UNL     1       4.916  27.878  54.487  1.00  0.00     0.002 C 
HETATM   32  C   UNL     1       5.242  27.891  55.982  1.00  0.00     0.033 C 
ENDBRANCH  24  27
ENDBRANCH  23  24
ENDBRANCH   1  23
TORSDOF 7
ENDMDL
MODEL 5
REMARK VINA RESULT:      -8.6      2.727      9.032
REMARK  7 active torsions:
REMARK  status: ('A' for Active; 'I' for Inactive)
REMARK    1  A    between atoms: N_2  and  C_4 
REMARK    2  A    between atoms: N_2  and  C_10 
REMARK    3  A    between atoms: C_10  and  C_11 
REMARK    4  A    between atoms: C_12  and  N_13 
REMARK       I    between atoms: N_13  and  C_14 
REMARK       I    between atoms: C_14  and  N_15 
REMARK    5  A    between atoms: N_15  and  C_16 
REMARK    6  A    between atoms: C_16  and  C_17 
REMARK    7  A    between atoms: C_17  and  C_18 
ROOT
HETATM    1  C   UNL     1       5.548  32.383  62.853  1.00  0.00    -0.006 A 
HETATM    2  C   UNL     1       6.859  31.945  62.570  1.00  0.00     0.044 A 
HETATM    3  C   UNL     1       7.914  32.427  63.380  1.00  0.00     0.030 A 
HETATM    4  C   UNL     1       7.697  33.278  64.462  1.00  0.00     0.002 A 
HETATM    5  C   UNL     1       6.411  33.680  64.766  1.00  0.00     0.001 A 
HETATM    6  C   UNL     1       5.354  33.241  63.972  1.00  0.00     0.011 A 
ENDROOT
BRANCH   2   7
HETATM    7  N   UNL     1       7.313  31.056  61.564  1.00  0.00    -0.308 N 
HETATM    8  C   UNL     1       7.781  31.278  60.301  1.00  0.00     0.320 C 
HETATM    9  N   UNL     1       7.959  30.109  59.602  1.00  0.00    -0.343 N 
HETATM   10  O   UNL     1       7.959  32.372  59.782  1.00  0.00    -0.247 OA
HETATM   11  H   UNL     1       8.034  29.231  60.096  1.00  0.00     0.164 HD
HETATM   12  H   UNL     1       7.099  30.082  61.732  1.00  0.00     0.170 HD
BRANCH   9  13
HETATM   13  C   UNL     1       8.357  30.114  58.201  1.00  0.00     0.130 C 
BRANCH  13  14
HETATM   14  C   UNL     1       8.377  28.705  57.602  1.00  0.00     0.079 C 
BRANCH  14  15
HETATM   15  C   UNL     1       6.989  28.189  57.299  1.00  0.00     0.042 A 
HETATM   16  N   UNL     1       6.008  29.146  57.161  1.00  0.00    -0.248 NA
HETATM   17  C   UNL     1       4.814  28.728  56.898  1.00  0.00     0.210 A 
HETATM   18  N   UNL     1       4.477  27.417  56.744  1.00  0.00    -0.318 N 
HETATM   19  C   UNL     1       5.404  26.425  56.842  1.00  0.00     0.248 A 
HETATM   20  H   UNL     1       3.531  27.140  56.527  1.00  0.00     0.169 HD
HETATM   21  O   UNL     1       5.151  25.242  56.658  1.00  0.00    -0.268 OA
HETATM   22  C   UNL     1       6.763  26.874  57.167  1.00  0.00     0.101 A 
ENDBRANCH  14  15
ENDBRANCH  13  14
ENDBRANCH   9  13
ENDBRANCH   2   7
BRANCH   1  23
HETATM   23  C   UNL     1       4.291  32.106  62.054  1.00  0.00     0.275 C 
BRANCH  23  24
HETATM   24  N   UNL     1       4.030  32.922  60.795  1.00  0.00    -0.067 N 
HETATM   25  C   UNL     1       4.306  32.145  59.536  1.00  0.00     0.270 C 
HETATM   26  H   UNL     1       4.787  33.634  60.857  1.00  0.00     0.280 HD
BRANCH  24  27
HETATM   27  C   UNL     1       2.696  33.667  60.751  1.00  0.00     0.188 C 
HETATM   28  C   UNL     1       2.342  34.391  62.064  1.00  0.00     0.033 C 
HETATM   29  C   UNL     1       3.186  35.634  62.334  1.00  0.00     0.002 C 
HETATM   30  C   UNL     1       3.124  36.609  61.167  1.00  0.00     0.000 C 
HETATM   31  C   UNL     1       3.505  35.941  59.851  1.00  0.00     0.002 C 
HETATM   32  C   UNL     1       2.669  34.686  59.593  1.00  0.00     0.033 C 
ENDBRANCH  24  27
ENDBRANCH  23  24
ENDBRANCH   1  23
TORSDOF 7
ENDMDL
MODEL 6
REMARK VINA RESULT:      -8.6      4.956     10.289
REMARK  7 active torsions:
REMARK  status: ('A' for Active; 'I' for Inactive)
REMARK    1  A    between atoms: N_2  and  C_4 
REMARK    2  A    between atoms: N_2  and  C_10 
REMARK    3  A    between atoms: C_10  and  C_11 
REMARK    4  A    between atoms: C_12  and  N_13 
REMARK       I    between atoms: N_13  and  C_14 
REMARK       I    between atoms: C_14  and  N_15 
REMARK    5  A    between atoms: N_15  and  C_16 
REMARK    6  A    between atoms: C_16  and  C_17 
REMARK    7  A    between atoms: C_17  and  C_18 
ROOT
HETATM    1  C   UNL     1       4.898  29.780  56.004  1.00  0.00    -0.006 A 
HETATM    2  C   UNL     1       4.557  28.775  55.074  1.00  0.00     0.044 A 
HETATM    3  C   UNL     1       3.943  29.166  53.861  1.00  0.00     0.030 A 
HETATM    4  C   UNL     1       3.704  30.502  53.541  1.00  0.00     0.002 A 
HETATM    5  C   UNL     1       4.070  31.492  54.432  1.00  0.00     0.001 A 
HETATM    6  C   UNL     1       4.655  31.135  55.645  1.00  0.00     0.011 A 
ENDROOT
BRANCH   2   7
HETATM    7  N   UNL     1       4.744  27.372  55.157  1.00  0.00    -0.308 N 
HETATM    8  C   UNL     1       5.777  26.569  54.766  1.00  0.00     0.320 C 
HETATM    9  N   UNL     1       5.472  25.237  54.887  1.00  0.00    -0.343 N 
HETATM   10  O   UNL     1       6.836  26.946  54.283  1.00  0.00    -0.247 OA
HETATM   11  H   UNL     1       4.713  24.944  55.487  1.00  0.00     0.164 HD
HETATM   12  H   UNL     1       3.910  26.846  55.384  1.00  0.00     0.170 HD
BRANCH   9  13
HETATM   13  C   UNL     1       6.391  24.202  54.434  1.00  0.00     0.130 C 
BRANCH  13  14
HETATM   14  C   UNL     1       7.355  23.762  55.539  1.00  0.00     0.079 C 
BRANCH  14  15
HETATM   15  C   UNL     1       7.882  22.362  55.319  1.00  0.00     0.042 A 
HETATM   16  N   UNL     1       8.266  21.679  56.451  1.00  0.00    -0.248 NA
HETATM   17  C   UNL     1       8.716  20.479  56.287  1.00  0.00     0.210 A 
HETATM   18  N   UNL     1       8.823  19.858  55.079  1.00  0.00    -0.318 N 
HETATM   19  C   UNL     1       8.438  20.470  53.925  1.00  0.00     0.248 A 
HETATM   20  H   UNL     1       9.172  18.914  55.002  1.00  0.00     0.169 HD
HETATM   21  O   UNL     1       8.470  19.927  52.829  1.00  0.00    -0.268 OA
HETATM   22  C   UNL     1       7.948  21.844  54.083  1.00  0.00     0.101 A 
ENDBRANCH  14  15
ENDBRANCH  13  14
ENDBRANCH   9  13
ENDBRANCH   2   7
BRANCH   1  23
HETATM   23  C   UNL     1       5.440  29.593  57.405  1.00  0.00     0.275 C 
BRANCH  23  24
HETATM   24  N   UNL     1       6.743  30.284  57.785  1.00  0.00    -0.067 N 
HETATM   25  C   UNL     1       6.529  31.455  58.706  1.00  0.00     0.270 C 
HETATM   26  H   UNL     1       7.026  30.694  56.871  1.00  0.00     0.280 HD
BRANCH  24  27
HETATM   27  C   UNL     1       7.871  29.363  58.249  1.00  0.00     0.188 C 
HETATM   28  C   UNL     1       8.393  28.414  57.154  1.00  0.00     0.033 C 
HETATM   29  C   UNL     1       9.216  29.107  56.072  1.00  0.00     0.002 C 
HETATM   30  C   UNL     1      10.372  29.894  56.674  1.00  0.00     0.000 C 
HETATM   31  C   UNL     1       9.894  30.875  57.738  1.00  0.00     0.002 C 
HETATM   32  C   UNL     1       9.055  30.179  58.811  1.00  0.00     0.033 C 
ENDBRANCH  24  27
ENDBRANCH  23  24
ENDBRANCH   1  23
TORSDOF 7
ENDMDL
MODEL 7
REMARK VINA RESULT:      -8.5      6.472     10.627
REMARK  7 active torsions:
REMARK  status: ('A' for Active; 'I' for Inactive)
REMARK    1  A    between atoms: N_2  and  C_4 
REMARK    2  A    between atoms: N_2  and  C_10 
REMARK    3  A    between atoms: C_10  and  C_11 
REMARK    4  A    between atoms: C_12  and  N_13 
REMARK       I    between atoms: N_13  and  C_14 
REMARK       I    between atoms: C_14  and  N_15 
REMARK    5  A    between atoms: N_15  and  C_16 
REMARK    6  A    between atoms: C_16  and  C_17 
REMARK    7  A    between atoms: C_17  and  C_18 
ROOT
HETATM    1  C   UNL     1       7.726  24.157  55.082  1.00  0.00    -0.006 A 
HETATM    2  C   UNL     1       7.621  24.643  53.761  1.00  0.00     0.044 A 
HETATM    3  C   UNL     1       7.750  23.719  52.697  1.00  0.00     0.030 A 
HETATM    4  C   UNL     1       7.933  22.354  52.910  1.00  0.00     0.002 A 
HETATM    5  C   UNL     1       7.998  21.868  54.201  1.00  0.00     0.001 A 
HETATM    6  C   UNL     1       7.899  22.757  55.269  1.00  0.00     0.011 A 
ENDROOT
BRANCH   2   7
HETATM    7  N   UNL     1       7.391  25.965  53.304  1.00  0.00    -0.308 N 
HETATM    8  C   UNL     1       6.272  26.747  53.316  1.00  0.00     0.320 C 
HETATM    9  N   UNL     1       6.450  27.915  52.617  1.00  0.00    -0.343 N 
HETATM   10  O   UNL     1       5.192  26.448  53.808  1.00  0.00    -0.247 OA
HETATM   11  H   UNL     1       7.383  28.251  52.422  1.00  0.00     0.164 HD
HETATM   12  H   UNL     1       8.121  26.342  52.714  1.00  0.00     0.170 HD
BRANCH   9  13
HETATM   13  C   UNL     1       5.355  28.854  52.415  1.00  0.00     0.130 C 
BRANCH  13  14
HETATM   14  C   UNL     1       5.238  29.299  50.954  1.00  0.00     0.079 C 
BRANCH  14  15
HETATM   15  C   UNL     1       4.416  28.338  50.125  1.00  0.00     0.042 A 
HETATM   16  N   UNL     1       4.976  27.098  49.910  1.00  0.00    -0.248 NA
HETATM   17  C   UNL     1       4.290  26.259  49.207  1.00  0.00     0.210 A 
HETATM   18  N   UNL     1       3.061  26.524  48.682  1.00  0.00    -0.318 N 
HETATM   19  C   UNL     1       2.442  27.720  48.879  1.00  0.00     0.248 A 
HETATM   20  H   UNL     1       2.557  25.830  48.147  1.00  0.00     0.169 HD
HETATM   21  O   UNL     1       1.318  27.976  48.469  1.00  0.00    -0.268 OA
HETATM   22  C   UNL     1       3.214  28.699  49.653  1.00  0.00     0.101 A 
ENDBRANCH  14  15
ENDBRANCH  13  14
ENDBRANCH   9  13
ENDBRANCH   2   7
BRANCH   1  23
HETATM   23  C   UNL     1       7.748  24.966  56.361  1.00  0.00     0.275 C 
BRANCH  23  24
HETATM   24  N   UNL     1       6.604  25.931  56.637  1.00  0.00    -0.067 N 
HETATM   25  C   UNL     1       5.349  25.228  57.080  1.00  0.00     0.270 C 
HETATM   26  H   UNL     1       6.404  26.285  55.679  1.00  0.00     0.280 HD
BRANCH  24  27
HETATM   27  C   UNL     1       6.948  27.136  57.514  1.00  0.00     0.188 C 
HETATM   28  C   UNL     1       8.297  27.794  57.167  1.00  0.00     0.033 C 
HETATM   29  C   UNL     1       8.288  28.575  55.855  1.00  0.00     0.002 C 
HETATM   30  C   UNL     1       7.179  29.618  55.840  1.00  0.00     0.000 C 
HETATM   31  C   UNL     1       5.818  29.000  56.140  1.00  0.00     0.002 C 
HETATM   32  C   UNL     1       5.836  28.204  57.447  1.00  0.00     0.033 C 
ENDBRANCH  24  27
ENDBRANCH  23  24
ENDBRANCH   1  23
TORSDOF 7
ENDMDL
MODEL 8
REMARK VINA RESULT:      -8.3      7.016     11.245
REMARK  7 active torsions:
REMARK  status: ('A' for Active; 'I' for Inactive)
REMARK    1  A    between atoms: N_2  and  C_4 
REMARK    2  A    between atoms: N_2  and  C_10 
REMARK    3  A    between atoms: C_10  and  C_11 
REMARK    4  A    between atoms: C_12  and  N_13 
REMARK       I    between atoms: N_13  and  C_14 
REMARK       I    between atoms: C_14  and  N_15 
REMARK    5  A    between atoms: N_15  and  C_16 
REMARK    6  A    between atoms: C_16  and  C_17 
REMARK    7  A    between atoms: C_17  and  C_18 
ROOT
HETATM    1  C   UNL     1       6.575  24.623  54.508  1.00  0.00    -0.006 A 
HETATM    2  C   UNL     1       7.063  24.592  53.184  1.00  0.00     0.044 A 
HETATM    3  C   UNL     1       8.063  23.644  52.862  1.00  0.00     0.030 A 
HETATM    4  C   UNL     1       8.547  22.724  53.790  1.00  0.00     0.002 A 
HETATM    5  C   UNL     1       8.047  22.727  55.078  1.00  0.00     0.001 A 
HETATM    6  C   UNL     1       7.079  23.663  55.430  1.00  0.00     0.011 A 
ENDROOT
BRANCH   2   7
HETATM    7  N   UNL     1       6.692  25.386  52.070  1.00  0.00    -0.308 N 
HETATM    8  C   UNL     1       5.507  25.520  51.405  1.00  0.00     0.320 C 
HETATM    9  N   UNL     1       5.634  26.282  50.270  1.00  0.00    -0.343 N 
HETATM   10  O   UNL     1       4.451  24.978  51.703  1.00  0.00    -0.247 OA
HETATM   11  H   UNL     1       6.426  26.899  50.162  1.00  0.00     0.164 HD
HETATM   12  H   UNL     1       7.467  25.796  51.566  1.00  0.00     0.170 HD
BRANCH   9  13
HETATM   13  C   UNL     1       4.517  26.473  49.354  1.00  0.00     0.130 C 
BRANCH  13  14
HETATM   14  C   UNL     1       4.939  27.200  48.074  1.00  0.00     0.079 C 
BRANCH  14  15
HETATM   15  C   UNL     1       5.046  28.695  48.270  1.00  0.00     0.042 A 
HETATM   16  N   UNL     1       5.659  29.107  49.432  1.00  0.00    -0.248 NA
HETATM   17  C   UNL     1       5.765  30.381  49.619  1.00  0.00     0.210 A 
HETATM   18  N   UNL     1       5.319  31.325  48.743  1.00  0.00    -0.318 N 
HETATM   19  C   UNL     1       4.726  30.983  47.567  1.00  0.00     0.248 A 
HETATM   20  H   UNL     1       5.435  32.311  48.928  1.00  0.00     0.169 HD
HETATM   21  O   UNL     1       4.361  31.800  46.732  1.00  0.00    -0.268 OA
HETATM   22  C   UNL     1       4.571  29.541  47.344  1.00  0.00     0.101 A 
ENDBRANCH  14  15
ENDBRANCH  13  14
ENDBRANCH   9  13
ENDBRANCH   2   7
BRANCH   1  23
HETATM   23  C   UNL     1       5.609  25.622  55.110  1.00  0.00     0.275 C 
BRANCH  23  24
HETATM   24  N   UNL     1       5.978  27.099  55.092  1.00  0.00    -0.067 N 
HETATM   25  C   UNL     1       5.124  27.896  54.143  1.00  0.00     0.270 C 
HETATM   26  H   UNL     1       6.923  27.065  54.658  1.00  0.00     0.280 HD
BRANCH  24  27
HETATM   27  C   UNL     1       6.120  27.764  56.461  1.00  0.00     0.188 C 
HETATM   28  C   UNL     1       6.980  26.964  57.457  1.00  0.00     0.033 C 
HETATM   29  C   UNL     1       8.474  26.978  57.140  1.00  0.00     0.002 C 
HETATM   30  C   UNL     1       9.001  28.401  57.022  1.00  0.00     0.000 C 
HETATM   31  C   UNL     1       8.200  29.218  56.015  1.00  0.00     0.002 C 
HETATM   32  C   UNL     1       6.702  29.187  56.326  1.00  0.00     0.033 C 
ENDBRANCH  24  27
ENDBRANCH  23  24
ENDBRANCH   1  23
TORSDOF 7
ENDMDL
MODEL 9
REMARK VINA RESULT:      -8.2      6.968     12.091
REMARK  7 active torsions:
REMARK  status: ('A' for Active; 'I' for Inactive)
REMARK    1  A    between atoms: N_2  and  C_4 
REMARK    2  A    between atoms: N_2  and  C_10 
REMARK    3  A    between atoms: C_10  and  C_11 
REMARK    4  A    between atoms: C_12  and  N_13 
REMARK       I    between atoms: N_13  and  C_14 
REMARK       I    between atoms: C_14  and  N_15 
REMARK    5  A    between atoms: N_15  and  C_16 
REMARK    6  A    between atoms: C_16  and  C_17 
REMARK    7  A    between atoms: C_17  and  C_18 
ROOT
HETATM    1  C   UNL     1       6.607  24.401  54.507  1.00  0.00    -0.006 A 
HETATM    2  C   UNL     1       7.058  24.443  53.171  1.00  0.00     0.044 A 
HETATM    3  C   UNL     1       8.089  23.553  52.786  1.00  0.00     0.030 A 
HETATM    4  C   UNL     1       8.637  22.620  53.663  1.00  0.00     0.002 A 
HETATM    5  C   UNL     1       8.172  22.550  54.962  1.00  0.00     0.001 A 
HETATM    6  C   UNL     1       7.175  23.429  55.377  1.00  0.00     0.011 A 
ENDROOT
BRANCH   2   7
HETATM    7  N   UNL     1       6.624  25.264  52.100  1.00  0.00    -0.308 N 
HETATM    8  C   UNL     1       5.423  25.355  51.456  1.00  0.00     0.320 C 
HETATM    9  N   UNL     1       5.487  26.174  50.356  1.00  0.00    -0.343 N 
HETATM   10  O   UNL     1       4.407  24.736  51.740  1.00  0.00    -0.247 OA
HETATM   11  H   UNL     1       6.238  26.844  50.268  1.00  0.00     0.164 HD
HETATM   12  H   UNL     1       7.365  25.744  51.607  1.00  0.00     0.170 HD
BRANCH   9  13
HETATM   13  C   UNL     1       4.348  26.339  49.464  1.00  0.00     0.130 C 
BRANCH  13  14
HETATM   14  C   UNL     1       4.736  27.030  48.154  1.00  0.00     0.079 C 
BRANCH  14  15
HETATM   15  C   UNL     1       3.584  27.797  47.545  1.00  0.00     0.042 A 
HETATM   16  N   UNL     1       3.831  29.119  47.249  1.00  0.00    -0.248 NA
HETATM   17  C   UNL     1       2.862  29.793  46.725  1.00  0.00     0.210 A 
HETATM   18  N   UNL     1       1.633  29.277  46.444  1.00  0.00    -0.318 N 
HETATM   19  C   UNL     1       1.333  27.973  46.689  1.00  0.00     0.248 A 
HETATM   20  H   UNL     1       0.909  29.842  46.023  1.00  0.00     0.169 HD
HETATM   21  O   UNL     1       0.259  27.460  46.402  1.00  0.00    -0.268 OA
HETATM   22  C   UNL     1       2.410  27.193  47.310  1.00  0.00     0.101 A 
ENDBRANCH  14  15
ENDBRANCH  13  14
ENDBRANCH   9  13
ENDBRANCH   2   7
BRANCH   1  23
HETATM   23  C   UNL     1       5.616  25.332  55.174  1.00  0.00     0.275 C 
BRANCH  23  24
HETATM   24  N   UNL     1       5.952  26.815  55.266  1.00  0.00    -0.067 N 
HETATM   25  C   UNL     1       5.096  27.658  54.359  1.00  0.00     0.270 C 
HETATM   26  H   UNL     1       6.905  26.831  54.848  1.00  0.00     0.280 HD
BRANCH  24  27
HETATM   27  C   UNL     1       6.057  27.385  56.680  1.00  0.00     0.188 C 
HETATM   28  C   UNL     1       7.196  26.774  57.516  1.00  0.00     0.033 C 
HETATM   29  C   UNL     1       8.592  27.219  57.083  1.00  0.00     0.002 C 
HETATM   30  C   UNL     1       8.709  28.737  57.070  1.00  0.00     0.000 C 
HETATM   31  C   UNL     1       7.621  29.381  56.221  1.00  0.00     0.002 C 
HETATM   32  C   UNL     1       6.225  28.919  56.646  1.00  0.00     0.033 C 
ENDBRANCH  24  27
ENDBRANCH  23  24
ENDBRANCH   1  23
TORSDOF 7
ENDMDL
MODEL 10
REMARK VINA RESULT:      -8.0      4.614     10.125
REMARK  7 active torsions:
REMARK  status: ('A' for Active; 'I' for Inactive)
REMARK    1  A    between atoms: N_2  and  C_4 
REMARK    2  A    between atoms: N_2  and  C_10 
REMARK    3  A    between atoms: C_10  and  C_11 
REMARK    4  A    between atoms: C_12  and  N_13 
REMARK       I    between atoms: N_13  and  C_14 
REMARK       I    between atoms: C_14  and  N_15 
REMARK    5  A    between atoms: N_15  and  C_16 
REMARK    6  A    between atoms: C_16  and  C_17 
REMARK    7  A    between atoms: C_17  and  C_18 
ROOT
HETATM    1  C   UNL     1       8.109  29.941  57.938  1.00  0.00    -0.006 A 
HETATM    2  C   UNL     1       8.763  28.900  57.245  1.00  0.00     0.044 A 
HETATM    3  C   UNL     1      10.136  29.057  56.945  1.00  0.00     0.030 A 
HETATM    4  C   UNL     1      10.865  30.176  57.343  1.00  0.00     0.002 A 
HETATM    5  C   UNL     1      10.239  31.181  58.053  1.00  0.00     0.001 A 
HETATM    6  C   UNL     1       8.881  31.065  58.343  1.00  0.00     0.011 A 
ENDROOT
BRANCH   2   7
HETATM    7  N   UNL     1       8.247  27.663  56.785  1.00  0.00    -0.308 N 
HETATM    8  C   UNL     1       7.731  27.287  55.578  1.00  0.00     0.320 C 
HETATM    9  N   UNL     1       7.192  26.025  55.615  1.00  0.00    -0.343 N 
HETATM   10  O   UNL     1       7.662  27.988  54.577  1.00  0.00    -0.247 OA
HETATM   11  H   UNL     1       7.455  25.385  56.351  1.00  0.00     0.164 HD
HETATM   12  H   UNL     1       8.065  26.983  57.512  1.00  0.00     0.170 HD
BRANCH   9  13
HETATM   13  C   UNL     1       6.498  25.460  54.466  1.00  0.00     0.130 C 
BRANCH  13  14
HETATM   14  C   UNL     1       7.447  24.703  53.533  1.00  0.00     0.079 C 
BRANCH  14  15
HETATM   15  C   UNL     1       7.645  23.266  53.957  1.00  0.00     0.042 A 
HETATM   16  N   UNL     1       7.480  23.006  55.300  1.00  0.00    -0.248 NA
HETATM   17  C   UNL     1       7.640  21.783  55.685  1.00  0.00     0.210 A 
HETATM   18  N   UNL     1       7.949  20.751  54.851  1.00  0.00    -0.318 N 
HETATM   19  C   UNL     1       8.101  20.936  53.512  1.00  0.00     0.248 A 
HETATM   20  H   UNL     1       8.054  19.809  55.198  1.00  0.00     0.169 HD
HETATM   21  O   UNL     1       8.326  20.027  52.724  1.00  0.00    -0.268 OA
HETATM   22  C   UNL     1       7.950  22.323  53.054  1.00  0.00     0.101 A 
ENDBRANCH  14  15
ENDBRANCH  13  14
ENDBRANCH   9  13
ENDBRANCH   2   7
BRANCH   1  23
HETATM   23  C   UNL     1       6.632  30.052  58.253  1.00  0.00     0.275 C 
BRANCH  23  24
HETATM   24  N   UNL     1       5.763  30.949  57.381  1.00  0.00    -0.067 N 
HETATM   25  C   UNL     1       5.653  30.447  55.966  1.00  0.00     0.270 C 
HETATM   26  H   UNL     1       6.348  31.808  57.329  1.00  0.00     0.280 HD
BRANCH  24  27
HETATM   27  C   UNL     1       4.411  31.344  57.976  1.00  0.00     0.188 C 
HETATM   28  C   UNL     1       4.508  31.983  59.374  1.00  0.00     0.033 C 
HETATM   29  C   UNL     1       5.079  33.399  59.372  1.00  0.00     0.002 C 
HETATM   30  C   UNL     1       4.297  34.310  58.435  1.00  0.00     0.000 C 
HETATM   31  C   UNL     1       4.210  33.732  57.028  1.00  0.00     0.002 C 
HETATM   32  C   UNL     1       3.654  32.307  57.036  1.00  0.00     0.033 C 
ENDBRANCH  24  27
ENDBRANCH  23  24
ENDBRANCH   1  23
TORSDOF 7
ENDMDL
