MODEL 1
REMARK VINA RESULT:     -11.0      0.000      0.000
REMARK  9 active torsions:
REMARK  status: ('A' for Active; 'I' for Inactive)
REMARK    1  A    between atoms: C_6  and  O_7 
REMARK    2  A    between atoms: O_7  and  C_8 
REMARK    3  A    between atoms: C_8  and  C_9 
REMARK       I    between atoms: C_9  and  N_10 
REMARK    4  A    between atoms: N_10  and  C_11 
REMARK    5  A    between atoms: C_11  and  N_12 
REMARK    6  A    between atoms: N_12  and  C_13 
REMARK    7  A    between atoms: C_15  and  O_16 
REMARK    8  A    between atoms: C_17  and  C_18 
REMARK    9  A    between atoms: C_25  and  C_26 
ROOT
HETATM    1  C   UNL     1       6.164  30.193  57.485  1.00  0.00     0.036 A 
HETATM    2  C   UNL     1       5.137  29.259  57.366  1.00  0.00     0.067 A 
HETATM    3  C   UNL     1       5.385  27.982  56.849  1.00  0.00     0.082 A 
HETATM    4  C   UNL     1       6.669  27.591  56.455  1.00  0.00     0.050 A 
HETATM    5  C   UNL     1       7.714  28.509  56.638  1.00  0.00     0.021 A 
HETATM    6  C   UNL     1       7.463  29.792  57.150  1.00  0.00     0.030 A 
ENDROOT
BRANCH   1   7
HETATM    7  N   UNL     1       5.997  31.519  57.945  1.00  0.00    -0.333 N 
HETATM    8  H   UNL     1       6.290  32.240  57.283  1.00  0.00     0.168 HD
BRANCH   7   9
HETATM    9  C   UNL     1       5.417  32.032  59.082  1.00  0.00     0.178 C 
HETATM   10  S   UNL     1       3.911  32.723  59.311  1.00  0.00    -0.040 SA
BRANCH   9  11
HETATM   11  N   UNL     1       6.214  32.001  60.211  1.00  0.00    -0.302 N 
HETATM   12  C   UNL     1       7.559  32.304  60.384  1.00  0.00     0.248 C 
HETATM   13  O   UNL     1       8.314  32.570  59.451  1.00  0.00    -0.271 OA
HETATM   14  H   UNL     1       5.684  31.799  61.048  1.00  0.00     0.171 HD
BRANCH  12  15
HETATM   15  C   UNL     1       8.031  32.192  61.838  1.00  0.00     0.278 C 
BRANCH  15  16
HETATM   16  O   UNL     1       7.001  31.724  62.710  1.00  0.00    -0.342 OA
BRANCH  16  17
HETATM   17  C   UNL     1       6.606  32.601  63.683  1.00  0.00     0.069 A 
HETATM   18  C   UNL     1       5.289  33.056  63.604  1.00  0.00     0.044 A 
HETATM   19  C   UNL     1       4.755  33.894  64.594  1.00  0.00    -0.053 A 
HETATM   20  C   UNL     1       5.580  34.312  65.657  1.00  0.00    -0.056 A 
HETATM   21  C   UNL     1       3.303  34.285  64.522  1.00  0.00     0.049 C 
HETATM   22  C   UNL     1       5.058  35.200  66.752  1.00  0.00     0.049 C 
HETATM   23  C   UNL     1       6.925  33.904  65.681  1.00  0.00     0.010 A 
HETATM   24  C   UNL     1       7.438  33.055  64.698  1.00  0.00     0.037 A 
ENDBRANCH  16  17
ENDBRANCH  15  16
ENDBRANCH  12  15
ENDBRANCH   9  11
ENDBRANCH   7   9
ENDBRANCH   1   7
BRANCH   3  25
HETATM   25  O   UNL     1       4.341  27.098  56.763  1.00  0.00    -0.360 OA
HETATM   26  H   UNL     1       4.635  26.218  57.051  1.00  0.00     0.217 HD
ENDBRANCH   3  25
BRANCH   4  27
HETATM   27  C   UNL     1       6.911  26.289  55.842  1.00  0.00     0.183 A 
HETATM   28  O   UNL     1       7.243  26.290  54.507  1.00  0.00    -0.289 OA
HETATM   29  C   UNL     1       7.439  24.969  54.218  1.00  0.00     0.106 A 
HETATM   30  C   UNL     1       7.192  24.244  55.369  1.00  0.00     0.094 A 
HETATM   31  C   UNL     1       7.821  24.412  53.006  1.00  0.00     0.040 A 
HETATM   32  N   UNL     1       6.844  25.086  56.387  1.00  0.00    -0.221 NA
HETATM   33  C   UNL     1       7.325  22.850  55.341  1.00  0.00     0.042 A 
HETATM   34  C   UNL     1       7.715  22.226  54.138  1.00  0.00    -0.052 A 
HETATM   35  C   UNL     1       7.958  23.015  52.993  1.00  0.00     0.010 A 
BRANCH  34  36
HETATM   36  C   UNL     1       7.873  20.714  54.116  1.00  0.00     0.010 C 
HETATM   37  C   UNL     1       8.746  20.253  52.947  1.00  0.00     0.015 C 
HETATM   38  C   UNL     1       8.415  20.190  55.448  1.00  0.00     0.015 C 
ENDBRANCH  34  36
ENDBRANCH   4  27
TORSDOF 9
ENDMDL
MODEL 2
REMARK VINA RESULT:     -10.9      2.215     12.662
REMARK  9 active torsions:
REMARK  status: ('A' for Active; 'I' for Inactive)
REMARK    1  A    between atoms: C_6  and  O_7 
REMARK    2  A    between atoms: O_7  and  C_8 
REMARK    3  A    between atoms: C_8  and  C_9 
REMARK       I    between atoms: C_9  and  N_10 
REMARK    4  A    between atoms: N_10  and  C_11 
REMARK    5  A    between atoms: C_11  and  N_12 
REMARK    6  A    between atoms: N_12  and  C_13 
REMARK    7  A    between atoms: C_15  and  O_16 
REMARK    8  A    between atoms: C_17  and  C_18 
REMARK    9  A    between atoms: C_25  and  C_26 
ROOT
HETATM    1  C   UNL     1       7.705  30.971  59.079  1.00  0.00     0.036 A 
HETATM    2  C   UNL     1       8.384  30.553  60.222  1.00  0.00     0.067 A 
HETATM    3  C   UNL     1       8.049  31.063  61.481  1.00  0.00     0.082 A 
HETATM    4  C   UNL     1       7.012  31.989  61.641  1.00  0.00     0.050 A 
HETATM    5  C   UNL     1       6.287  32.358  60.499  1.00  0.00     0.021 A 
HETATM    6  C   UNL     1       6.628  31.851  59.235  1.00  0.00     0.030 A 
ENDROOT
BRANCH   1   7
HETATM    7  N   UNL     1       8.010  30.551  57.763  1.00  0.00    -0.333 N 
HETATM    8  H   UNL     1       7.390  30.925  57.042  1.00  0.00     0.168 HD
BRANCH   7   9
HETATM    9  C   UNL     1       9.049  29.809  57.252  1.00  0.00     0.178 C 
HETATM   10  S   UNL     1      10.702  30.048  57.357  1.00  0.00    -0.040 SA
BRANCH   9  11
HETATM   11  N   UNL     1       8.672  28.708  56.507  1.00  0.00    -0.302 N 
HETATM   12  C   UNL     1       8.038  27.531  56.881  1.00  0.00     0.248 C 
HETATM   13  O   UNL     1       7.791  27.241  58.051  1.00  0.00    -0.271 OA
HETATM   14  H   UNL     1       8.825  28.845  55.517  1.00  0.00     0.171 HD
BRANCH  12  15
HETATM   15  C   UNL     1       7.749  26.588  55.707  1.00  0.00     0.278 C 
BRANCH  15  16
HETATM   16  O   UNL     1       7.126  25.372  56.126  1.00  0.00    -0.342 OA
BRANCH  16  17
HETATM   17  C   UNL     1       7.378  24.279  55.345  1.00  0.00     0.069 A 
HETATM   18  C   UNL     1       7.603  23.078  56.020  1.00  0.00     0.044 A 
HETATM   19  C   UNL     1       7.792  21.879  55.315  1.00  0.00    -0.053 A 
HETATM   20  C   UNL     1       7.795  21.905  53.907  1.00  0.00    -0.056 A 
HETATM   21  C   UNL     1       7.935  20.592  56.082  1.00  0.00     0.049 C 
HETATM   22  C   UNL     1       7.980  20.649  53.101  1.00  0.00     0.049 C 
HETATM   23  C   UNL     1       7.641  23.134  53.243  1.00  0.00     0.010 A 
HETATM   24  C   UNL     1       7.436  24.317  53.957  1.00  0.00     0.037 A 
ENDBRANCH  16  17
ENDBRANCH  15  16
ENDBRANCH  12  15
ENDBRANCH   9  11
ENDBRANCH   7   9
ENDBRANCH   1   7
BRANCH   3  25
HETATM   25  O   UNL     1       8.740  30.611  62.574  1.00  0.00    -0.360 OA
HETATM   26  H   UNL     1       8.778  31.310  63.247  1.00  0.00     0.217 HD
ENDBRANCH   3  25
BRANCH   4  27
HETATM   27  C   UNL     1       6.717  32.581  62.942  1.00  0.00     0.183 A 
HETATM   28  O   UNL     1       5.400  32.892  63.192  1.00  0.00    -0.289 OA
HETATM   29  C   UNL     1       5.419  33.388  64.465  1.00  0.00     0.106 A 
HETATM   30  C   UNL     1       6.729  33.377  64.904  1.00  0.00     0.094 A 
HETATM   31  C   UNL     1       4.341  33.828  65.220  1.00  0.00     0.040 A 
HETATM   32  N   UNL     1       7.545  32.879  63.928  1.00  0.00    -0.221 NA
HETATM   33  C   UNL     1       7.023  33.839  66.194  1.00  0.00     0.042 A 
HETATM   34  C   UNL     1       5.968  34.296  67.011  1.00  0.00    -0.052 A 
HETATM   35  C   UNL     1       4.648  34.282  66.513  1.00  0.00     0.010 A 
BRANCH  34  36
HETATM   36  C   UNL     1       6.289  34.782  68.415  1.00  0.00     0.010 C 
HETATM   37  C   UNL     1       5.544  33.972  69.479  1.00  0.00     0.015 C 
HETATM   38  C   UNL     1       7.797  34.777  68.677  1.00  0.00     0.015 C 
ENDBRANCH  34  36
ENDBRANCH   4  27
TORSDOF 9
ENDMDL
MODEL 3
REMARK VINA RESULT:     -10.3      2.231     12.229
REMARK  9 active torsions:
REMARK  status: ('A' for Active; 'I' for Inactive)
REMARK    1  A    between atoms: C_6  and  O_7 
REMARK    2  A    between atoms: O_7  and  C_8 
REMARK    3  A    between atoms: C_8  and  C_9 
REMARK       I    between atoms: C_9  and  N_10 
REMARK    4  A    between atoms: N_10  and  C_11 
REMARK    5  A    between atoms: C_11  and  N_12 
REMARK    6  A    between atoms: N_12  and  C_13 
REMARK    7  A    between atoms: C_15  and  O_16 
REMARK    8  A    between atoms: C_17  and  C_18 
REMARK    9  A    between atoms: C_25  and  C_26 
ROOT
HETATM    1  C   UNL     1       7.721  29.656  57.381  1.00  0.00     0.036 A 
HETATM    2  C   UNL     1       8.476  29.571  58.549  1.00  0.00     0.067 A 
HETATM    3  C   UNL     1       8.169  30.363  59.661  1.00  0.00     0.082 A 
HETATM    4  C   UNL     1       7.087  31.250  59.649  1.00  0.00     0.050 A 
HETATM    5  C   UNL     1       6.289  31.286  58.496  1.00  0.00     0.021 A 
HETATM    6  C   UNL     1       6.601  30.496  57.379  1.00  0.00     0.030 A 
ENDROOT
BRANCH   1   7
HETATM    7  N   UNL     1       7.989  28.936  56.194  1.00  0.00    -0.333 N 
HETATM    8  H   UNL     1       8.765  29.301  55.639  1.00  0.00     0.168 HD
BRANCH   7   9
HETATM    9  C   UNL     1       7.466  27.768  55.689  1.00  0.00     0.178 C 
HETATM   10  S   UNL     1       6.135  27.515  54.706  1.00  0.00    -0.040 SA
BRANCH   9  11
HETATM   11  N   UNL     1       8.123  26.616  56.077  1.00  0.00    -0.302 N 
HETATM   12  C   UNL     1       8.151  25.952  57.296  1.00  0.00     0.248 C 
HETATM   13  O   UNL     1       7.626  26.394  58.317  1.00  0.00    -0.271 OA
HETATM   14  H   UNL     1       8.585  26.160  55.302  1.00  0.00     0.171 HD
BRANCH  12  15
HETATM   15  C   UNL     1       8.971  24.656  57.271  1.00  0.00     0.278 C 
BRANCH  15  16
HETATM   16  O   UNL     1       8.151  23.492  57.388  1.00  0.00    -0.342 OA
BRANCH  16  17
HETATM   17  C   UNL     1       8.135  22.667  56.298  1.00  0.00     0.069 A 
HETATM   18  C   UNL     1       7.924  23.283  55.063  1.00  0.00     0.044 A 
HETATM   19  C   UNL     1       7.968  22.543  53.872  1.00  0.00    -0.053 A 
HETATM   20  C   UNL     1       8.188  21.153  53.936  1.00  0.00    -0.056 A 
HETATM   21  C   UNL     1       7.831  23.261  52.556  1.00  0.00     0.049 C 
HETATM   22  C   UNL     1       8.257  20.313  52.690  1.00  0.00     0.049 C 
HETATM   23  C   UNL     1       8.324  20.537  55.192  1.00  0.00     0.010 A 
HETATM   24  C   UNL     1       8.295  21.289  56.368  1.00  0.00     0.037 A 
ENDBRANCH  16  17
ENDBRANCH  15  16
ENDBRANCH  12  15
ENDBRANCH   9  11
ENDBRANCH   7   9
ENDBRANCH   1   7
BRANCH   3  25
HETATM   25  O   UNL     1       8.937  30.231  60.788  1.00  0.00    -0.360 OA
HETATM   26  H   UNL     1       9.579  29.513  60.662  1.00  0.00     0.217 HD
ENDBRANCH   3  25
BRANCH   4  27
HETATM   27  C   UNL     1       6.818  32.133  60.779  1.00  0.00     0.183 A 
HETATM   28  O   UNL     1       7.495  31.864  61.945  1.00  0.00    -0.289 OA
HETATM   29  C   UNL     1       7.079  32.846  62.799  1.00  0.00     0.106 A 
HETATM   30  C   UNL     1       6.164  33.632  62.124  1.00  0.00     0.094 A 
HETATM   31  C   UNL     1       7.480  33.058  64.110  1.00  0.00     0.040 A 
HETATM   32  N   UNL     1       5.993  33.164  60.852  1.00  0.00    -0.221 NA
HETATM   33  C   UNL     1       5.580  34.722  62.782  1.00  0.00     0.042 A 
HETATM   34  C   UNL     1       5.951  34.991  64.116  1.00  0.00    -0.052 A 
HETATM   35  C   UNL     1       6.893  34.158  64.756  1.00  0.00     0.010 A 
BRANCH  34  36
HETATM   36  C   UNL     1       5.328  36.184  64.822  1.00  0.00     0.010 C 
HETATM   37  C   UNL     1       5.188  37.386  63.886  1.00  0.00     0.015 C 
HETATM   38  C   UNL     1       3.982  35.819  65.454  1.00  0.00     0.015 C 
ENDBRANCH  34  36
ENDBRANCH   4  27
TORSDOF 9
ENDMDL
MODEL 4
REMARK VINA RESULT:     -10.1      1.636      2.065
REMARK  9 active torsions:
REMARK  status: ('A' for Active; 'I' for Inactive)
REMARK    1  A    between atoms: C_6  and  O_7 
REMARK    2  A    between atoms: O_7  and  C_8 
REMARK    3  A    between atoms: C_8  and  C_9 
REMARK       I    between atoms: C_9  and  N_10 
REMARK    4  A    between atoms: N_10  and  C_11 
REMARK    5  A    between atoms: C_11  and  N_12 
REMARK    6  A    between atoms: N_12  and  C_13 
REMARK    7  A    between atoms: C_15  and  O_16 
REMARK    8  A    between atoms: C_17  and  C_18 
REMARK    9  A    between atoms: C_25  and  C_26 
ROOT
HETATM    1  C   UNL     1       6.586  30.007  58.124  1.00  0.00     0.036 A 
HETATM    2  C   UNL     1       7.826  29.373  58.078  1.00  0.00     0.067 A 
HETATM    3  C   UNL     1       7.995  28.179  57.369  1.00  0.00     0.082 A 
HETATM    4  C   UNL     1       6.937  27.591  56.666  1.00  0.00     0.050 A 
HETATM    5  C   UNL     1       5.707  28.265  56.658  1.00  0.00     0.021 A 
HETATM    6  C   UNL     1       5.537  29.460  57.376  1.00  0.00     0.030 A 
ENDROOT
BRANCH   1   7
HETATM    7  N   UNL     1       6.310  31.184  58.856  1.00  0.00    -0.333 N 
HETATM    8  H   UNL     1       5.324  31.450  58.881  1.00  0.00     0.168 HD
BRANCH   7   9
HETATM    9  C   UNL     1       7.108  31.992  59.633  1.00  0.00     0.178 C 
HETATM   10  S   UNL     1       8.772  32.030  59.801  1.00  0.00    -0.040 SA
BRANCH   9  11
HETATM   11  N   UNL     1       6.428  32.899  60.425  1.00  0.00    -0.302 N 
HETATM   12  C   UNL     1       5.132  32.879  60.924  1.00  0.00     0.248 C 
HETATM   13  O   UNL     1       4.306  32.020  60.618  1.00  0.00    -0.271 OA
HETATM   14  H   UNL     1       7.025  33.650  60.744  1.00  0.00     0.171 HD
BRANCH  12  15
HETATM   15  C   UNL     1       4.802  34.075  61.824  1.00  0.00     0.278 C 
BRANCH  15  16
HETATM   16  O   UNL     1       5.962  34.609  62.466  1.00  0.00    -0.342 OA
BRANCH  16  17
HETATM   17  C   UNL     1       5.969  34.534  63.831  1.00  0.00     0.069 A 
HETATM   18  C   UNL     1       4.891  35.130  64.487  1.00  0.00     0.044 A 
HETATM   19  C   UNL     1       4.757  35.042  65.881  1.00  0.00    -0.053 A 
HETATM   20  C   UNL     1       5.752  34.378  66.624  1.00  0.00    -0.056 A 
HETATM   21  C   UNL     1       3.530  35.616  66.538  1.00  0.00     0.049 C 
HETATM   22  C   UNL     1       5.653  34.243  68.119  1.00  0.00     0.049 C 
HETATM   23  C   UNL     1       6.869  33.848  65.956  1.00  0.00     0.010 A 
HETATM   24  C   UNL     1       6.980  33.927  64.567  1.00  0.00     0.037 A 
ENDBRANCH  16  17
ENDBRANCH  15  16
ENDBRANCH  12  15
ENDBRANCH   9  11
ENDBRANCH   7   9
ENDBRANCH   1   7
BRANCH   3  25
HETATM   25  O   UNL     1       9.238  27.603  57.347  1.00  0.00    -0.360 OA
HETATM   26  H   UNL     1       9.183  26.696  57.691  1.00  0.00     0.217 HD
ENDBRANCH   3  25
BRANCH   4  27
HETATM   27  C   UNL     1       7.094  26.305  55.995  1.00  0.00     0.183 A 
HETATM   28  O   UNL     1       7.286  26.341  54.633  1.00  0.00    -0.289 OA
HETATM   29  C   UNL     1       7.430  25.027  54.289  1.00  0.00     0.106 A 
HETATM   30  C   UNL     1       7.292  24.272  55.438  1.00  0.00     0.094 A 
HETATM   31  C   UNL     1       7.676  24.501  53.029  1.00  0.00     0.040 A 
HETATM   32  N   UNL     1       7.065  25.088  56.510  1.00  0.00    -0.221 NA
HETATM   33  C   UNL     1       7.400  22.877  55.358  1.00  0.00     0.042 A 
HETATM   34  C   UNL     1       7.653  22.284  54.103  1.00  0.00    -0.052 A 
HETATM   35  C   UNL     1       7.788  23.103  52.962  1.00  0.00     0.010 A 
BRANCH  34  36
HETATM   36  C   UNL     1       7.785  20.772  54.023  1.00  0.00     0.010 C 
HETATM   37  C   UNL     1       8.426  20.328  52.706  1.00  0.00     0.015 C 
HETATM   38  C   UNL     1       8.552  20.213  55.224  1.00  0.00     0.015 C 
ENDBRANCH  34  36
ENDBRANCH   4  27
TORSDOF 9
ENDMDL
MODEL 5
REMARK VINA RESULT:     -10.1      2.589      3.795
REMARK  9 active torsions:
REMARK  status: ('A' for Active; 'I' for Inactive)
REMARK    1  A    between atoms: C_6  and  O_7 
REMARK    2  A    between atoms: O_7  and  C_8 
REMARK    3  A    between atoms: C_8  and  C_9 
REMARK       I    between atoms: C_9  and  N_10 
REMARK    4  A    between atoms: N_10  and  C_11 
REMARK    5  A    between atoms: C_11  and  N_12 
REMARK    6  A    between atoms: N_12  and  C_13 
REMARK    7  A    between atoms: C_15  and  O_16 
REMARK    8  A    between atoms: C_17  and  C_18 
REMARK    9  A    between atoms: C_25  and  C_26 
ROOT
HETATM    1  C   UNL     1       3.375  30.193  54.893  1.00  0.00     0.036 A 
HETATM    2  C   UNL     1       3.754  29.424  55.991  1.00  0.00     0.067 A 
HETATM    3  C   UNL     1       4.506  28.255  55.823  1.00  0.00     0.082 A 
HETATM    4  C   UNL     1       4.920  27.830  54.556  1.00  0.00     0.050 A 
HETATM    5  C   UNL     1       4.594  28.641  53.459  1.00  0.00     0.021 A 
HETATM    6  C   UNL     1       3.834  29.809  53.628  1.00  0.00     0.030 A 
ENDROOT
BRANCH   1   7
HETATM    7  N   UNL     1       2.574  31.356  54.963  1.00  0.00    -0.333 N 
HETATM    8  H   UNL     1       1.583  31.181  55.143  1.00  0.00     0.168 HD
BRANCH   7   9
HETATM    9  C   UNL     1       2.891  32.694  54.935  1.00  0.00     0.178 C 
HETATM   10  S   UNL     1       2.351  33.913  53.924  1.00  0.00    -0.040 SA
BRANCH   9  11
HETATM   11  N   UNL     1       3.826  33.095  55.871  1.00  0.00    -0.302 N 
HETATM   12  C   UNL     1       3.881  32.895  57.244  1.00  0.00     0.248 C 
HETATM   13  O   UNL     1       2.973  32.371  57.886  1.00  0.00    -0.271 OA
HETATM   14  H   UNL     1       4.630  33.533  55.444  1.00  0.00     0.171 HD
BRANCH  12  15
HETATM   15  C   UNL     1       5.147  33.464  57.897  1.00  0.00     0.278 C 
BRANCH  15  16
HETATM   16  O   UNL     1       6.057  32.440  58.303  1.00  0.00    -0.342 OA
BRANCH  16  17
HETATM   17  C   UNL     1       6.444  32.479  59.614  1.00  0.00     0.069 A 
HETATM   18  C   UNL     1       7.772  32.138  59.875  1.00  0.00     0.044 A 
HETATM   19  C   UNL     1       8.296  32.221  61.174  1.00  0.00    -0.053 A 
HETATM   20  C   UNL     1       7.451  32.616  62.229  1.00  0.00    -0.056 A 
HETATM   21  C   UNL     1       9.757  31.936  61.395  1.00  0.00     0.049 C 
HETATM   22  C   UNL     1       7.963  32.735  63.639  1.00  0.00     0.049 C 
HETATM   23  C   UNL     1       6.098  32.885  61.961  1.00  0.00     0.010 A 
HETATM   24  C   UNL     1       5.595  32.815  60.661  1.00  0.00     0.037 A 
ENDBRANCH  16  17
ENDBRANCH  15  16
ENDBRANCH  12  15
ENDBRANCH   9  11
ENDBRANCH   7   9
ENDBRANCH   1   7
BRANCH   3  25
HETATM   25  O   UNL     1       4.862  27.542  56.938  1.00  0.00    -0.360 OA
HETATM   26  H   UNL     1       4.272  27.773  57.674  1.00  0.00     0.217 HD
ENDBRANCH   3  25
BRANCH   4  27
HETATM   27  C   UNL     1       5.633  26.570  54.374  1.00  0.00     0.183 A 
HETATM   28  O   UNL     1       6.213  26.363  53.144  1.00  0.00    -0.289 OA
HETATM   29  C   UNL     1       6.823  25.147  53.271  1.00  0.00     0.106 A 
HETATM   30  C   UNL     1       6.562  24.675  54.544  1.00  0.00     0.094 A 
HETATM   31  C   UNL     1       7.581  24.475  52.324  1.00  0.00     0.040 A 
HETATM   32  N   UNL     1       5.796  25.575  55.229  1.00  0.00    -0.221 NA
HETATM   33  C   UNL     1       7.081  23.433  54.932  1.00  0.00     0.042 A 
HETATM   34  C   UNL     1       7.863  22.703  54.013  1.00  0.00    -0.052 A 
HETATM   35  C   UNL     1       8.101  23.234  52.728  1.00  0.00     0.010 A 
BRANCH  34  36
HETATM   36  C   UNL     1       8.438  21.363  54.444  1.00  0.00     0.010 C 
HETATM   37  C   UNL     1       7.628  20.739  55.582  1.00  0.00     0.015 C 
HETATM   38  C   UNL     1       8.558  20.399  53.261  1.00  0.00     0.015 C 
ENDBRANCH  34  36
ENDBRANCH   4  27
TORSDOF 9
ENDMDL
MODEL 6
REMARK VINA RESULT:     -10.0      2.197      3.432
REMARK  9 active torsions:
REMARK  status: ('A' for Active; 'I' for Inactive)
REMARK    1  A    between atoms: C_6  and  O_7 
REMARK    2  A    between atoms: O_7  and  C_8 
REMARK    3  A    between atoms: C_8  and  C_9 
REMARK       I    between atoms: C_9  and  N_10 
REMARK    4  A    between atoms: N_10  and  C_11 
REMARK    5  A    between atoms: C_11  and  N_12 
REMARK    6  A    between atoms: N_12  and  C_13 
REMARK    7  A    between atoms: C_15  and  O_16 
REMARK    8  A    between atoms: C_17  and  C_18 
REMARK    9  A    between atoms: C_25  and  C_26 
ROOT
HETATM    1  C   UNL     1       3.922  30.079  56.426  1.00  0.00     0.036 A 
HETATM    2  C   UNL     1       3.561  29.472  55.225  1.00  0.00     0.067 A 
HETATM    3  C   UNL     1       4.152  28.268  54.823  1.00  0.00     0.082 A 
HETATM    4  C   UNL     1       5.106  27.623  55.618  1.00  0.00     0.050 A 
HETATM    5  C   UNL     1       5.419  28.200  56.857  1.00  0.00     0.021 A 
HETATM    6  C   UNL     1       4.831  29.411  57.256  1.00  0.00     0.030 A 
ENDROOT
BRANCH   1   7
HETATM    7  N   UNL     1       3.419  31.317  56.886  1.00  0.00    -0.333 N 
HETATM    8  H   UNL     1       2.418  31.322  57.088  1.00  0.00     0.168 HD
BRANCH   7   9
HETATM    9  C   UNL     1       4.043  32.500  57.212  1.00  0.00     0.178 C 
HETATM   10  S   UNL     1       4.601  33.734  56.230  1.00  0.00    -0.040 SA
BRANCH   9  11
HETATM   11  N   UNL     1       4.273  32.688  58.562  1.00  0.00    -0.302 N 
HETATM   12  C   UNL     1       3.550  33.389  59.518  1.00  0.00     0.248 C 
HETATM   13  O   UNL     1       2.570  34.082  59.249  1.00  0.00    -0.271 OA
HETATM   14  H   UNL     1       5.060  32.148  58.894  1.00  0.00     0.171 HD
BRANCH  12  15
HETATM   15  C   UNL     1       4.139  33.285  60.931  1.00  0.00     0.278 C 
BRANCH  15  16
HETATM   16  O   UNL     1       5.446  33.854  61.018  1.00  0.00    -0.342 OA
BRANCH  16  17
HETATM   17  C   UNL     1       6.444  32.991  61.376  1.00  0.00     0.069 A 
HETATM   18  C   UNL     1       6.850  32.079  60.400  1.00  0.00     0.044 A 
HETATM   19  C   UNL     1       7.919  31.202  60.633  1.00  0.00    -0.053 A 
HETATM   20  C   UNL     1       8.560  31.220  61.887  1.00  0.00    -0.056 A 
HETATM   21  C   UNL     1       8.386  30.301  59.520  1.00  0.00     0.049 C 
HETATM   22  C   UNL     1       9.720  30.311  62.187  1.00  0.00     0.049 C 
HETATM   23  C   UNL     1       8.092  32.093  62.884  1.00  0.00     0.010 A 
HETATM   24  C   UNL     1       7.037  32.973  62.632  1.00  0.00     0.037 A 
ENDBRANCH  16  17
ENDBRANCH  15  16
ENDBRANCH  12  15
ENDBRANCH   9  11
ENDBRANCH   7   9
ENDBRANCH   1   7
BRANCH   3  25
HETATM   25  O   UNL     1       3.752  27.709  53.638  1.00  0.00    -0.360 OA
HETATM   26  H   UNL     1       3.176  26.947  53.816  1.00  0.00     0.217 HD
ENDBRANCH   3  25
BRANCH   4  27
HETATM   27  C   UNL     1       5.779  26.412  55.161  1.00  0.00     0.183 A 
HETATM   28  O   UNL     1       6.244  26.417  53.867  1.00  0.00    -0.289 OA
HETATM   29  C   UNL     1       6.843  25.197  53.730  1.00  0.00     0.106 A 
HETATM   30  C   UNL     1       6.688  24.514  54.922  1.00  0.00     0.094 A 
HETATM   31  C   UNL     1       7.502  24.695  52.617  1.00  0.00     0.040 A 
HETATM   32  N   UNL     1       6.001  25.285  55.816  1.00  0.00    -0.221 NA
HETATM   33  C   UNL     1       7.219  23.223  55.045  1.00  0.00     0.042 A 
HETATM   34  C   UNL     1       7.904  22.660  53.948  1.00  0.00    -0.052 A 
HETATM   35  C   UNL     1       8.036  23.403  52.756  1.00  0.00     0.010 A 
BRANCH  34  36
HETATM   36  C   UNL     1       8.492  21.266  54.092  1.00  0.00     0.010 C 
HETATM   37  C   UNL     1       7.918  20.531  55.305  1.00  0.00     0.015 C 
HETATM   38  C   UNL     1       8.306  20.446  52.813  1.00  0.00     0.015 C 
ENDBRANCH  34  36
ENDBRANCH   4  27
TORSDOF 9
ENDMDL
MODEL 7
REMARK VINA RESULT:      -9.8      1.823      2.156
REMARK  9 active torsions:
REMARK  status: ('A' for Active; 'I' for Inactive)
REMARK    1  A    between atoms: C_6  and  O_7 
REMARK    2  A    between atoms: O_7  and  C_8 
REMARK    3  A    between atoms: C_8  and  C_9 
REMARK       I    between atoms: C_9  and  N_10 
REMARK    4  A    between atoms: N_10  and  C_11 
REMARK    5  A    between atoms: C_11  and  N_12 
REMARK    6  A    between atoms: N_12  and  C_13 
REMARK    7  A    between atoms: C_15  and  O_16 
REMARK    8  A    between atoms: C_17  and  C_18 
REMARK    9  A    between atoms: C_25  and  C_26 
ROOT
HETATM    1  C   UNL     1       4.281  30.282  56.294  1.00  0.00     0.036 A 
HETATM    2  C   UNL     1       3.796  29.601  55.179  1.00  0.00     0.067 A 
HETATM    3  C   UNL     1       4.296  28.340  54.834  1.00  0.00     0.082 A 
HETATM    4  C   UNL     1       5.281  27.711  55.604  1.00  0.00     0.050 A 
HETATM    5  C   UNL     1       5.720  28.368  56.763  1.00  0.00     0.021 A 
HETATM    6  C   UNL     1       5.223  29.635  57.104  1.00  0.00     0.030 A 
ENDROOT
BRANCH   1   7
HETATM    7  N   UNL     1       3.874  31.577  56.687  1.00  0.00    -0.333 N 
HETATM    8  H   UNL     1       2.938  31.625  57.095  1.00  0.00     0.168 HD
BRANCH   7   9
HETATM    9  C   UNL     1       4.540  32.781  56.717  1.00  0.00     0.178 C 
HETATM   10  S   UNL     1       4.986  33.802  55.470  1.00  0.00    -0.040 SA
BRANCH   9  11
HETATM   11  N   UNL     1       4.931  33.202  57.975  1.00  0.00    -0.302 N 
HETATM   12  C   UNL     1       4.227  33.272  59.170  1.00  0.00     0.248 C 
HETATM   13  O   UNL     1       3.023  33.040  59.257  1.00  0.00    -0.271 OA
HETATM   14  H   UNL     1       5.919  33.412  58.017  1.00  0.00     0.171 HD
BRANCH  12  15
HETATM   15  C   UNL     1       5.076  33.748  60.355  1.00  0.00     0.278 C 
BRANCH  15  16
HETATM   16  O   UNL     1       5.521  32.665  61.174  1.00  0.00    -0.342 OA
BRANCH  16  17
HETATM   17  C   UNL     1       5.931  33.006  62.433  1.00  0.00     0.069 A 
HETATM   18  C   UNL     1       4.939  33.464  63.301  1.00  0.00     0.044 A 
HETATM   19  C   UNL     1       5.234  33.764  64.639  1.00  0.00    -0.053 A 
HETATM   20  C   UNL     1       6.561  33.639  65.093  1.00  0.00    -0.056 A 
HETATM   21  C   UNL     1       4.116  34.164  65.566  1.00  0.00     0.049 C 
HETATM   22  C   UNL     1       6.932  33.936  66.520  1.00  0.00     0.049 C 
HETATM   23  C   UNL     1       7.562  33.248  64.187  1.00  0.00     0.010 A 
HETATM   24  C   UNL     1       7.250  32.935  62.863  1.00  0.00     0.037 A 
ENDBRANCH  16  17
ENDBRANCH  15  16
ENDBRANCH  12  15
ENDBRANCH   9  11
ENDBRANCH   7   9
ENDBRANCH   1   7
BRANCH   3  25
HETATM   25  O   UNL     1       3.776  27.710  53.734  1.00  0.00    -0.360 OA
HETATM   26  H   UNL     1       4.294  26.911  53.543  1.00  0.00     0.217 HD
ENDBRANCH   3  25
BRANCH   4  27
HETATM   27  C   UNL     1       5.859  26.434  55.199  1.00  0.00     0.183 A 
HETATM   28  O   UNL     1       6.273  26.333  53.891  1.00  0.00    -0.289 OA
HETATM   29  C   UNL     1       6.788  25.070  53.808  1.00  0.00     0.106 A 
HETATM   30  C   UNL     1       6.636  24.470  55.044  1.00  0.00     0.094 A 
HETATM   31  C   UNL     1       7.372  24.462  52.706  1.00  0.00     0.040 A 
HETATM   32  N   UNL     1       6.034  25.335  55.913  1.00  0.00    -0.221 NA
HETATM   33  C   UNL     1       7.089  23.157  55.227  1.00  0.00     0.042 A 
HETATM   34  C   UNL     1       7.695  22.488  54.144  1.00  0.00    -0.052 A 
HETATM   35  C   UNL     1       7.828  23.149  52.905  1.00  0.00     0.010 A 
BRANCH  34  36
HETATM   36  C   UNL     1       8.200  21.069  54.352  1.00  0.00     0.010 C 
HETATM   37  C   UNL     1       8.613  20.415  53.031  1.00  0.00     0.015 C 
HETATM   38  C   UNL     1       9.343  21.025  55.369  1.00  0.00     0.015 C 
ENDBRANCH  34  36
ENDBRANCH   4  27
TORSDOF 9
ENDMDL
MODEL 8
REMARK VINA RESULT:      -9.7      2.126      2.644
REMARK  9 active torsions:
REMARK  status: ('A' for Active; 'I' for Inactive)
REMARK    1  A    between atoms: C_6  and  O_7 
REMARK    2  A    between atoms: O_7  and  C_8 
REMARK    3  A    between atoms: C_8  and  C_9 
REMARK       I    between atoms: C_9  and  N_10 
REMARK    4  A    between atoms: N_10  and  C_11 
REMARK    5  A    between atoms: C_11  and  N_12 
REMARK    6  A    between atoms: N_12  and  C_13 
REMARK    7  A    between atoms: C_15  and  O_16 
REMARK    8  A    between atoms: C_17  and  C_18 
REMARK    9  A    between atoms: C_25  and  C_26 
ROOT
HETATM    1  C   UNL     1       6.085  30.300  57.480  1.00  0.00     0.036 A 
HETATM    2  C   UNL     1       7.240  29.588  57.793  1.00  0.00     0.067 A 
HETATM    3  C   UNL     1       7.510  28.355  57.188  1.00  0.00     0.082 A 
HETATM    4  C   UNL     1       6.644  27.805  56.236  1.00  0.00     0.050 A 
HETATM    5  C   UNL     1       5.515  28.554  55.873  1.00  0.00     0.021 A 
HETATM    6  C   UNL     1       5.243  29.788  56.485  1.00  0.00     0.030 A 
ENDROOT
BRANCH   1   7
HETATM    7  N   UNL     1       5.706  31.523  58.078  1.00  0.00    -0.333 N 
HETATM    8  H   UNL     1       5.050  32.082  57.529  1.00  0.00     0.168 HD
BRANCH   7   9
HETATM    9  C   UNL     1       5.974  32.065  59.314  1.00  0.00     0.178 C 
HETATM   10  S   UNL     1       7.311  31.890  60.305  1.00  0.00    -0.040 SA
BRANCH   9  11
HETATM   11  N   UNL     1       4.968  32.855  59.839  1.00  0.00    -0.302 N 
HETATM   12  C   UNL     1       3.607  32.621  59.977  1.00  0.00     0.248 C 
HETATM   13  O   UNL     1       3.044  31.628  59.520  1.00  0.00    -0.271 OA
HETATM   14  H   UNL     1       5.327  33.703  60.255  1.00  0.00     0.171 HD
BRANCH  12  15
HETATM   15  C   UNL     1       2.856  33.759  60.679  1.00  0.00     0.278 C 
BRANCH  15  16
HETATM   16  O   UNL     1       3.729  34.812  61.093  1.00  0.00    -0.342 OA
BRANCH  16  17
HETATM   17  C   UNL     1       3.810  35.017  62.443  1.00  0.00     0.069 A 
HETATM   18  C   UNL     1       4.511  36.152  62.852  1.00  0.00     0.044 A 
HETATM   19  C   UNL     1       4.587  36.502  64.209  1.00  0.00    -0.053 A 
HETATM   20  C   UNL     1       3.981  35.666  65.167  1.00  0.00    -0.056 A 
HETATM   21  C   UNL     1       5.270  37.785  64.599  1.00  0.00     0.049 C 
HETATM   22  C   UNL     1       4.020  35.998  66.634  1.00  0.00     0.049 C 
HETATM   23  C   UNL     1       3.343  34.487  64.744  1.00  0.00     0.010 A 
HETATM   24  C   UNL     1       3.260  34.161  63.389  1.00  0.00     0.037 A 
ENDBRANCH  16  17
ENDBRANCH  15  16
ENDBRANCH  12  15
ENDBRANCH   9  11
ENDBRANCH   7   9
ENDBRANCH   1   7
BRANCH   3  25
HETATM   25  O   UNL     1       8.666  27.701  57.524  1.00  0.00    -0.360 OA
HETATM   26  H   UNL     1       8.450  26.882  57.998  1.00  0.00     0.217 HD
ENDBRANCH   3  25
BRANCH   4  27
HETATM   27  C   UNL     1       6.884  26.484  55.665  1.00  0.00     0.183 A 
HETATM   28  O   UNL     1       7.221  26.441  54.332  1.00  0.00    -0.289 OA
HETATM   29  C   UNL     1       7.413  25.110  54.087  1.00  0.00     0.106 A 
HETATM   30  C   UNL     1       7.160  24.424  55.260  1.00  0.00     0.094 A 
HETATM   31  C   UNL     1       7.798  24.514  52.895  1.00  0.00     0.040 A 
HETATM   32  N   UNL     1       6.811  25.299  56.249  1.00  0.00    -0.221 NA
HETATM   33  C   UNL     1       7.289  23.029  55.278  1.00  0.00     0.042 A 
HETATM   34  C   UNL     1       7.681  22.365  54.096  1.00  0.00    -0.052 A 
HETATM   35  C   UNL     1       7.930  23.116  52.928  1.00  0.00     0.010 A 
BRANCH  34  36
HETATM   36  C   UNL     1       7.835  20.853  54.124  1.00  0.00     0.010 C 
HETATM   37  C   UNL     1       8.473  20.325  52.838  1.00  0.00     0.015 C 
HETATM   38  C   UNL     1       8.618  20.393  55.356  1.00  0.00     0.015 C 
ENDBRANCH  34  36
ENDBRANCH   4  27
TORSDOF 9
ENDMDL
MODEL 9
REMARK VINA RESULT:      -9.4      7.576     10.721
REMARK  9 active torsions:
REMARK  status: ('A' for Active; 'I' for Inactive)
REMARK    1  A    between atoms: C_6  and  O_7 
REMARK    2  A    between atoms: O_7  and  C_8 
REMARK    3  A    between atoms: C_8  and  C_9 
REMARK       I    between atoms: C_9  and  N_10 
REMARK    4  A    between atoms: N_10  and  C_11 
REMARK    5  A    between atoms: C_11  and  N_12 
REMARK    6  A    between atoms: N_12  and  C_13 
REMARK    7  A    between atoms: C_15  and  O_16 
REMARK    8  A    between atoms: C_17  and  C_18 
REMARK    9  A    between atoms: C_25  and  C_26 
ROOT
HETATM    1  C   UNL     1       3.136  29.388  51.979  1.00  0.00     0.036 A 
HETATM    2  C   UNL     1       3.337  29.108  53.329  1.00  0.00     0.067 A 
HETATM    3  C   UNL     1       4.144  28.037  53.727  1.00  0.00     0.082 A 
HETATM    4  C   UNL     1       4.793  27.225  52.790  1.00  0.00     0.050 A 
HETATM    5  C   UNL     1       4.643  27.548  51.434  1.00  0.00     0.021 A 
HETATM    6  C   UNL     1       3.828  28.619  51.035  1.00  0.00     0.030 A 
ENDROOT
BRANCH   1   7
HETATM    7  N   UNL     1       2.297  30.414  51.485  1.00  0.00    -0.333 N 
HETATM    8  H   UNL     1       1.298  30.254  51.628  1.00  0.00     0.168 HD
BRANCH   7   9
HETATM    9  C   UNL     1       2.575  31.643  50.934  1.00  0.00     0.178 C 
HETATM   10  S   UNL     1       2.184  33.180  51.467  1.00  0.00    -0.040 SA
BRANCH   9  11
HETATM   11  N   UNL     1       3.260  31.606  49.734  1.00  0.00    -0.302 N 
HETATM   12  C   UNL     1       4.612  31.752  49.453  1.00  0.00     0.248 C 
HETATM   13  O   UNL     1       5.447  32.060  50.303  1.00  0.00    -0.271 OA
HETATM   14  H   UNL     1       2.661  31.349  48.961  1.00  0.00     0.171 HD
BRANCH  12  15
HETATM   15  C   UNL     1       4.953  31.576  47.969  1.00  0.00     0.278 C 
BRANCH  15  16
HETATM   16  O   UNL     1       3.904  30.934  47.242  1.00  0.00    -0.342 OA
BRANCH  16  17
HETATM   17  C   UNL     1       3.818  29.578  47.402  1.00  0.00     0.069 A 
HETATM   18  C   UNL     1       2.530  29.051  47.509  1.00  0.00     0.044 A 
HETATM   19  C   UNL     1       2.323  27.666  47.595  1.00  0.00    -0.053 A 
HETATM   20  C   UNL     1       3.439  26.806  47.615  1.00  0.00    -0.056 A 
HETATM   21  C   UNL     1       0.915  27.134  47.612  1.00  0.00     0.049 C 
HETATM   22  C   UNL     1       3.276  25.313  47.694  1.00  0.00     0.049 C 
HETATM   23  C   UNL     1       4.731  27.358  47.582  1.00  0.00     0.010 A 
HETATM   24  C   UNL     1       4.921  28.738  47.478  1.00  0.00     0.037 A 
ENDBRANCH  16  17
ENDBRANCH  15  16
ENDBRANCH  12  15
ENDBRANCH   9  11
ENDBRANCH   7   9
ENDBRANCH   1   7
BRANCH   3  25
HETATM   25  O   UNL     1       4.317  27.812  55.068  1.00  0.00    -0.360 OA
HETATM   26  H   UNL     1       5.113  28.276  55.375  1.00  0.00     0.217 HD
ENDBRANCH   3  25
BRANCH   4  27
HETATM   27  C   UNL     1       5.568  26.060  53.204  1.00  0.00     0.183 A 
HETATM   28  O   UNL     1       5.756  25.894  54.557  1.00  0.00    -0.289 OA
HETATM   29  C   UNL     1       6.472  24.734  54.648  1.00  0.00     0.106 A 
HETATM   30  C   UNL     1       6.700  24.277  53.363  1.00  0.00     0.094 A 
HETATM   31  C   UNL     1       6.905  24.092  55.799  1.00  0.00     0.040 A 
HETATM   32  N   UNL     1       6.139  25.130  52.456  1.00  0.00    -0.221 NA
HETATM   33  C   UNL     1       7.420  23.090  53.178  1.00  0.00     0.042 A 
HETATM   34  C   UNL     1       7.884  22.389  54.311  1.00  0.00    -0.052 A 
HETATM   35  C   UNL     1       7.619  22.899  55.599  1.00  0.00     0.010 A 
BRANCH  34  36
HETATM   36  C   UNL     1       8.650  21.093  54.105  1.00  0.00     0.010 C 
HETATM   37  C   UNL     1       8.485  20.142  55.293  1.00  0.00     0.015 C 
HETATM   38  C   UNL     1       8.252  20.409  52.794  1.00  0.00     0.015 C 
ENDBRANCH  34  36
ENDBRANCH   4  27
TORSDOF 9
ENDMDL
MODEL 10
REMARK VINA RESULT:      -9.3      2.247      3.171
REMARK  9 active torsions:
REMARK  status: ('A' for Active; 'I' for Inactive)
REMARK    1  A    between atoms: C_6  and  O_7 
REMARK    2  A    between atoms: O_7  and  C_8 
REMARK    3  A    between atoms: C_8  and  C_9 
REMARK       I    between atoms: C_9  and  N_10 
REMARK    4  A    between atoms: N_10  and  C_11 
REMARK    5  A    between atoms: C_11  and  N_12 
REMARK    6  A    between atoms: N_12  and  C_13 
REMARK    7  A    between atoms: C_15  and  O_16 
REMARK    8  A    between atoms: C_17  and  C_18 
REMARK    9  A    between atoms: C_25  and  C_26 
ROOT
HETATM    1  C   UNL     1       4.026  29.993  55.305  1.00  0.00     0.036 A 
HETATM    2  C   UNL     1       4.009  29.052  56.333  1.00  0.00     0.067 A 
HETATM    3  C   UNL     1       4.764  27.878  56.244  1.00  0.00     0.082 A 
HETATM    4  C   UNL     1       5.577  27.616  55.135  1.00  0.00     0.050 A 
HETATM    5  C   UNL     1       5.644  28.593  54.132  1.00  0.00     0.021 A 
HETATM    6  C   UNL     1       4.880  29.768  54.219  1.00  0.00     0.030 A 
ENDROOT
BRANCH   1   7
HETATM    7  N   UNL     1       3.256  31.178  55.285  1.00  0.00    -0.333 N 
HETATM    8  H   UNL     1       2.249  31.032  55.197  1.00  0.00     0.168 HD
BRANCH   7   9
HETATM    9  C   UNL     1       3.596  32.499  55.465  1.00  0.00     0.178 C 
HETATM   10  S   UNL     1       3.295  33.835  54.504  1.00  0.00    -0.040 SA
BRANCH   9  11
HETATM   11  N   UNL     1       4.331  32.765  56.606  1.00  0.00    -0.302 N 
HETATM   12  C   UNL     1       4.106  32.421  57.933  1.00  0.00     0.248 C 
HETATM   13  O   UNL     1       3.078  31.867  58.321  1.00  0.00    -0.271 OA
HETATM   14  H   UNL     1       5.211  33.215  56.398  1.00  0.00     0.171 HD
BRANCH  12  15
HETATM   15  C   UNL     1       5.223  32.872  58.882  1.00  0.00     0.278 C 
BRANCH  15  16
HETATM   16  O   UNL     1       4.777  33.858  59.816  1.00  0.00    -0.342 OA
BRANCH  16  17
HETATM   17  C   UNL     1       5.355  33.803  61.054  1.00  0.00     0.069 A 
HETATM   18  C   UNL     1       6.446  32.943  61.187  1.00  0.00     0.044 A 
HETATM   19  C   UNL     1       7.163  32.870  62.390  1.00  0.00    -0.053 A 
HETATM   20  C   UNL     1       6.744  33.647  63.487  1.00  0.00    -0.056 A 
HETATM   21  C   UNL     1       8.391  32.001  62.461  1.00  0.00     0.049 C 
HETATM   22  C   UNL     1       7.483  33.617  64.796  1.00  0.00     0.049 C 
HETATM   23  C   UNL     1       5.599  34.452  63.359  1.00  0.00     0.010 A 
HETATM   24  C   UNL     1       4.905  34.529  62.149  1.00  0.00     0.037 A 
ENDBRANCH  16  17
ENDBRANCH  15  16
ENDBRANCH  12  15
ENDBRANCH   9  11
ENDBRANCH   7   9
ENDBRANCH   1   7
BRANCH   3  25
HETATM   25  O   UNL     1       4.720  26.992  57.289  1.00  0.00    -0.360 OA
HETATM   26  H   UNL     1       4.790  27.475  58.128  1.00  0.00     0.217 HD
ENDBRANCH   3  25
BRANCH   4  27
HETATM   27  C   UNL     1       6.300  26.355  55.007  1.00  0.00     0.183 A 
HETATM   28  O   UNL     1       7.133  26.014  56.048  1.00  0.00    -0.289 OA
HETATM   29  C   UNL     1       7.641  24.802  55.676  1.00  0.00     0.106 A 
HETATM   30  C   UNL     1       7.119  24.487  54.435  1.00  0.00     0.094 A 
HETATM   31  C   UNL     1       8.518  23.995  56.386  1.00  0.00     0.040 A 
HETATM   32  N   UNL     1       6.284  25.483  54.013  1.00  0.00    -0.221 NA
HETATM   33  C   UNL     1       7.484  23.281  53.825  1.00  0.00     0.042 A 
HETATM   34  C   UNL     1       8.371  22.416  54.500  1.00  0.00    -0.052 A 
HETATM   35  C   UNL     1       8.871  22.785  55.767  1.00  0.00     0.010 A 
BRANCH  34  36
HETATM   36  C   UNL     1       8.753  21.101  53.841  1.00  0.00     0.010 C 
HETATM   37  C   UNL     1       8.864  19.967  54.862  1.00  0.00     0.015 C 
HETATM   38  C   UNL     1       7.780  20.735  52.717  1.00  0.00     0.015 C 
ENDBRANCH  34  36
ENDBRANCH   4  27
TORSDOF 9
ENDMDL
