MODEL 1
REMARK VINA RESULT:      -9.0      0.000      0.000
REMARK  3 active torsions:
REMARK  status: ('A' for Active; 'I' for Inactive)
REMARK    1  A    between atoms: C_3  and  N_4 
REMARK    2  A    between atoms: C_3  and  C_17 
REMARK       I    between atoms: N_4  and  C_5 
REMARK    3  A    between atoms: C_5  and  C_6 
ROOT
HETATM    1  N   UNL     1       7.549  27.348  56.558  1.00  0.00    -0.306 N 
HETATM    2  C   UNL     1       7.658  26.052  57.031  1.00  0.00     0.275 C 
HETATM    3  O   UNL     1       7.726  25.740  58.215  1.00  0.00    -0.266 OA
HETATM    4  H   UNL     1       7.502  27.413  55.547  1.00  0.00     0.170 HD
ENDROOT
BRANCH   2   5
HETATM    5  C   UNL     1       7.691  25.029  55.941  1.00  0.00     0.125 A 
HETATM    6  N   UNL     1       7.788  23.733  56.360  1.00  0.00    -0.243 NA
HETATM    7  C   UNL     1       7.830  22.782  55.411  1.00  0.00     0.068 A 
HETATM    8  C   UNL     1       7.776  23.082  54.030  1.00  0.00    -0.007 A 
HETATM    9  C   UNL     1       7.930  21.449  55.788  1.00  0.00     0.032 A 
HETATM   10  C   UNL     1       7.675  24.426  53.646  1.00  0.00     0.016 A 
HETATM   11  C   UNL     1       7.825  22.049  53.080  1.00  0.00     0.014 A 
HETATM   12  C   UNL     1       7.631  25.421  54.615  1.00  0.00     0.038 A 
HETATM   13  C   UNL     1       7.927  20.720  53.487  1.00  0.00     0.001 A 
HETATM   14  C   UNL     1       7.979  20.419  54.843  1.00  0.00     0.002 A 
ENDBRANCH   2   5
BRANCH   1  15
HETATM   15  C   UNL     1       7.452  28.493  57.305  1.00  0.00     0.133 C 
HETATM   16  N   UNL     1       6.356  28.874  57.862  1.00  0.00    -0.283 NA
HETATM   17  H   UNL     1       5.624  28.178  57.646  1.00  0.00     0.188 HD
BRANCH  15  18
HETATM   18  C   UNL     1       8.654  29.307  57.459  1.00  0.00     0.016 A 
HETATM   19  C   UNL     1       8.680  30.446  58.250  1.00  0.00     0.065 A 
HETATM   20  S   UNL     1      10.197  31.231  58.265  1.00  0.00    -0.113 SA
HETATM   21  C   UNL     1      10.869  30.062  57.220  1.00  0.00     0.050 A 
HETATM   22  C   UNL     1       9.950  29.097  56.866  1.00  0.00     0.023 A 
ENDBRANCH  15  18
ENDBRANCH   1  15
TORSDOF 3
ENDMDL
MODEL 2
REMARK VINA RESULT:      -9.0      1.431      1.527
REMARK  3 active torsions:
REMARK  status: ('A' for Active; 'I' for Inactive)
REMARK    1  A    between atoms: C_3  and  N_4 
REMARK    2  A    between atoms: C_3  and  C_17 
REMARK       I    between atoms: N_4  and  C_5 
REMARK    3  A    between atoms: C_5  and  C_6 
ROOT
HETATM    1  N   UNL     1       7.527  27.370  54.969  1.00  0.00    -0.306 N 
HETATM    2  C   UNL     1       6.603  26.351  55.115  1.00  0.00     0.275 C 
HETATM    3  O   UNL     1       5.522  26.459  55.682  1.00  0.00    -0.266 OA
HETATM    4  H   UNL     1       8.365  27.097  54.468  1.00  0.00     0.170 HD
ENDROOT
BRANCH   2   5
HETATM    5  C   UNL     1       7.049  25.061  54.505  1.00  0.00     0.125 A 
HETATM    6  N   UNL     1       7.123  24.004  55.365  1.00  0.00    -0.243 NA
HETATM    7  C   UNL     1       7.530  22.826  54.859  1.00  0.00     0.068 A 
HETATM    8  C   UNL     1       7.872  22.661  53.497  1.00  0.00    -0.007 A 
HETATM    9  C   UNL     1       7.622  21.722  55.696  1.00  0.00     0.032 A 
HETATM   10  C   UNL     1       7.780  23.774  52.650  1.00  0.00     0.016 A 
HETATM   11  C   UNL     1       8.293  21.409  53.020  1.00  0.00     0.014 A 
HETATM   12  C   UNL     1       7.362  24.998  53.158  1.00  0.00     0.038 A 
HETATM   13  C   UNL     1       8.377  20.318  53.883  1.00  0.00     0.001 A 
HETATM   14  C   UNL     1       8.041  20.474  55.222  1.00  0.00     0.002 A 
ENDBRANCH   2   5
BRANCH   1  15
HETATM   15  C   UNL     1       7.392  28.671  55.379  1.00  0.00     0.133 C 
HETATM   16  N   UNL     1       6.361  29.389  55.099  1.00  0.00    -0.283 NA
HETATM   17  H   UNL     1       5.705  28.813  54.548  1.00  0.00     0.188 HD
BRANCH  15  18
HETATM   18  C   UNL     1       8.479  29.253  56.162  1.00  0.00     0.016 A 
HETATM   19  C   UNL     1       8.297  29.702  57.461  1.00  0.00     0.065 A 
HETATM   20  S   UNL     1       9.714  30.347  58.164  1.00  0.00    -0.113 SA
HETATM   21  C   UNL     1      10.618  30.032  56.752  1.00  0.00     0.050 A 
HETATM   22  C   UNL     1       9.850  29.451  55.766  1.00  0.00     0.023 A 
ENDBRANCH  15  18
ENDBRANCH   1  15
TORSDOF 3
ENDMDL
MODEL 3
REMARK VINA RESULT:      -8.6      1.266      1.984
REMARK  3 active torsions:
REMARK  status: ('A' for Active; 'I' for Inactive)
REMARK    1  A    between atoms: C_3  and  N_4 
REMARK    2  A    between atoms: C_3  and  C_17 
REMARK       I    between atoms: N_4  and  C_5 
REMARK    3  A    between atoms: C_5  and  C_6 
ROOT
HETATM    1  N   UNL     1       7.474  27.013  57.145  1.00  0.00    -0.306 N 
HETATM    2  C   UNL     1       7.143  26.438  55.931  1.00  0.00     0.275 C 
HETATM    3  O   UNL     1       6.573  27.015  55.013  1.00  0.00    -0.266 OA
HETATM    4  H   UNL     1       7.947  26.383  57.784  1.00  0.00     0.170 HD
ENDROOT
BRANCH   2   5
HETATM    5  C   UNL     1       7.549  25.002  55.832  1.00  0.00     0.125 A 
HETATM    6  N   UNL     1       7.430  24.447  54.590  1.00  0.00    -0.243 NA
HETATM    7  C   UNL     1       7.776  23.155  54.458  1.00  0.00     0.068 A 
HETATM    8  C   UNL     1       8.247  22.379  55.542  1.00  0.00    -0.007 A 
HETATM    9  C   UNL     1       7.670  22.546  53.215  1.00  0.00     0.032 A 
HETATM   10  C   UNL     1       8.354  22.991  56.800  1.00  0.00     0.016 A 
HETATM   11  C   UNL     1       8.594  21.032  55.351  1.00  0.00     0.014 A 
HETATM   12  C   UNL     1       8.000  24.326  56.952  1.00  0.00     0.038 A 
HETATM   13  C   UNL     1       8.477  20.447  54.091  1.00  0.00     0.001 A 
HETATM   14  C   UNL     1       8.015  21.204  53.022  1.00  0.00     0.002 A 
ENDBRANCH   2   5
BRANCH   1  15
HETATM   15  C   UNL     1       7.276  28.316  57.521  1.00  0.00     0.133 C 
HETATM   16  N   UNL     1       6.108  28.812  57.738  1.00  0.00    -0.283 NA
HETATM   17  H   UNL     1       5.408  28.068  57.586  1.00  0.00     0.188 HD
BRANCH  15  18
HETATM   18  C   UNL     1       8.454  29.167  57.672  1.00  0.00     0.016 A 
HETATM   19  C   UNL     1       9.610  28.965  56.933  1.00  0.00     0.065 A 
HETATM   20  S   UNL     1      10.851  30.084  57.291  1.00  0.00    -0.113 SA
HETATM   21  C   UNL     1       9.871  30.879  58.439  1.00  0.00     0.050 A 
HETATM   22  C   UNL     1       8.626  30.297  58.547  1.00  0.00     0.023 A 
ENDBRANCH  15  18
ENDBRANCH   1  15
TORSDOF 3
ENDMDL
MODEL 4
REMARK VINA RESULT:      -8.4      2.109      2.552
REMARK  3 active torsions:
REMARK  status: ('A' for Active; 'I' for Inactive)
REMARK    1  A    between atoms: C_3  and  N_4 
REMARK    2  A    between atoms: C_3  and  C_17 
REMARK       I    between atoms: N_4  and  C_5 
REMARK    3  A    between atoms: C_5  and  C_6 
ROOT
HETATM    1  N   UNL     1       7.357  26.993  56.673  1.00  0.00    -0.306 N 
HETATM    2  C   UNL     1       7.843  25.756  57.059  1.00  0.00     0.275 C 
HETATM    3  O   UNL     1       8.248  25.480  58.182  1.00  0.00    -0.266 OA
HETATM    4  H   UNL     1       7.063  27.035  55.704  1.00  0.00     0.170 HD
ENDROOT
BRANCH   2   5
HETATM    5  C   UNL     1       7.837  24.751  55.952  1.00  0.00     0.125 A 
HETATM    6  N   UNL     1       8.111  23.467  56.327  1.00  0.00    -0.243 NA
HETATM    7  C   UNL     1       8.124  22.533  55.361  1.00  0.00     0.068 A 
HETATM    8  C   UNL     1       7.870  22.839  54.004  1.00  0.00    -0.007 A 
HETATM    9  C   UNL     1       8.398  21.213  55.694  1.00  0.00     0.032 A 
HETATM   10  C   UNL     1       7.593  24.170  53.664  1.00  0.00     0.016 A 
HETATM   11  C   UNL     1       7.899  21.825  53.033  1.00  0.00     0.014 A 
HETATM   12  C   UNL     1       7.576  25.147  54.652  1.00  0.00     0.038 A 
HETATM   13  C   UNL     1       8.178  20.509  53.397  1.00  0.00     0.001 A 
HETATM   14  C   UNL     1       8.427  20.202  54.729  1.00  0.00     0.002 A 
ENDBRANCH   2   5
BRANCH   1  15
HETATM   15  C   UNL     1       7.195  28.099  57.466  1.00  0.00     0.133 C 
HETATM   16  N   UNL     1       7.925  28.331  58.500  1.00  0.00    -0.283 NA
HETATM   17  H   UNL     1       8.611  27.565  58.591  1.00  0.00     0.188 HD
BRANCH  15  18
HETATM   18  C   UNL     1       6.138  29.041  57.109  1.00  0.00     0.016 A 
HETATM   19  C   UNL     1       4.905  28.623  56.632  1.00  0.00     0.065 A 
HETATM   20  S   UNL     1       3.839  29.910  56.279  1.00  0.00    -0.113 SA
HETATM   21  C   UNL     1       4.994  31.067  56.766  1.00  0.00     0.050 A 
HETATM   22  C   UNL     1       6.169  30.479  57.185  1.00  0.00     0.023 A 
ENDBRANCH  15  18
ENDBRANCH   1  15
TORSDOF 3
ENDMDL
MODEL 5
REMARK VINA RESULT:      -8.4      4.218      5.686
REMARK  3 active torsions:
REMARK  status: ('A' for Active; 'I' for Inactive)
REMARK    1  A    between atoms: C_3  and  N_4 
REMARK    2  A    between atoms: C_3  and  C_17 
REMARK       I    between atoms: N_4  and  C_5 
REMARK    3  A    between atoms: C_5  and  C_6 
ROOT
HETATM    1  N   UNL     1       6.380  26.668  52.659  1.00  0.00    -0.306 N 
HETATM    2  C   UNL     1       7.198  26.634  53.776  1.00  0.00     0.275 C 
HETATM    3  O   UNL     1       7.737  27.612  54.280  1.00  0.00    -0.266 OA
HETATM    4  H   UNL     1       6.020  25.760  52.387  1.00  0.00     0.170 HD
ENDROOT
BRANCH   2   5
HETATM    5  C   UNL     1       7.378  25.258  54.331  1.00  0.00     0.125 A 
HETATM    6  N   UNL     1       7.556  24.273  53.403  1.00  0.00    -0.243 NA
HETATM    7  C   UNL     1       7.713  23.019  53.859  1.00  0.00     0.068 A 
HETATM    8  C   UNL     1       7.698  22.703  55.238  1.00  0.00    -0.007 A 
HETATM    9  C   UNL     1       7.897  21.983  52.953  1.00  0.00     0.032 A 
HETATM   10  C   UNL     1       7.512  23.747  56.156  1.00  0.00     0.016 A 
HETATM   11  C   UNL     1       7.865  21.375  55.662  1.00  0.00     0.014 A 
HETATM   12  C   UNL     1       7.349  25.049  55.699  1.00  0.00     0.038 A 
HETATM   13  C   UNL     1       8.046  20.356  54.729  1.00  0.00     0.001 A 
HETATM   14  C   UNL     1       8.063  20.659  53.373  1.00  0.00     0.002 A 
ENDBRANCH   2   5
BRANCH   1  15
HETATM   15  C   UNL     1       5.991  27.778  51.955  1.00  0.00     0.133 C 
HETATM   16  N   UNL     1       6.120  28.975  52.409  1.00  0.00    -0.283 NA
HETATM   17  H   UNL     1       6.554  28.922  53.345  1.00  0.00     0.188 HD
BRANCH  15  18
HETATM   18  C   UNL     1       5.400  27.571  50.636  1.00  0.00     0.016 A 
HETATM   19  C   UNL     1       5.283  28.596  49.709  1.00  0.00     0.065 A 
HETATM   20  S   UNL     1       4.554  28.110  48.243  1.00  0.00    -0.113 SA
HETATM   21  C   UNL     1       4.383  26.508  48.802  1.00  0.00     0.050 A 
HETATM   22  C   UNL     1       4.870  26.352  50.082  1.00  0.00     0.023 A 
ENDBRANCH  15  18
ENDBRANCH   1  15
TORSDOF 3
ENDMDL
MODEL 6
REMARK VINA RESULT:      -8.1      3.560      4.224
REMARK  3 active torsions:
REMARK  status: ('A' for Active; 'I' for Inactive)
REMARK    1  A    between atoms: C_3  and  N_4 
REMARK    2  A    between atoms: C_3  and  C_17 
REMARK       I    between atoms: N_4  and  C_5 
REMARK    3  A    between atoms: C_5  and  C_6 
ROOT
HETATM    1  N   UNL     1       5.500  26.434  54.253  1.00  0.00    -0.306 N 
HETATM    2  C   UNL     1       6.575  25.952  54.978  1.00  0.00     0.275 C 
HETATM    3  O   UNL     1       7.082  26.516  55.941  1.00  0.00    -0.266 OA
HETATM    4  H   UNL     1       5.215  25.830  53.490  1.00  0.00     0.170 HD
ENDROOT
BRANCH   2   5
HETATM    5  C   UNL     1       7.088  24.643  54.470  1.00  0.00     0.125 A 
HETATM    6  N   UNL     1       7.250  23.673  55.416  1.00  0.00    -0.243 NA
HETATM    7  C   UNL     1       7.717  22.482  55.003  1.00  0.00     0.068 A 
HETATM    8  C   UNL     1       8.036  22.218  53.651  1.00  0.00    -0.007 A 
HETATM    9  C   UNL     1       7.900  21.464  55.930  1.00  0.00     0.032 A 
HETATM   10  C   UNL     1       7.853  23.244  52.713  1.00  0.00     0.016 A 
HETATM   11  C   UNL     1       8.523  20.956  53.272  1.00  0.00     0.014 A 
HETATM   12  C   UNL     1       7.370  24.480  53.125  1.00  0.00     0.038 A 
HETATM   13  C   UNL     1       8.697  19.954  54.224  1.00  0.00     0.001 A 
HETATM   14  C   UNL     1       8.385  20.207  55.554  1.00  0.00     0.002 A 
ENDBRANCH   2   5
BRANCH   1  15
HETATM   15  C   UNL     1       4.787  27.579  54.497  1.00  0.00     0.133 C 
HETATM   16  N   UNL     1       4.275  27.853  55.645  1.00  0.00    -0.283 NA
HETATM   17  H   UNL     1       4.506  27.085  56.294  1.00  0.00     0.188 HD
BRANCH  15  18
HETATM   18  C   UNL     1       4.606  28.515  53.390  1.00  0.00     0.016 A 
HETATM   19  C   UNL     1       5.514  28.611  52.346  1.00  0.00     0.065 A 
HETATM   20  S   UNL     1       5.088  29.781  51.177  1.00  0.00    -0.113 SA
HETATM   21  C   UNL     1       3.667  30.187  52.029  1.00  0.00     0.050 A 
HETATM   22  C   UNL     1       3.527  29.446  53.183  1.00  0.00     0.023 A 
ENDBRANCH  15  18
ENDBRANCH   1  15
TORSDOF 3
ENDMDL
MODEL 7
REMARK VINA RESULT:      -8.0      2.882      3.527
REMARK  3 active torsions:
REMARK  status: ('A' for Active; 'I' for Inactive)
REMARK    1  A    between atoms: C_3  and  N_4 
REMARK    2  A    between atoms: C_3  and  C_17 
REMARK       I    between atoms: N_4  and  C_5 
REMARK    3  A    between atoms: C_5  and  C_6 
ROOT
HETATM    1  N   UNL     1       7.611  26.724  54.638  1.00  0.00    -0.306 N 
HETATM    2  C   UNL     1       7.240  25.945  53.556  1.00  0.00     0.275 C 
HETATM    3  O   UNL     1       6.733  26.372  52.525  1.00  0.00    -0.266 OA
HETATM    4  H   UNL     1       8.018  26.198  55.403  1.00  0.00     0.170 HD
ENDROOT
BRANCH   2   5
HETATM    5  C   UNL     1       7.515  24.490  53.758  1.00  0.00     0.125 A 
HETATM    6  N   UNL     1       7.733  24.111  55.051  1.00  0.00    -0.243 NA
HETATM    7  C   UNL     1       7.993  22.812  55.276  1.00  0.00     0.068 A 
HETATM    8  C   UNL     1       8.045  21.855  54.236  1.00  0.00    -0.007 A 
HETATM    9  C   UNL     1       8.223  22.379  56.576  1.00  0.00     0.032 A 
HETATM   10  C   UNL     1       7.814  22.289  52.923  1.00  0.00     0.016 A 
HETATM   11  C   UNL     1       8.323  20.509  54.526  1.00  0.00     0.014 A 
HETATM   12  C   UNL     1       7.544  23.629  52.675  1.00  0.00     0.038 A 
HETATM   13  C   UNL     1       8.550  20.104  55.840  1.00  0.00     0.001 A 
HETATM   14  C   UNL     1       8.500  21.040  56.866  1.00  0.00     0.002 A 
ENDBRANCH   2   5
BRANCH   1  15
HETATM   15  C   UNL     1       7.527  28.088  54.739  1.00  0.00     0.133 C 
HETATM   16  N   UNL     1       8.493  28.875  54.414  1.00  0.00    -0.283 NA
HETATM   17  H   UNL     1       9.281  28.298  54.078  1.00  0.00     0.188 HD
BRANCH  15  18
HETATM   18  C   UNL     1       6.281  28.656  55.248  1.00  0.00     0.016 A 
HETATM   19  C   UNL     1       6.146  29.088  56.558  1.00  0.00     0.065 A 
HETATM   20  S   UNL     1       4.594  29.707  56.915  1.00  0.00    -0.113 SA
HETATM   21  C   UNL     1       4.060  29.425  55.320  1.00  0.00     0.050 A 
HETATM   22  C   UNL     1       5.047  28.866  54.536  1.00  0.00     0.023 A 
ENDBRANCH  15  18
ENDBRANCH   1  15
TORSDOF 3
ENDMDL
MODEL 8
REMARK VINA RESULT:      -7.9      3.869      5.905
REMARK  3 active torsions:
REMARK  status: ('A' for Active; 'I' for Inactive)
REMARK    1  A    between atoms: C_3  and  N_4 
REMARK    2  A    between atoms: C_3  and  C_17 
REMARK       I    between atoms: N_4  and  C_5 
REMARK    3  A    between atoms: C_5  and  C_6 
ROOT
HETATM    1  N   UNL     1       7.941  30.652  60.448  1.00  0.00    -0.306 N 
HETATM    2  C   UNL     1       8.221  30.652  59.092  1.00  0.00     0.275 C 
HETATM    3  O   UNL     1       9.019  31.401  58.541  1.00  0.00    -0.266 OA
HETATM    4  H   UNL     1       7.255  29.959  60.725  1.00  0.00     0.170 HD
ENDROOT
BRANCH   2   5
HETATM    5  C   UNL     1       7.439  29.631  58.330  1.00  0.00     0.125 A 
HETATM    6  N   UNL     1       7.977  28.377  58.314  1.00  0.00    -0.243 NA
HETATM    7  C   UNL     1       7.310  27.430  57.632  1.00  0.00     0.068 A 
HETATM    8  C   UNL     1       6.099  27.693  56.951  1.00  0.00    -0.007 A 
HETATM    9  C   UNL     1       7.820  26.139  57.585  1.00  0.00     0.032 A 
HETATM   10  C   UNL     1       5.582  28.996  56.996  1.00  0.00     0.016 A 
HETATM   11  C   UNL     1       5.442  26.668  56.252  1.00  0.00     0.014 A 
HETATM   12  C   UNL     1       6.260  29.986  57.697  1.00  0.00     0.038 A 
HETATM   13  C   UNL     1       5.978  25.381  56.222  1.00  0.00     0.001 A 
HETATM   14  C   UNL     1       7.167  25.116  56.889  1.00  0.00     0.002 A 
ENDBRANCH   2   5
BRANCH   1  15
HETATM   15  C   UNL     1       8.523  31.435  61.410  1.00  0.00     0.133 C 
HETATM   16  N   UNL     1       9.789  31.661  61.457  1.00  0.00    -0.283 NA
HETATM   17  H   UNL     1      10.235  31.168  60.667  1.00  0.00     0.188 HD
BRANCH  15  18
HETATM   18  C   UNL     1       7.652  32.025  62.424  1.00  0.00     0.016 A 
HETATM   19  C   UNL     1       6.269  31.944  62.349  1.00  0.00     0.065 A 
HETATM   20  S   UNL     1       5.470  32.715  63.647  1.00  0.00    -0.113 SA
HETATM   21  C   UNL     1       6.954  33.171  64.354  1.00  0.00     0.050 A 
HETATM   22  C   UNL     1       8.034  32.746  63.611  1.00  0.00     0.023 A 
ENDBRANCH  15  18
ENDBRANCH   1  15
TORSDOF 3
ENDMDL
MODEL 9
REMARK VINA RESULT:      -7.7      3.047      3.872
REMARK  3 active torsions:
REMARK  status: ('A' for Active; 'I' for Inactive)
REMARK    1  A    between atoms: C_3  and  N_4 
REMARK    2  A    between atoms: C_3  and  C_17 
REMARK       I    between atoms: N_4  and  C_5 
REMARK    3  A    between atoms: C_5  and  C_6 
ROOT
HETATM    1  N   UNL     1       7.697  26.554  54.792  1.00  0.00    -0.306 N 
HETATM    2  C   UNL     1       7.507  25.852  55.970  1.00  0.00     0.275 C 
HETATM    3  O   UNL     1       7.118  26.342  57.024  1.00  0.00    -0.266 OA
HETATM    4  H   UNL     1       8.020  25.981  54.020  1.00  0.00     0.170 HD
ENDROOT
BRANCH   2   5
HETATM    5  C   UNL     1       7.829  24.398  55.846  1.00  0.00     0.125 A 
HETATM    6  N   UNL     1       7.810  23.902  54.574  1.00  0.00    -0.243 NA
HETATM    7  C   UNL     1       8.086  22.596  54.419  1.00  0.00     0.068 A 
HETATM    8  C   UNL     1       8.387  21.747  55.509  1.00  0.00    -0.007 A 
HETATM    9  C   UNL     1       8.078  22.045  53.144  1.00  0.00     0.032 A 
HETATM   10  C   UNL     1       8.396  22.299  56.798  1.00  0.00     0.016 A 
HETATM   11  C   UNL     1       8.667  20.388  55.292  1.00  0.00     0.014 A 
HETATM   12  C   UNL     1       8.113  23.648  56.974  1.00  0.00     0.038 A 
HETATM   13  C   UNL     1       8.650  19.863  54.001  1.00  0.00     0.001 A 
HETATM   14  C   UNL     1       8.355  20.692  52.926  1.00  0.00     0.002 A 
ENDBRANCH   2   5
BRANCH   1  15
HETATM   15  C   UNL     1       7.448  27.884  54.575  1.00  0.00     0.133 C 
HETATM   16  N   UNL     1       8.369  28.782  54.604  1.00  0.00    -0.283 NA
HETATM   17  H   UNL     1       9.269  28.316  54.803  1.00  0.00     0.188 HD
BRANCH  15  18
HETATM   18  C   UNL     1       6.068  28.281  54.307  1.00  0.00     0.016 A 
HETATM   19  C   UNL     1       5.551  28.341  53.022  1.00  0.00     0.065 A 
HETATM   20  S   UNL     1       3.918  28.838  52.966  1.00  0.00    -0.113 SA
HETATM   21  C   UNL     1       3.850  28.976  54.665  1.00  0.00     0.050 A 
HETATM   22  C   UNL     1       5.052  28.654  55.258  1.00  0.00     0.023 A 
ENDBRANCH  15  18
ENDBRANCH   1  15
TORSDOF 3
ENDMDL
MODEL 10
REMARK VINA RESULT:      -7.7      2.301      2.695
REMARK  3 active torsions:
REMARK  status: ('A' for Active; 'I' for Inactive)
REMARK    1  A    between atoms: C_3  and  N_4 
REMARK    2  A    between atoms: C_3  and  C_17 
REMARK       I    between atoms: N_4  and  C_5 
REMARK    3  A    between atoms: C_5  and  C_6 
ROOT
HETATM    1  N   UNL     1       6.303  28.392  55.405  1.00  0.00    -0.306 N 
HETATM    2  C   UNL     1       5.376  27.638  54.707  1.00  0.00     0.275 C 
HETATM    3  O   UNL     1       4.227  27.989  54.462  1.00  0.00    -0.266 OA
HETATM    4  H   UNL     1       7.205  27.941  55.509  1.00  0.00     0.170 HD
ENDROOT
BRANCH   2   5
HETATM    5  C   UNL     1       5.910  26.314  54.265  1.00  0.00     0.125 A 
HETATM    6  N   UNL     1       6.894  25.789  55.052  1.00  0.00    -0.243 NA
HETATM    7  C   UNL     1       7.408  24.603  54.685  1.00  0.00     0.068 A 
HETATM    8  C   UNL     1       6.967  23.905  53.537  1.00  0.00    -0.007 A 
HETATM    9  C   UNL     1       8.413  24.030  55.454  1.00  0.00     0.032 A 
HETATM   10  C   UNL     1       5.953  24.480  52.759  1.00  0.00     0.016 A 
HETATM   11  C   UNL     1       7.540  22.668  53.197  1.00  0.00     0.014 A 
HETATM   12  C   UNL     1       5.412  25.706  53.125  1.00  0.00     0.038 A 
HETATM   13  C   UNL     1       8.547  22.118  53.987  1.00  0.00     0.001 A 
HETATM   14  C   UNL     1       8.985  22.799  55.117  1.00  0.00     0.002 A 
ENDBRANCH   2   5
BRANCH   1  15
HETATM   15  C   UNL     1       6.131  29.659  55.900  1.00  0.00     0.133 C 
HETATM   16  N   UNL     1       5.416  30.551  55.307  1.00  0.00    -0.283 NA
HETATM   17  H   UNL     1       5.024  30.133  54.448  1.00  0.00     0.188 HD
BRANCH  15  18
HETATM   18  C   UNL     1       6.802  29.996  57.152  1.00  0.00     0.016 A 
HETATM   19  C   UNL     1       6.473  31.124  57.888  1.00  0.00     0.065 A 
HETATM   20  S   UNL     1       7.401  31.305  59.311  1.00  0.00    -0.113 SA
HETATM   21  C   UNL     1       8.265  29.869  58.989  1.00  0.00     0.050 A 
HETATM   22  C   UNL     1       7.853  29.270  57.818  1.00  0.00     0.023 A 
ENDBRANCH  15  18
ENDBRANCH   1  15
TORSDOF 3
ENDMDL
