MODEL 1
REMARK VINA RESULT:      -8.9      0.000      0.000
REMARK  6 active torsions:
REMARK  status: ('A' for Active; 'I' for Inactive)
REMARK    1  A    between atoms: C_2  and  N_3 
REMARK    2  A    between atoms: N_3  and  C_5 
REMARK    3  A    between atoms: C_5  and  C_6 
REMARK    4  A    between atoms: C_6  and  N_7 
REMARK       I    between atoms: N_7  and  C_8 
REMARK    5  A    between atoms: C_8  and  C_9 
REMARK    6  A    between atoms: C_10  and  C_11 
ROOT
HETATM    1  N   UNL     1       7.356  25.830  55.694  1.00  0.00    -0.354 N 
HETATM    2  C   UNL     1       7.484  26.412  56.943  1.00  0.00     0.255 C 
HETATM    3  O   UNL     1       8.288  25.968  57.756  1.00  0.00    -0.268 OA
HETATM    4  H   UNL     1       6.683  26.215  55.045  1.00  0.00     0.162 HD
ENDROOT
BRANCH   2   5
HETATM    5  C   UNL     1       6.636  27.573  57.183  1.00  0.00     0.080 A 
HETATM    6  C   UNL     1       7.015  28.939  57.423  1.00  0.00     0.104 A 
HETATM    7  N   UNL     1       5.931  29.703  57.642  1.00  0.00    -0.174 NA
HETATM    8  N   UNL     1       4.893  28.875  57.540  1.00  0.00    -0.288 N 
HETATM    9  H   UNL     1       3.963  29.257  57.680  1.00  0.00     0.188 HD
HETATM   10  C   UNL     1       5.252  27.591  57.263  1.00  0.00     0.128 A 
BRANCH   6  11
HETATM   11  C   UNL     1       8.340  29.564  57.455  1.00  0.00    -0.002 A 
HETATM   12  C   UNL     1       8.678  30.515  58.422  1.00  0.00     0.056 A 
HETATM   13  C   UNL     1       9.955  31.068  58.433  1.00  0.00     0.117 A 
HETATM   14  F   UNL     1      10.261  31.987  59.360  1.00  0.00    -0.206 F 
HETATM   15  C   UNL     1      10.920  30.682  57.509  1.00  0.00     0.042 A 
HETATM   16  C   UNL     1      10.602  29.721  56.554  1.00  0.00     0.004 A 
HETATM   17  C   UNL     1       9.321  29.164  56.528  1.00  0.00     0.014 A 
ENDBRANCH   6  11
ENDBRANCH   2   5
BRANCH   1  18
HETATM   18  C   UNL     1       8.099  24.641  55.333  1.00  0.00     0.162 C 
BRANCH  18  19
HETATM   19  C   UNL     1       7.499  23.750  54.196  1.00  0.00     0.143 C 
HETATM   20  C   UNL     1       8.266  23.771  52.854  1.00  0.00     0.041 C 
HETATM   21  C   UNL     1       7.745  24.965  52.061  1.00  0.00     0.003 C 
HETATM   22  C   UNL     1       6.385  25.302  52.654  1.00  0.00     0.003 C 
HETATM   23  C   UNL     1       6.115  24.251  53.728  1.00  0.00     0.041 C 
BRANCH  19  24
HETATM   24  N   UNL     1       7.385  22.260  54.685  1.00  0.00    -0.065 N 
HETATM   25  H   UNL     1       6.380  22.071  54.793  1.00  0.00     0.280 HD
HETATM   26  C   UNL     1       7.856  21.255  53.632  1.00  0.00     0.270 C 
BRANCH  24  27
HETATM   27  C   UNL     1       8.036  21.888  56.012  1.00  0.00     0.231 C 
HETATM   28  C   UNL     1       8.121  20.395  56.241  1.00  0.00     0.034 C 
ENDBRANCH  24  27
ENDBRANCH  19  24
ENDBRANCH  18  19
ENDBRANCH   1  18
TORSDOF 6
ENDMDL
MODEL 2
REMARK VINA RESULT:      -8.8      2.668      6.828
REMARK  6 active torsions:
REMARK  status: ('A' for Active; 'I' for Inactive)
REMARK    1  A    between atoms: C_2  and  N_3 
REMARK    2  A    between atoms: N_3  and  C_5 
REMARK    3  A    between atoms: C_5  and  C_6 
REMARK    4  A    between atoms: C_6  and  N_7 
REMARK       I    between atoms: N_7  and  C_8 
REMARK    5  A    between atoms: C_8  and  C_9 
REMARK    6  A    between atoms: C_10  and  C_11 
ROOT
HETATM    1  N   UNL     1       7.279  25.073  57.271  1.00  0.00    -0.354 N 
HETATM    2  C   UNL     1       8.405  24.315  57.005  1.00  0.00     0.255 C 
HETATM    3  O   UNL     1       9.517  24.719  57.331  1.00  0.00    -0.268 OA
HETATM    4  H   UNL     1       6.375  24.717  56.987  1.00  0.00     0.162 HD
ENDROOT
BRANCH   2   5
HETATM    5  C   UNL     1       8.160  23.032  56.360  1.00  0.00     0.080 A 
HETATM    6  C   UNL     1       7.635  22.761  55.049  1.00  0.00     0.104 A 
HETATM    7  N   UNL     1       7.523  21.438  54.844  1.00  0.00    -0.174 NA
HETATM    8  N   UNL     1       7.963  20.872  55.966  1.00  0.00    -0.288 N 
HETATM    9  H   UNL     1       7.957  19.858  56.024  1.00  0.00     0.188 HD
HETATM   10  C   UNL     1       8.362  21.773  56.906  1.00  0.00     0.128 A 
BRANCH   6  11
HETATM   11  C   UNL     1       7.236  23.679  53.979  1.00  0.00    -0.002 A 
HETATM   12  C   UNL     1       5.970  24.271  53.955  1.00  0.00     0.056 A 
HETATM   13  C   UNL     1       5.637  25.156  52.934  1.00  0.00     0.117 A 
HETATM   14  F   UNL     1       4.415  25.707  52.920  1.00  0.00    -0.206 F 
HETATM   15  C   UNL     1       6.547  25.486  51.936  1.00  0.00     0.042 A 
HETATM   16  C   UNL     1       7.818  24.919  51.960  1.00  0.00     0.004 A 
HETATM   17  C   UNL     1       8.161  24.023  52.976  1.00  0.00     0.014 A 
ENDBRANCH   6  11
ENDBRANCH   2   5
BRANCH   1  18
HETATM   18  C   UNL     1       7.374  26.390  57.864  1.00  0.00     0.162 C 
BRANCH  18  19
HETATM   19  C   UNL     1       7.223  27.613  56.900  1.00  0.00     0.143 C 
HETATM   20  C   UNL     1       6.482  28.837  57.483  1.00  0.00     0.041 C 
HETATM   21  C   UNL     1       4.992  28.603  57.263  1.00  0.00     0.003 C 
HETATM   22  C   UNL     1       4.888  27.579  56.143  1.00  0.00     0.003 C 
HETATM   23  C   UNL     1       6.318  27.296  55.690  1.00  0.00     0.041 C 
BRANCH  19  24
HETATM   24  N   UNL     1       8.638  28.077  56.396  1.00  0.00    -0.065 N 
HETATM   25  H   UNL     1       9.198  27.221  56.287  1.00  0.00     0.280 HD
HETATM   26  C   UNL     1       8.595  28.690  54.995  1.00  0.00     0.270 C 
BRANCH  24  27
HETATM   27  C   UNL     1       9.449  29.008  57.290  1.00  0.00     0.231 C 
HETATM   28  C   UNL     1      10.636  29.632  56.587  1.00  0.00     0.034 C 
ENDBRANCH  24  27
ENDBRANCH  19  24
ENDBRANCH  18  19
ENDBRANCH   1  18
TORSDOF 6
ENDMDL
MODEL 3
REMARK VINA RESULT:      -8.6      4.598      7.531
REMARK  6 active torsions:
REMARK  status: ('A' for Active; 'I' for Inactive)
REMARK    1  A    between atoms: C_2  and  N_3 
REMARK    2  A    between atoms: N_3  and  C_5 
REMARK    3  A    between atoms: C_5  and  C_6 
REMARK    4  A    between atoms: C_6  and  N_7 
REMARK       I    between atoms: N_7  and  C_8 
REMARK    5  A    between atoms: C_8  and  C_9 
REMARK    6  A    between atoms: C_10  and  C_11 
ROOT
HETATM    1  N   UNL     1       5.774  26.414  51.501  1.00  0.00    -0.354 N 
HETATM    2  C   UNL     1       5.501  25.633  52.610  1.00  0.00     0.255 C 
HETATM    3  O   UNL     1       4.668  24.734  52.547  1.00  0.00    -0.268 OA
HETATM    4  H   UNL     1       6.463  27.150  51.584  1.00  0.00     0.162 HD
ENDROOT
BRANCH   2   5
HETATM    5  C   UNL     1       6.282  25.938  53.801  1.00  0.00     0.080 A 
HETATM    6  C   UNL     1       7.104  25.066  54.595  1.00  0.00     0.104 A 
HETATM    7  N   UNL     1       7.628  25.726  55.642  1.00  0.00    -0.174 NA
HETATM    8  N   UNL     1       7.175  26.973  55.531  1.00  0.00    -0.288 N 
HETATM    9  H   UNL     1       7.452  27.647  56.239  1.00  0.00     0.188 HD
HETATM   10  C   UNL     1       6.371  27.161  54.448  1.00  0.00     0.128 A 
BRANCH   6  11
HETATM   11  C   UNL     1       7.427  23.647  54.420  1.00  0.00    -0.002 A 
HETATM   12  C   UNL     1       7.357  22.743  55.484  1.00  0.00     0.056 A 
HETATM   13  C   UNL     1       7.647  21.399  55.272  1.00  0.00     0.117 A 
HETATM   14  F   UNL     1       7.586  20.547  56.305  1.00  0.00    -0.206 F 
HETATM   15  C   UNL     1       7.991  20.922  54.012  1.00  0.00     0.042 A 
HETATM   16  C   UNL     1       8.045  21.808  52.940  1.00  0.00     0.004 A 
HETATM   17  C   UNL     1       7.762  23.162  53.142  1.00  0.00     0.014 A 
ENDBRANCH   6  11
ENDBRANCH   2   5
BRANCH   1  18
HETATM   18  C   UNL     1       5.041  26.256  50.263  1.00  0.00     0.162 C 
BRANCH  18  19
HETATM   19  C   UNL     1       4.262  27.507  49.738  1.00  0.00     0.143 C 
HETATM   20  C   UNL     1       5.036  28.413  48.755  1.00  0.00     0.041 C 
HETATM   21  C   UNL     1       5.849  29.392  49.595  1.00  0.00     0.003 C 
HETATM   22  C   UNL     1       5.183  29.425  50.962  1.00  0.00     0.003 C 
HETATM   23  C   UNL     1       3.957  28.521  50.862  1.00  0.00     0.041 C 
BRANCH  19  24
HETATM   24  N   UNL     1       2.921  27.056  49.053  1.00  0.00    -0.065 N 
HETATM   25  H   UNL     1       2.526  26.320  49.654  1.00  0.00     0.280 HD
HETATM   26  C   UNL     1       1.860  28.158  49.047  1.00  0.00     0.270 C 
BRANCH  24  27
HETATM   27  C   UNL     1       2.993  26.469  47.648  1.00  0.00     0.231 C 
HETATM   28  C   UNL     1       2.957  24.956  47.627  1.00  0.00     0.034 C 
ENDBRANCH  24  27
ENDBRANCH  19  24
ENDBRANCH  18  19
ENDBRANCH   1  18
TORSDOF 6
ENDMDL
MODEL 4
REMARK VINA RESULT:      -8.6      2.696      7.476
REMARK  6 active torsions:
REMARK  status: ('A' for Active; 'I' for Inactive)
REMARK    1  A    between atoms: C_2  and  N_3 
REMARK    2  A    between atoms: N_3  and  C_5 
REMARK    3  A    between atoms: C_5  and  C_6 
REMARK    4  A    between atoms: C_6  and  N_7 
REMARK       I    between atoms: N_7  and  C_8 
REMARK    5  A    between atoms: C_8  and  C_9 
REMARK    6  A    between atoms: C_10  and  C_11 
ROOT
HETATM    1  N   UNL     1       7.505  26.523  55.780  1.00  0.00    -0.354 N 
HETATM    2  C   UNL     1       6.634  25.648  55.156  1.00  0.00     0.255 C 
HETATM    3  O   UNL     1       5.572  25.343  55.690  1.00  0.00    -0.268 OA
HETATM    4  H   UNL     1       8.375  26.753  55.318  1.00  0.00     0.162 HD
ENDROOT
BRANCH   2   5
HETATM    5  C   UNL     1       7.057  25.167  53.848  1.00  0.00     0.080 A 
HETATM    6  C   UNL     1       7.610  23.890  53.486  1.00  0.00     0.104 A 
HETATM    7  N   UNL     1       7.910  23.854  52.176  1.00  0.00    -0.174 NA
HETATM    8  N   UNL     1       7.559  25.049  51.704  1.00  0.00    -0.288 N 
HETATM    9  H   UNL     1       7.711  25.236  50.718  1.00  0.00     0.188 HD
HETATM   10  C   UNL     1       7.039  25.874  52.655  1.00  0.00     0.128 A 
BRANCH   6  11
HETATM   11  C   UNL     1       7.870  22.703  54.305  1.00  0.00    -0.002 A 
HETATM   12  C   UNL     1       8.003  22.785  55.694  1.00  0.00     0.056 A 
HETATM   13  C   UNL     1       8.225  21.631  56.438  1.00  0.00     0.117 A 
HETATM   14  F   UNL     1       8.360  21.727  57.768  1.00  0.00    -0.206 F 
HETATM   15  C   UNL     1       8.301  20.381  55.832  1.00  0.00     0.042 A 
HETATM   16  C   UNL     1       8.151  20.284  54.452  1.00  0.00     0.004 A 
HETATM   17  C   UNL     1       7.935  21.437  53.693  1.00  0.00     0.014 A 
ENDBRANCH   6  11
ENDBRANCH   2   5
BRANCH   1  18
HETATM   18  C   UNL     1       7.238  27.043  57.104  1.00  0.00     0.162 C 
BRANCH  18  19
HETATM   19  C   UNL     1       7.152  28.598  57.250  1.00  0.00     0.143 C 
HETATM   20  C   UNL     1       7.653  29.413  56.036  1.00  0.00     0.041 C 
HETATM   21  C   UNL     1       9.160  29.578  56.201  1.00  0.00     0.003 C 
HETATM   22  C   UNL     1       9.448  29.354  57.678  1.00  0.00     0.003 C 
HETATM   23  C   UNL     1       8.094  29.137  58.348  1.00  0.00     0.041 C 
BRANCH  19  24
HETATM   24  N   UNL     1       5.672  29.027  57.564  1.00  0.00    -0.065 N 
HETATM   25  H   UNL     1       5.439  28.606  58.473  1.00  0.00     0.280 HD
HETATM   26  C   UNL     1       5.528  30.533  57.788  1.00  0.00     0.270 C 
BRANCH  24  27
HETATM   27  C   UNL     1       4.577  28.591  56.597  1.00  0.00     0.231 C 
HETATM   28  C   UNL     1       3.941  29.743  55.850  1.00  0.00     0.034 C 
ENDBRANCH  24  27
ENDBRANCH  19  24
ENDBRANCH  18  19
ENDBRANCH   1  18
TORSDOF 6
ENDMDL
MODEL 5
REMARK VINA RESULT:      -8.6      2.639      3.859
REMARK  6 active torsions:
REMARK  status: ('A' for Active; 'I' for Inactive)
REMARK    1  A    between atoms: C_2  and  N_3 
REMARK    2  A    between atoms: N_3  and  C_5 
REMARK    3  A    between atoms: C_5  and  C_6 
REMARK    4  A    between atoms: C_6  and  N_7 
REMARK       I    between atoms: N_7  and  C_8 
REMARK    5  A    between atoms: C_8  and  C_9 
REMARK    6  A    between atoms: C_10  and  C_11 
ROOT
HETATM    1  N   UNL     1       8.542  27.287  57.211  1.00  0.00    -0.354 N 
HETATM    2  C   UNL     1       8.131  28.562  57.557  1.00  0.00     0.255 C 
HETATM    3  O   UNL     1       6.962  28.775  57.864  1.00  0.00    -0.268 OA
HETATM    4  H   UNL     1       9.511  27.141  56.959  1.00  0.00     0.162 HD
ENDROOT
BRANCH   2   5
HETATM    5  C   UNL     1       9.173  29.580  57.556  1.00  0.00     0.080 A 
HETATM    6  C   UNL     1       9.364  30.683  58.458  1.00  0.00     0.104 A 
HETATM    7  N   UNL     1      10.426  31.421  58.090  1.00  0.00    -0.174 NA
HETATM    8  N   UNL     1      10.909  30.822  57.004  1.00  0.00    -0.288 N 
HETATM    9  H   UNL     1      11.723  31.230  56.555  1.00  0.00     0.188 HD
HETATM   10  C   UNL     1      10.205  29.714  56.640  1.00  0.00     0.128 A 
BRANCH   6  11
HETATM   11  C   UNL     1       8.606  31.077  59.648  1.00  0.00    -0.002 A 
HETATM   12  C   UNL     1       8.963  30.635  60.925  1.00  0.00     0.056 A 
HETATM   13  C   UNL     1       8.232  31.052  62.032  1.00  0.00     0.117 A 
HETATM   14  F   UNL     1       8.580  30.610  63.249  1.00  0.00    -0.206 F 
HETATM   15  C   UNL     1       7.154  31.921  61.904  1.00  0.00     0.042 A 
HETATM   16  C   UNL     1       6.800  32.385  60.640  1.00  0.00     0.004 A 
HETATM   17  C   UNL     1       7.523  31.967  59.520  1.00  0.00     0.014 A 
ENDBRANCH   6  11
ENDBRANCH   2   5
BRANCH   1  18
HETATM   18  C   UNL     1       7.606  26.186  57.122  1.00  0.00     0.162 C 
BRANCH  18  19
HETATM   19  C   UNL     1       7.223  25.698  55.686  1.00  0.00     0.143 C 
HETATM   20  C   UNL     1       7.548  26.678  54.537  1.00  0.00     0.041 C 
HETATM   21  C   UNL     1       6.368  27.636  54.421  1.00  0.00     0.003 C 
HETATM   22  C   UNL     1       5.191  26.936  55.083  1.00  0.00     0.003 C 
HETATM   23  C   UNL     1       5.696  25.558  55.503  1.00  0.00     0.041 C 
BRANCH  19  24
HETATM   24  N   UNL     1       7.921  24.322  55.383  1.00  0.00    -0.065 N 
HETATM   25  H   UNL     1       8.791  24.547  54.880  1.00  0.00     0.280 HD
HETATM   26  C   UNL     1       8.383  23.601  56.650  1.00  0.00     0.270 C 
BRANCH  24  27
HETATM   27  C   UNL     1       7.175  23.314  54.516  1.00  0.00     0.231 C 
HETATM   28  C   UNL     1       7.776  23.146  53.138  1.00  0.00     0.034 C 
ENDBRANCH  24  27
ENDBRANCH  19  24
ENDBRANCH  18  19
ENDBRANCH   1  18
TORSDOF 6
ENDMDL
MODEL 6
REMARK VINA RESULT:      -8.6      3.128      7.235
REMARK  6 active torsions:
REMARK  status: ('A' for Active; 'I' for Inactive)
REMARK    1  A    between atoms: C_2  and  N_3 
REMARK    2  A    between atoms: N_3  and  C_5 
REMARK    3  A    between atoms: C_5  and  C_6 
REMARK    4  A    between atoms: C_6  and  N_7 
REMARK       I    between atoms: N_7  and  C_8 
REMARK    5  A    between atoms: C_8  and  C_9 
REMARK    6  A    between atoms: C_10  and  C_11 
ROOT
HETATM    1  N   UNL     1       6.001  28.730  55.444  1.00  0.00    -0.354 N 
HETATM    2  C   UNL     1       6.536  27.973  54.418  1.00  0.00     0.255 C 
HETATM    3  O   UNL     1       7.668  28.200  54.003  1.00  0.00    -0.268 OA
HETATM    4  H   UNL     1       5.064  28.523  55.763  1.00  0.00     0.162 HD
ENDROOT
BRANCH   2   5
HETATM    5  C   UNL     1       5.682  26.904  53.915  1.00  0.00     0.080 A 
HETATM    6  C   UNL     1       5.811  25.483  54.088  1.00  0.00     0.104 A 
HETATM    7  N   UNL     1       4.837  24.832  53.429  1.00  0.00    -0.174 NA
HETATM    8  N   UNL     1       4.102  25.786  52.860  1.00  0.00    -0.288 N 
HETATM    9  H   UNL     1       3.304  25.503  52.299  1.00  0.00     0.188 HD
HETATM   10  C   UNL     1       4.555  27.044  53.119  1.00  0.00     0.128 A 
BRANCH   6  11
HETATM   11  C   UNL     1       6.798  24.705  54.841  1.00  0.00    -0.002 A 
HETATM   12  C   UNL     1       7.730  23.885  54.198  1.00  0.00     0.056 A 
HETATM   13  C   UNL     1       8.666  23.180  54.948  1.00  0.00     0.117 A 
HETATM   14  F   UNL     1       9.546  22.390  54.318  1.00  0.00    -0.206 F 
HETATM   15  C   UNL     1       8.713  23.285  56.333  1.00  0.00     0.042 A 
HETATM   16  C   UNL     1       7.804  24.114  56.984  1.00  0.00     0.004 A 
HETATM   17  C   UNL     1       6.853  24.821  56.242  1.00  0.00     0.014 A 
ENDBRANCH   6  11
ENDBRANCH   2   5
BRANCH   1  18
HETATM   18  C   UNL     1       6.716  29.855  56.008  1.00  0.00     0.162 C 
BRANCH  18  19
HETATM   19  C   UNL     1       7.365  29.648  57.416  1.00  0.00     0.143 C 
HETATM   20  C   UNL     1       8.840  30.089  57.545  1.00  0.00     0.041 C 
HETATM   21  C   UNL     1       9.699  28.917  57.083  1.00  0.00     0.003 C 
HETATM   22  C   UNL     1       8.818  27.681  57.195  1.00  0.00     0.003 C 
HETATM   23  C   UNL     1       7.493  28.154  57.788  1.00  0.00     0.041 C 
BRANCH  19  24
HETATM   24  N   UNL     1       6.522  30.396  58.512  1.00  0.00    -0.065 N 
HETATM   25  H   UNL     1       6.163  29.667  59.144  1.00  0.00     0.280 HD
HETATM   26  C   UNL     1       7.377  31.294  59.406  1.00  0.00     0.270 C 
BRANCH  24  27
HETATM   27  C   UNL     1       5.310  31.203  58.059  1.00  0.00     0.231 C 
HETATM   28  C   UNL     1       5.363  32.654  58.483  1.00  0.00     0.034 C 
ENDBRANCH  24  27
ENDBRANCH  19  24
ENDBRANCH  18  19
ENDBRANCH   1  18
TORSDOF 6
ENDMDL
MODEL 7
REMARK VINA RESULT:      -8.5      4.376      7.496
REMARK  6 active torsions:
REMARK  status: ('A' for Active; 'I' for Inactive)
REMARK    1  A    between atoms: C_2  and  N_3 
REMARK    2  A    between atoms: N_3  and  C_5 
REMARK    3  A    between atoms: C_5  and  C_6 
REMARK    4  A    between atoms: C_6  and  N_7 
REMARK       I    between atoms: N_7  and  C_8 
REMARK    5  A    between atoms: C_8  and  C_9 
REMARK    6  A    between atoms: C_10  and  C_11 
ROOT
HETATM    1  N   UNL     1       5.988  26.334  51.736  1.00  0.00    -0.354 N 
HETATM    2  C   UNL     1       5.628  25.573  52.834  1.00  0.00     0.255 C 
HETATM    3  O   UNL     1       4.694  24.781  52.762  1.00  0.00    -0.268 OA
HETATM    4  H   UNL     1       6.760  26.981  51.826  1.00  0.00     0.162 HD
ENDROOT
BRANCH   2   5
HETATM    5  C   UNL     1       6.445  25.764  54.025  1.00  0.00     0.080 A 
HETATM    6  C   UNL     1       7.244  24.807  54.740  1.00  0.00     0.104 A 
HETATM    7  N   UNL     1       7.816  25.373  55.817  1.00  0.00    -0.174 NA
HETATM    8  N   UNL     1       7.415  26.642  55.800  1.00  0.00    -0.288 N 
HETATM    9  H   UNL     1       7.734  27.255  56.545  1.00  0.00     0.188 HD
HETATM   10  C   UNL     1       6.599  26.937  54.750  1.00  0.00     0.128 A 
BRANCH   6  11
HETATM   11  C   UNL     1       7.501  23.391  54.464  1.00  0.00    -0.002 A 
HETATM   12  C   UNL     1       7.440  22.425  55.473  1.00  0.00     0.056 A 
HETATM   13  C   UNL     1       7.667  21.087  55.166  1.00  0.00     0.117 A 
HETATM   14  F   UNL     1       7.616  20.174  56.146  1.00  0.00    -0.206 F 
HETATM   15  C   UNL     1       7.938  20.678  53.865  1.00  0.00     0.042 A 
HETATM   16  C   UNL     1       7.983  21.628  52.848  1.00  0.00     0.004 A 
HETATM   17  C   UNL     1       7.763  22.975  53.146  1.00  0.00     0.014 A 
ENDBRANCH   6  11
ENDBRANCH   2   5
BRANCH   1  18
HETATM   18  C   UNL     1       5.236  26.284  50.500  1.00  0.00     0.162 C 
BRANCH  18  19
HETATM   19  C   UNL     1       4.743  27.649  49.916  1.00  0.00     0.143 C 
HETATM   20  C   UNL     1       3.373  27.616  49.204  1.00  0.00     0.041 C 
HETATM   21  C   UNL     1       3.630  27.201  47.759  1.00  0.00     0.003 C 
HETATM   22  C   UNL     1       5.097  27.501  47.491  1.00  0.00     0.003 C 
HETATM   23  C   UNL     1       5.640  28.150  48.762  1.00  0.00     0.041 C 
BRANCH  19  24
HETATM   24  N   UNL     1       4.691  28.732  51.054  1.00  0.00    -0.065 N 
HETATM   25  H   UNL     1       5.375  28.436  51.764  1.00  0.00     0.280 HD
HETATM   26  C   UNL     1       5.187  30.102  50.590  1.00  0.00     0.270 C 
BRANCH  24  27
HETATM   27  C   UNL     1       3.372  28.937  51.790  1.00  0.00     0.231 C 
HETATM   28  C   UNL     1       3.414  28.487  53.234  1.00  0.00     0.034 C 
ENDBRANCH  24  27
ENDBRANCH  19  24
ENDBRANCH  18  19
ENDBRANCH   1  18
TORSDOF 6
ENDMDL
MODEL 8
REMARK VINA RESULT:      -8.4      3.198      7.342
REMARK  6 active torsions:
REMARK  status: ('A' for Active; 'I' for Inactive)
REMARK    1  A    between atoms: C_2  and  N_3 
REMARK    2  A    between atoms: N_3  and  C_5 
REMARK    3  A    between atoms: C_5  and  C_6 
REMARK    4  A    between atoms: C_6  and  N_7 
REMARK       I    between atoms: N_7  and  C_8 
REMARK    5  A    between atoms: C_8  and  C_9 
REMARK    6  A    between atoms: C_10  and  C_11 
ROOT
HETATM    1  N   UNL     1       5.923  28.761  54.639  1.00  0.00    -0.354 N 
HETATM    2  C   UNL     1       6.692  28.093  53.703  1.00  0.00     0.255 C 
HETATM    3  O   UNL     1       7.916  28.097  53.788  1.00  0.00    -0.268 OA
HETATM    4  H   UNL     1       4.916  28.744  54.542  1.00  0.00     0.162 HD
ENDROOT
BRANCH   2   5
HETATM    5  C   UNL     1       5.949  27.387  52.668  1.00  0.00     0.080 A 
HETATM    6  C   UNL     1       5.955  25.987  52.342  1.00  0.00     0.104 A 
HETATM    7  N   UNL     1       5.158  25.739  51.288  1.00  0.00    -0.174 NA
HETATM    8  N   UNL     1       4.648  26.922  50.949  1.00  0.00    -0.288 N 
HETATM    9  H   UNL     1       4.013  26.959  50.158  1.00  0.00     0.188 HD
HETATM   10  C   UNL     1       5.080  27.943  51.740  1.00  0.00     0.128 A 
BRANCH   6  11
HETATM   11  C   UNL     1       6.667  24.870  52.969  1.00  0.00    -0.002 A 
HETATM   12  C   UNL     1       6.432  24.504  54.297  1.00  0.00     0.056 A 
HETATM   13  C   UNL     1       7.111  23.422  54.848  1.00  0.00     0.117 A 
HETATM   14  F   UNL     1       6.883  23.090  56.127  1.00  0.00    -0.206 F 
HETATM   15  C   UNL     1       8.015  22.676  54.100  1.00  0.00     0.042 A 
HETATM   16  C   UNL     1       8.243  23.018  52.770  1.00  0.00     0.004 A 
HETATM   17  C   UNL     1       7.572  24.107  52.208  1.00  0.00     0.014 A 
ENDBRANCH   6  11
ENDBRANCH   2   5
BRANCH   1  18
HETATM   18  C   UNL     1       6.527  29.545  55.695  1.00  0.00     0.162 C 
BRANCH  18  19
HETATM   19  C   UNL     1       6.386  28.996  57.154  1.00  0.00     0.143 C 
HETATM   20  C   UNL     1       7.703  28.565  57.837  1.00  0.00     0.041 C 
HETATM   21  C   UNL     1       7.970  27.123  57.422  1.00  0.00     0.003 C 
HETATM   22  C   UNL     1       6.629  26.560  56.972  1.00  0.00     0.003 C 
HETATM   23  C   UNL     1       5.603  27.666  57.205  1.00  0.00     0.041 C 
BRANCH  19  24
HETATM   24  N   UNL     1       5.676  30.064  58.063  1.00  0.00    -0.065 N 
HETATM   25  H   UNL     1       5.638  29.656  59.008  1.00  0.00     0.280 HD
HETATM   26  C   UNL     1       6.500  31.341  58.229  1.00  0.00     0.270 C 
BRANCH  24  27
HETATM   27  C   UNL     1       4.248  30.469  57.715  1.00  0.00     0.231 C 
HETATM   28  C   UNL     1       3.692  31.545  58.622  1.00  0.00     0.034 C 
ENDBRANCH  24  27
ENDBRANCH  19  24
ENDBRANCH  18  19
ENDBRANCH   1  18
TORSDOF 6
ENDMDL
MODEL 9
REMARK VINA RESULT:      -8.3      2.618      4.666
REMARK  6 active torsions:
REMARK  status: ('A' for Active; 'I' for Inactive)
REMARK    1  A    between atoms: C_2  and  N_3 
REMARK    2  A    between atoms: N_3  and  C_5 
REMARK    3  A    between atoms: C_5  and  C_6 
REMARK    4  A    between atoms: C_6  and  N_7 
REMARK       I    between atoms: N_7  and  C_8 
REMARK    5  A    between atoms: C_8  and  C_9 
REMARK    6  A    between atoms: C_10  and  C_11 
ROOT
HETATM    1  N   UNL     1       8.102  27.794  56.190  1.00  0.00    -0.354 N 
HETATM    2  C   UNL     1       8.345  28.365  57.426  1.00  0.00     0.255 C 
HETATM    3  O   UNL     1       7.765  27.954  58.426  1.00  0.00    -0.268 OA
HETATM    4  H   UNL     1       8.592  28.156  55.383  1.00  0.00     0.162 HD
ENDROOT
BRANCH   2   5
HETATM    5  C   UNL     1       9.336  29.433  57.441  1.00  0.00     0.080 A 
HETATM    6  C   UNL     1       9.414  30.587  58.294  1.00  0.00     0.104 A 
HETATM    7  N   UNL     1      10.463  31.358  57.959  1.00  0.00    -0.174 NA
HETATM    8  N   UNL     1      11.047  30.731  56.940  1.00  0.00    -0.288 N 
HETATM    9  H   UNL     1      11.870  31.157  56.525  1.00  0.00     0.188 HD
HETATM   10  C   UNL     1      10.422  29.573  56.588  1.00  0.00     0.128 A 
BRANCH   6  11
HETATM   11  C   UNL     1       8.559  31.001  59.409  1.00  0.00    -0.002 A 
HETATM   12  C   UNL     1       8.926  30.775  60.739  1.00  0.00     0.056 A 
HETATM   13  C   UNL     1       8.097  31.205  61.770  1.00  0.00     0.117 A 
HETATM   14  F   UNL     1       8.459  30.972  63.039  1.00  0.00    -0.206 F 
HETATM   15  C   UNL     1       6.909  31.879  61.511  1.00  0.00     0.042 A 
HETATM   16  C   UNL     1       6.541  32.128  60.192  1.00  0.00     0.004 A 
HETATM   17  C   UNL     1       7.362  31.694  59.148  1.00  0.00     0.014 A 
ENDBRANCH   6  11
ENDBRANCH   2   5
BRANCH   1  18
HETATM   18  C   UNL     1       7.107  26.757  56.017  1.00  0.00     0.162 C 
BRANCH  18  19
HETATM   19  C   UNL     1       6.282  26.783  54.688  1.00  0.00     0.143 C 
HETATM   20  C   UNL     1       5.543  25.473  54.334  1.00  0.00     0.041 C 
HETATM   21  C   UNL     1       6.535  24.589  53.586  1.00  0.00     0.003 C 
HETATM   22  C   UNL     1       7.612  25.522  53.054  1.00  0.00     0.003 C 
HETATM   23  C   UNL     1       7.181  26.935  53.442  1.00  0.00     0.041 C 
BRANCH  19  24
HETATM   24  N   UNL     1       5.233  27.953  54.730  1.00  0.00    -0.065 N 
HETATM   25  H   UNL     1       5.761  28.817  54.546  1.00  0.00     0.280 HD
HETATM   26  C   UNL     1       4.214  27.875  53.593  1.00  0.00     0.270 C 
BRANCH  24  27
HETATM   27  C   UNL     1       4.469  28.188  56.029  1.00  0.00     0.231 C 
HETATM   28  C   UNL     1       4.815  29.499  56.700  1.00  0.00     0.034 C 
ENDBRANCH  24  27
ENDBRANCH  19  24
ENDBRANCH  18  19
ENDBRANCH   1  18
TORSDOF 6
ENDMDL
MODEL 10
REMARK VINA RESULT:      -8.2      5.183      7.831
REMARK  6 active torsions:
REMARK  status: ('A' for Active; 'I' for Inactive)
REMARK    1  A    between atoms: C_2  and  N_3 
REMARK    2  A    between atoms: N_3  and  C_5 
REMARK    3  A    between atoms: C_5  and  C_6 
REMARK    4  A    between atoms: C_6  and  N_7 
REMARK       I    between atoms: N_7  and  C_8 
REMARK    5  A    between atoms: C_8  and  C_9 
REMARK    6  A    between atoms: C_10  and  C_11 
ROOT
HETATM    1  N   UNL     1       5.440  26.604  50.744  1.00  0.00    -0.354 N 
HETATM    2  C   UNL     1       5.382  26.131  52.043  1.00  0.00     0.255 C 
HETATM    3  O   UNL     1       4.596  25.238  52.344  1.00  0.00    -0.268 OA
HETATM    4  H   UNL     1       6.095  27.342  50.525  1.00  0.00     0.162 HD
ENDROOT
BRANCH   2   5
HETATM    5  C   UNL     1       6.322  26.739  52.975  1.00  0.00     0.080 A 
HETATM    6  C   UNL     1       7.189  26.106  53.931  1.00  0.00     0.104 A 
HETATM    7  N   UNL     1       7.875  27.023  54.634  1.00  0.00    -0.174 NA
HETATM    8  N   UNL     1       7.480  28.200  54.152  1.00  0.00    -0.288 N 
HETATM    9  H   UNL     1       7.880  29.041  54.557  1.00  0.00     0.188 HD
HETATM   10  C   UNL     1       6.557  28.094  53.155  1.00  0.00     0.128 A 
BRANCH   6  11
HETATM   11  C   UNL     1       7.409  24.686  54.217  1.00  0.00    -0.002 A 
HETATM   12  C   UNL     1       7.683  23.767  53.200  1.00  0.00     0.056 A 
HETATM   13  C   UNL     1       7.910  22.431  53.516  1.00  0.00     0.117 A 
HETATM   14  F   UNL     1       8.161  21.560  52.528  1.00  0.00    -0.206 F 
HETATM   15  C   UNL     1       7.890  21.984  54.832  1.00  0.00     0.042 A 
HETATM   16  C   UNL     1       7.638  22.892  55.856  1.00  0.00     0.004 A 
HETATM   17  C   UNL     1       7.401  24.235  55.550  1.00  0.00     0.014 A 
ENDBRANCH   6  11
ENDBRANCH   2   5
BRANCH   1  18
HETATM   18  C   UNL     1       4.532  26.126  49.722  1.00  0.00     0.162 C 
BRANCH  18  19
HETATM   19  C   UNL     1       3.867  27.206  48.807  1.00  0.00     0.143 C 
HETATM   20  C   UNL     1       4.328  27.210  47.332  1.00  0.00     0.041 C 
HETATM   21  C   UNL     1       5.588  28.066  47.261  1.00  0.00     0.003 C 
HETATM   22  C   UNL     1       5.564  28.952  48.497  1.00  0.00     0.003 C 
HETATM   23  C   UNL     1       4.255  28.643  49.219  1.00  0.00     0.041 C 
BRANCH  19  24
HETATM   24  N   UNL     1       2.303  27.050  48.841  1.00  0.00    -0.065 N 
HETATM   25  H   UNL     1       2.100  26.360  49.577  1.00  0.00     0.280 HD
HETATM   26  C   UNL     1       1.591  28.323  49.300  1.00  0.00     0.270 C 
BRANCH  24  27
HETATM   27  C   UNL     1       1.603  26.551  47.582  1.00  0.00     0.231 C 
HETATM   28  C   UNL     1       0.576  27.521  47.041  1.00  0.00     0.034 C 
ENDBRANCH  24  27
ENDBRANCH  19  24
ENDBRANCH  18  19
ENDBRANCH   1  18
TORSDOF 6
ENDMDL
