MODEL 1
REMARK VINA RESULT:     -10.3      0.000      0.000
REMARK  5 active torsions:
REMARK  status: ('A' for Active; 'I' for Inactive)
REMARK    1  A    between atoms: C_6  and  N_7 
REMARK       I    between atoms: N_7  and  C_8 
REMARK       I    between atoms: C_8  and  N_9 
REMARK    2  A    between atoms: N_9  and  N_10 
REMARK       I    between atoms: N_10  and  C_11 
REMARK    3  A    between atoms: C_11  and  C_12 
REMARK    4  A    between atoms: C_12  and  N_13 
REMARK       I    between atoms: N_13  and  C_14 
REMARK       I    between atoms: C_14  and  N_15 
REMARK    5  A    between atoms: N_15  and  C_16 
ROOT
HETATM    1  N   UNL     1       7.685  29.917  59.015  1.00  0.00    -0.265 N 
HETATM    2  C   UNL     1       7.927  28.981  58.022  1.00  0.00     0.253 C 
HETATM    3  O   UNL     1       8.969  28.969  57.363  1.00  0.00    -0.270 OA
HETATM    4  H   UNL     1       6.698  30.149  59.178  1.00  0.00     0.190 HD
ENDROOT
BRANCH   2   5
HETATM    5  C   UNL     1       6.743  28.085  57.631  1.00  0.00     0.228 C 
BRANCH   5   6
HETATM    6  N   UNL     1       6.742  27.413  56.337  1.00  0.00    -0.334 N 
HETATM    7  C   UNL     1       7.261  26.148  56.206  1.00  0.00     0.321 C 
HETATM    8  N   UNL     1       6.779  25.497  55.096  1.00  0.00    -0.309 N 
HETATM    9  O   UNL     1       8.076  25.717  57.013  1.00  0.00    -0.247 OA
HETATM   10  H   UNL     1       5.938  25.876  54.685  1.00  0.00     0.170 HD
HETATM   11  H   UNL     1       5.986  27.666  55.718  1.00  0.00     0.164 HD
BRANCH   8  12
HETATM   12  C   UNL     1       7.183  24.231  54.623  1.00  0.00     0.038 A 
HETATM   13  C   UNL     1       7.230  23.085  55.423  1.00  0.00     0.055 A 
HETATM   14  C   UNL     1       7.655  21.860  54.890  1.00  0.00     0.058 A 
HETATM   15 CL   UNL     1       7.705  20.497  55.950  1.00  0.00    -0.082 Cl
HETATM   16  C   UNL     1       8.032  21.774  53.547  1.00  0.00     0.055 A 
HETATM   17 CL   UNL     1       8.557  20.299  52.819  1.00  0.00    -0.083 Cl
HETATM   18  C   UNL     1       7.993  22.916  52.745  1.00  0.00     0.028 A 
HETATM   19  C   UNL     1       7.580  24.140  53.283  1.00  0.00     0.031 A 
ENDBRANCH   8  12
ENDBRANCH   5   6
ENDBRANCH   2   5
BRANCH   1  20
HETATM   20  N   UNL     1       8.556  31.027  59.040  1.00  0.00    -0.249 N 
HETATM   21  C   UNL     1       8.559  31.967  60.047  1.00  0.00     0.339 C 
HETATM   22  N   UNL     1       7.515  31.837  60.928  1.00  0.00    -0.308 N 
HETATM   23  O   UNL     1       9.448  32.812  60.078  1.00  0.00    -0.245 OA
HETATM   24  H   UNL     1       6.976  30.995  60.783  1.00  0.00     0.170 HD
HETATM   25  H   UNL     1       9.420  30.955  58.506  1.00  0.00     0.192 HD
BRANCH  22  26
HETATM   26  C   UNL     1       7.211  32.648  62.037  1.00  0.00     0.038 A 
HETATM   27  C   UNL     1       6.305  33.712  61.995  1.00  0.00     0.053 A 
HETATM   28  C   UNL     1       6.061  34.468  63.143  1.00  0.00     0.036 A 
HETATM   29  C   UNL     1       6.713  34.179  64.339  1.00  0.00     0.024 A 
HETATM   30 CL   UNL     1       4.939  35.775  63.085  1.00  0.00    -0.084 Cl
HETATM   31  C   UNL     1       7.613  33.118  64.391  1.00  0.00     0.004 A 
HETATM   32  C   UNL     1       7.857  32.354  63.245  1.00  0.00     0.029 A 
ENDBRANCH  22  26
ENDBRANCH   1  20
TORSDOF 5
ENDMDL
MODEL 2
REMARK VINA RESULT:     -10.1      1.529     11.613
REMARK  5 active torsions:
REMARK  status: ('A' for Active; 'I' for Inactive)
REMARK    1  A    between atoms: C_6  and  N_7 
REMARK       I    between atoms: N_7  and  C_8 
REMARK       I    between atoms: C_8  and  N_9 
REMARK    2  A    between atoms: N_9  and  N_10 
REMARK       I    between atoms: N_10  and  C_11 
REMARK    3  A    between atoms: C_11  and  C_12 
REMARK    4  A    between atoms: C_12  and  N_13 
REMARK       I    between atoms: N_13  and  C_14 
REMARK       I    between atoms: C_14  and  N_15 
REMARK    5  A    between atoms: N_15  and  C_16 
ROOT
HETATM    1  N   UNL     1       7.540  28.237  56.293  1.00  0.00    -0.265 N 
HETATM    2  C   UNL     1       7.196  29.015  57.387  1.00  0.00     0.253 C 
HETATM    3  O   UNL     1       6.027  29.178  57.743  1.00  0.00    -0.270 OA
HETATM    4  H   UNL     1       8.404  28.506  55.808  1.00  0.00     0.190 HD
ENDROOT
BRANCH   2   5
HETATM    5  C   UNL     1       8.329  29.842  58.013  1.00  0.00     0.228 C 
BRANCH   5   6
HETATM    6  N   UNL     1       8.399  29.990  59.463  1.00  0.00    -0.334 N 
HETATM    7  C   UNL     1       7.829  31.077  60.083  1.00  0.00     0.321 C 
HETATM    8  N   UNL     1       7.572  30.844  61.412  1.00  0.00    -0.309 N 
HETATM    9  O   UNL     1       7.621  32.114  59.465  1.00  0.00    -0.247 OA
HETATM   10  H   UNL     1       7.559  29.877  61.703  1.00  0.00     0.170 HD
HETATM   11  H   UNL     1       8.430  29.128  59.985  1.00  0.00     0.164 HD
BRANCH   8  12
HETATM   12  C   UNL     1       7.085  31.780  62.349  1.00  0.00     0.038 A 
HETATM   13  C   UNL     1       5.768  32.246  62.364  1.00  0.00     0.055 A 
HETATM   14  C   UNL     1       5.354  33.187  63.317  1.00  0.00     0.058 A 
HETATM   15 CL   UNL     1       3.715  33.729  63.254  1.00  0.00    -0.082 Cl
HETATM   16  C   UNL     1       6.261  33.665  64.268  1.00  0.00     0.055 A 
HETATM   17 CL   UNL     1       5.823  34.817  65.476  1.00  0.00    -0.083 Cl
HETATM   18  C   UNL     1       7.580  33.207  64.254  1.00  0.00     0.028 A 
HETATM   19  C   UNL     1       7.992  32.277  63.294  1.00  0.00     0.031 A 
ENDBRANCH   8  12
ENDBRANCH   5   6
ENDBRANCH   2   5
BRANCH   1  20
HETATM   20  N   UNL     1       6.478  27.878  55.436  1.00  0.00    -0.249 N 
HETATM   21  C   UNL     1       6.330  26.619  54.896  1.00  0.00     0.339 C 
HETATM   22  N   UNL     1       7.407  25.795  55.112  1.00  0.00    -0.308 N 
HETATM   23  O   UNL     1       5.301  26.341  54.290  1.00  0.00    -0.245 OA
HETATM   24  H   UNL     1       8.088  26.191  55.744  1.00  0.00     0.170 HD
HETATM   25  H   UNL     1       5.627  28.434  55.487  1.00  0.00     0.192 HD
BRANCH  22  26
HETATM   26  C   UNL     1       7.587  24.472  54.669  1.00  0.00     0.038 A 
HETATM   27  C   UNL     1       7.512  23.357  55.508  1.00  0.00     0.053 A 
HETATM   28  C   UNL     1       7.704  22.075  54.988  1.00  0.00     0.036 A 
HETATM   29  C   UNL     1       7.975  21.889  53.634  1.00  0.00     0.024 A 
HETATM   30 CL   UNL     1       7.604  20.705  56.027  1.00  0.00    -0.084 Cl
HETATM   31  C   UNL     1       8.048  22.995  52.791  1.00  0.00     0.004 A 
HETATM   32  C   UNL     1       7.850  24.279  53.306  1.00  0.00     0.029 A 
ENDBRANCH  22  26
ENDBRANCH   1  20
TORSDOF 5
ENDMDL
MODEL 3
REMARK VINA RESULT:      -9.8      1.883      1.966
REMARK  5 active torsions:
REMARK  status: ('A' for Active; 'I' for Inactive)
REMARK    1  A    between atoms: C_6  and  N_7 
REMARK       I    between atoms: N_7  and  C_8 
REMARK       I    between atoms: C_8  and  N_9 
REMARK    2  A    between atoms: N_9  and  N_10 
REMARK       I    between atoms: N_10  and  C_11 
REMARK    3  A    between atoms: C_11  and  C_12 
REMARK    4  A    between atoms: C_12  and  N_13 
REMARK       I    between atoms: N_13  and  C_14 
REMARK       I    between atoms: C_14  and  N_15 
REMARK    5  A    between atoms: N_15  and  C_16 
ROOT
HETATM    1  N   UNL     1       5.766  30.268  58.290  1.00  0.00    -0.265 N 
HETATM    2  C   UNL     1       5.367  29.615  57.134  1.00  0.00     0.253 C 
HETATM    3  O   UNL     1       4.917  30.216  56.156  1.00  0.00    -0.270 OA
HETATM    4  H   UNL     1       5.685  29.727  59.159  1.00  0.00     0.190 HD
ENDROOT
BRANCH   2   5
HETATM    5  C   UNL     1       5.311  28.082  57.206  1.00  0.00     0.228 C 
BRANCH   5   6
HETATM    6  N   UNL     1       6.461  27.297  56.772  1.00  0.00    -0.334 N 
HETATM    7  C   UNL     1       6.292  26.029  56.268  1.00  0.00     0.321 C 
HETATM    8  N   UNL     1       7.356  25.627  55.499  1.00  0.00    -0.309 N 
HETATM    9  O   UNL     1       5.288  25.378  56.533  1.00  0.00    -0.247 OA
HETATM   10  H   UNL     1       7.971  26.356  55.168  1.00  0.00     0.170 HD
HETATM   11  H   UNL     1       7.242  27.830  56.421  1.00  0.00     0.164 HD
BRANCH   8  12
HETATM   12  C   UNL     1       7.539  24.353  54.920  1.00  0.00     0.038 A 
HETATM   13  C   UNL     1       7.517  23.161  55.650  1.00  0.00     0.055 A 
HETATM   14  C   UNL     1       7.720  21.930  55.012  1.00  0.00     0.058 A 
HETATM   15 CL   UNL     1       7.699  20.504  55.989  1.00  0.00    -0.082 Cl
HETATM   16  C   UNL     1       7.941  21.884  53.632  1.00  0.00     0.055 A 
HETATM   17 CL   UNL     1       8.190  20.406  52.776  1.00  0.00    -0.083 Cl
HETATM   18  C   UNL     1       7.970  23.072  52.899  1.00  0.00     0.028 A 
HETATM   19  C   UNL     1       7.780  24.300  53.541  1.00  0.00     0.031 A 
ENDBRANCH   8  12
ENDBRANCH   5   6
ENDBRANCH   2   5
BRANCH   1  20
HETATM   20  N   UNL     1       5.365  31.617  58.404  1.00  0.00    -0.249 N 
HETATM   21  C   UNL     1       5.610  32.389  59.518  1.00  0.00     0.339 C 
HETATM   22  N   UNL     1       6.111  31.682  60.582  1.00  0.00    -0.308 N 
HETATM   23  O   UNL     1       5.370  33.591  59.481  1.00  0.00    -0.245 OA
HETATM   24  H   UNL     1       6.347  30.728  60.348  1.00  0.00     0.170 HD
HETATM   25  H   UNL     1       5.205  32.131  57.541  1.00  0.00     0.192 HD
BRANCH  22  26
HETATM   26  C   UNL     1       6.434  32.161  61.865  1.00  0.00     0.038 A 
HETATM   27  C   UNL     1       5.480  32.559  62.807  1.00  0.00     0.053 A 
HETATM   28  C   UNL     1       5.886  33.023  64.060  1.00  0.00     0.036 A 
HETATM   29  C   UNL     1       7.237  33.099  64.388  1.00  0.00     0.024 A 
HETATM   30 CL   UNL     1       4.705  33.507  65.217  1.00  0.00    -0.084 Cl
HETATM   31  C   UNL     1       8.193  32.701  63.457  1.00  0.00     0.004 A 
HETATM   32  C   UNL     1       7.791  32.230  62.204  1.00  0.00     0.029 A 
ENDBRANCH  22  26
ENDBRANCH   1  20
TORSDOF 5
ENDMDL
MODEL 4
REMARK VINA RESULT:      -9.3      2.718      3.396
REMARK  5 active torsions:
REMARK  status: ('A' for Active; 'I' for Inactive)
REMARK    1  A    between atoms: C_6  and  N_7 
REMARK       I    between atoms: N_7  and  C_8 
REMARK       I    between atoms: C_8  and  N_9 
REMARK    2  A    between atoms: N_9  and  N_10 
REMARK       I    between atoms: N_10  and  C_11 
REMARK    3  A    between atoms: C_11  and  C_12 
REMARK    4  A    between atoms: C_12  and  N_13 
REMARK       I    between atoms: N_13  and  C_14 
REMARK       I    between atoms: C_14  and  N_15 
REMARK    5  A    between atoms: N_15  and  C_16 
ROOT
HETATM    1  N   UNL     1       4.860  29.774  56.632  1.00  0.00    -0.265 N 
HETATM    2  C   UNL     1       4.184  29.658  55.428  1.00  0.00     0.253 C 
HETATM    3  O   UNL     1       3.376  30.504  55.037  1.00  0.00    -0.270 OA
HETATM    4  H   UNL     1       5.126  28.890  57.081  1.00  0.00     0.190 HD
ENDROOT
BRANCH   2   5
HETATM    5  C   UNL     1       4.327  28.315  54.696  1.00  0.00     0.228 C 
BRANCH   5   6
HETATM    6  N   UNL     1       5.111  27.244  55.301  1.00  0.00    -0.334 N 
HETATM    7  C   UNL     1       5.430  26.118  54.580  1.00  0.00     0.321 C 
HETATM    8  N   UNL     1       6.516  25.456  55.098  1.00  0.00    -0.309 N 
HETATM    9  O   UNL     1       4.764  25.788  53.605  1.00  0.00    -0.247 OA
HETATM   10  H   UNL     1       7.101  25.982  55.731  1.00  0.00     0.170 HD
HETATM   11  H   UNL     1       5.765  27.534  56.012  1.00  0.00     0.164 HD
BRANCH   8  12
HETATM   12  C   UNL     1       7.036  24.222  54.655  1.00  0.00     0.038 A 
HETATM   13  C   UNL     1       7.131  23.086  55.464  1.00  0.00     0.055 A 
HETATM   14  C   UNL     1       7.672  21.895  54.962  1.00  0.00     0.058 A 
HETATM   15 CL   UNL     1       7.774  20.543  56.033  1.00  0.00    -0.082 Cl
HETATM   16  C   UNL     1       8.116  21.831  53.638  1.00  0.00     0.055 A 
HETATM   17 CL   UNL     1       8.785  20.398  52.947  1.00  0.00    -0.083 Cl
HETATM   18  C   UNL     1       8.029  22.964  52.827  1.00  0.00     0.028 A 
HETATM   19  C   UNL     1       7.501  24.155  53.335  1.00  0.00     0.031 A 
ENDBRANCH   8  12
ENDBRANCH   5   6
ENDBRANCH   2   5
BRANCH   1  20
HETATM   20  N   UNL     1       4.368  30.754  57.521  1.00  0.00    -0.249 N 
HETATM   21  C   UNL     1       5.157  31.407  58.442  1.00  0.00     0.339 C 
HETATM   22  N   UNL     1       6.423  30.889  58.552  1.00  0.00    -0.308 N 
HETATM   23  O   UNL     1       4.692  32.353  59.069  1.00  0.00    -0.245 OA
HETATM   24  H   UNL     1       6.629  30.193  57.849  1.00  0.00     0.170 HD
HETATM   25  H   UNL     1       3.513  31.238  57.257  1.00  0.00     0.192 HD
BRANCH  22  26
HETATM   26  C   UNL     1       7.456  31.300  59.415  1.00  0.00     0.038 A 
HETATM   27  C   UNL     1       7.261  31.605  60.766  1.00  0.00     0.053 A 
HETATM   28  C   UNL     1       8.341  32.007  61.555  1.00  0.00     0.036 A 
HETATM   29  C   UNL     1       9.619  32.110  61.013  1.00  0.00     0.024 A 
HETATM   30 CL   UNL     1       8.094  32.376  63.220  1.00  0.00    -0.084 Cl
HETATM   31  C   UNL     1       9.823  31.803  59.670  1.00  0.00     0.004 A 
HETATM   32  C   UNL     1       8.745  31.396  58.877  1.00  0.00     0.029 A 
ENDBRANCH  22  26
ENDBRANCH   1  20
TORSDOF 5
ENDMDL
MODEL 5
REMARK VINA RESULT:      -9.2      6.387      9.357
REMARK  5 active torsions:
REMARK  status: ('A' for Active; 'I' for Inactive)
REMARK    1  A    between atoms: C_6  and  N_7 
REMARK       I    between atoms: N_7  and  C_8 
REMARK       I    between atoms: C_8  and  N_9 
REMARK    2  A    between atoms: N_9  and  N_10 
REMARK       I    between atoms: N_10  and  C_11 
REMARK    3  A    between atoms: C_11  and  C_12 
REMARK    4  A    between atoms: C_12  and  N_13 
REMARK       I    between atoms: N_13  and  C_14 
REMARK       I    between atoms: C_14  and  N_15 
REMARK    5  A    between atoms: N_15  and  C_16 
ROOT
HETATM    1  N   UNL     1       4.792  28.814  53.813  1.00  0.00    -0.265 N 
HETATM    2  C   UNL     1       5.289  28.849  55.106  1.00  0.00     0.253 C 
HETATM    3  O   UNL     1       6.279  29.516  55.418  1.00  0.00    -0.270 OA
HETATM    4  H   UNL     1       4.308  27.948  53.545  1.00  0.00     0.190 HD
ENDROOT
BRANCH   2   5
HETATM    5  C   UNL     1       4.676  27.847  56.096  1.00  0.00     0.228 C 
BRANCH   5   6
HETATM    6  N   UNL     1       5.409  26.635  56.443  1.00  0.00    -0.334 N 
HETATM    7  C   UNL     1       5.662  25.675  55.492  1.00  0.00     0.321 C 
HETATM    8  N   UNL     1       6.717  24.865  55.836  1.00  0.00    -0.309 N 
HETATM    9  O   UNL     1       4.971  25.594  54.483  1.00  0.00    -0.247 OA
HETATM   10  H   UNL     1       7.334  25.214  56.554  1.00  0.00     0.170 HD
HETATM   11  H   UNL     1       6.083  26.734  57.186  1.00  0.00     0.164 HD
BRANCH   8  12
HETATM   12  C   UNL     1       7.168  23.730  55.129  1.00  0.00     0.038 A 
HETATM   13  C   UNL     1       7.482  22.513  55.739  1.00  0.00     0.055 A 
HETATM   14  C   UNL     1       7.938  21.429  54.977  1.00  0.00     0.058 A 
HETATM   15 CL   UNL     1       8.325  19.965  55.810  1.00  0.00    -0.082 Cl
HETATM   16  C   UNL     1       8.077  21.556  53.591  1.00  0.00     0.055 A 
HETATM   17 CL   UNL     1       8.624  20.264  52.587  1.00  0.00    -0.083 Cl
HETATM   18  C   UNL     1       7.771  22.772  52.977  1.00  0.00     0.028 A 
HETATM   19  C   UNL     1       7.328  23.856  53.743  1.00  0.00     0.031 A 
ENDBRANCH   8  12
ENDBRANCH   5   6
ENDBRANCH   2   5
BRANCH   1  20
HETATM   20  N   UNL     1       5.637  29.343  52.814  1.00  0.00    -0.249 N 
HETATM   21  C   UNL     1       5.426  29.158  51.466  1.00  0.00     0.339 C 
HETATM   22  N   UNL     1       4.430  28.259  51.180  1.00  0.00    -0.308 N 
HETATM   23  O   UNL     1       6.112  29.777  50.659  1.00  0.00    -0.245 OA
HETATM   24  H   UNL     1       3.914  27.965  51.998  1.00  0.00     0.170 HD
HETATM   25  H   UNL     1       6.204  30.150  53.062  1.00  0.00     0.192 HD
BRANCH  22  26
HETATM   26  C   UNL     1       3.992  27.824  49.916  1.00  0.00     0.038 A 
HETATM   27  C   UNL     1       2.893  28.371  49.246  1.00  0.00     0.053 A 
HETATM   28  C   UNL     1       2.523  27.882  47.991  1.00  0.00     0.036 A 
HETATM   29  C   UNL     1       3.237  26.846  47.393  1.00  0.00     0.024 A 
HETATM   30 CL   UNL     1       1.172  28.564  47.170  1.00  0.00    -0.084 Cl
HETATM   31  C   UNL     1       4.335  26.298  48.051  1.00  0.00     0.004 A 
HETATM   32  C   UNL     1       4.712  26.790  49.305  1.00  0.00     0.029 A 
ENDBRANCH  22  26
ENDBRANCH   1  20
TORSDOF 5
ENDMDL
MODEL 6
REMARK VINA RESULT:      -9.2      5.389      6.586
REMARK  5 active torsions:
REMARK  status: ('A' for Active; 'I' for Inactive)
REMARK    1  A    between atoms: C_6  and  N_7 
REMARK       I    between atoms: N_7  and  C_8 
REMARK       I    between atoms: C_8  and  N_9 
REMARK    2  A    between atoms: N_9  and  N_10 
REMARK       I    between atoms: N_10  and  C_11 
REMARK    3  A    between atoms: C_11  and  C_12 
REMARK    4  A    between atoms: C_12  and  N_13 
REMARK       I    between atoms: N_13  and  C_14 
REMARK       I    between atoms: C_14  and  N_15 
REMARK    5  A    between atoms: N_15  and  C_16 
ROOT
HETATM    1  N   UNL     1       4.461  29.789  52.156  1.00  0.00    -0.265 N 
HETATM    2  C   UNL     1       3.602  28.954  51.459  1.00  0.00     0.253 C 
HETATM    3  O   UNL     1       2.415  28.821  51.763  1.00  0.00    -0.270 OA
HETATM    4  H   UNL     1       5.451  29.514  52.153  1.00  0.00     0.190 HD
ENDROOT
BRANCH   2   5
HETATM    5  C   UNL     1       4.251  28.034  50.414  1.00  0.00     0.228 C 
BRANCH   5   6
HETATM    6  N   UNL     1       4.589  26.661  50.771  1.00  0.00    -0.334 N 
HETATM    7  C   UNL     1       5.457  26.401  51.805  1.00  0.00     0.321 C 
HETATM    8  N   UNL     1       5.310  25.130  52.304  1.00  0.00    -0.309 N 
HETATM    9  O   UNL     1       6.263  27.248  52.175  1.00  0.00    -0.247 OA
HETATM   10  H   UNL     1       4.449  24.656  52.074  1.00  0.00     0.170 HD
HETATM   11  H   UNL     1       3.869  25.978  50.594  1.00  0.00     0.164 HD
BRANCH   8  12
HETATM   12  C   UNL     1       6.108  24.520  53.295  1.00  0.00     0.038 A 
HETATM   13  C   UNL     1       7.098  23.574  53.017  1.00  0.00     0.055 A 
HETATM   14  C   UNL     1       7.846  22.998  54.053  1.00  0.00     0.058 A 
HETATM   15 CL   UNL     1       9.037  21.820  53.627  1.00  0.00    -0.082 Cl
HETATM   16  C   UNL     1       7.609  23.372  55.379  1.00  0.00     0.055 A 
HETATM   17 CL   UNL     1       8.494  22.712  56.706  1.00  0.00    -0.083 Cl
HETATM   18  C   UNL     1       6.617  24.312  55.663  1.00  0.00     0.028 A 
HETATM   19  C   UNL     1       5.864  24.875  54.628  1.00  0.00     0.031 A 
ENDBRANCH   8  12
ENDBRANCH   5   6
ENDBRANCH   2   5
BRANCH   1  20
HETATM   20  N   UNL     1       3.990  30.255  53.402  1.00  0.00    -0.249 N 
HETATM   21  C   UNL     1       4.667  30.071  54.587  1.00  0.00     0.339 C 
HETATM   22  N   UNL     1       5.747  29.231  54.482  1.00  0.00    -0.308 N 
HETATM   23  O   UNL     1       4.272  30.639  55.599  1.00  0.00    -0.245 OA
HETATM   24  H   UNL     1       5.961  28.978  53.527  1.00  0.00     0.170 HD
HETATM   25  H   UNL     1       3.329  31.029  53.391  1.00  0.00     0.192 HD
BRANCH  22  26
HETATM   26  C   UNL     1       6.621  28.812  55.502  1.00  0.00     0.038 A 
HETATM   27  C   UNL     1       7.958  29.210  55.589  1.00  0.00     0.053 A 
HETATM   28  C   UNL     1       8.759  28.747  56.635  1.00  0.00     0.036 A 
HETATM   29  C   UNL     1       8.243  27.886  57.600  1.00  0.00     0.024 A 
HETATM   30 CL   UNL     1      10.405  29.247  56.739  1.00  0.00    -0.084 Cl
HETATM   31  C   UNL     1       6.911  27.488  57.522  1.00  0.00     0.004 A 
HETATM   32  C   UNL     1       6.104  27.953  56.480  1.00  0.00     0.029 A 
ENDBRANCH  22  26
ENDBRANCH   1  20
TORSDOF 5
ENDMDL
MODEL 7
REMARK VINA RESULT:      -9.1      2.294     11.759
REMARK  5 active torsions:
REMARK  status: ('A' for Active; 'I' for Inactive)
REMARK    1  A    between atoms: C_6  and  N_7 
REMARK       I    between atoms: N_7  and  C_8 
REMARK       I    between atoms: C_8  and  N_9 
REMARK    2  A    between atoms: N_9  and  N_10 
REMARK       I    between atoms: N_10  and  C_11 
REMARK    3  A    between atoms: C_11  and  C_12 
REMARK    4  A    between atoms: C_12  and  N_13 
REMARK       I    between atoms: N_13  and  C_14 
REMARK       I    between atoms: C_14  and  N_15 
REMARK    5  A    between atoms: N_15  and  C_16 
ROOT
HETATM    1  N   UNL     1       5.514  27.750  55.598  1.00  0.00    -0.265 N 
HETATM    2  C   UNL     1       5.002  28.999  55.912  1.00  0.00     0.253 C 
HETATM    3  O   UNL     1       3.951  29.425  55.429  1.00  0.00    -0.270 OA
HETATM    4  H   UNL     1       6.535  27.659  55.652  1.00  0.00     0.190 HD
ENDROOT
BRANCH   2   5
HETATM    5  C   UNL     1       5.918  29.920  56.732  1.00  0.00     0.228 C 
BRANCH   5   6
HETATM    6  N   UNL     1       5.630  30.156  58.142  1.00  0.00    -0.334 N 
HETATM    7  C   UNL     1       6.009  31.332  58.745  1.00  0.00     0.321 C 
HETATM    8  N   UNL     1       5.283  31.592  59.882  1.00  0.00    -0.309 N 
HETATM    9  O   UNL     1       6.915  32.012  58.280  1.00  0.00    -0.247 OA
HETATM   10  H   UNL     1       4.417  31.084  59.987  1.00  0.00     0.170 HD
HETATM   11  H   UNL     1       4.800  29.705  58.495  1.00  0.00     0.164 HD
BRANCH   8  12
HETATM   12  C   UNL     1       5.488  32.660  60.782  1.00  0.00     0.038 A 
HETATM   13  C   UNL     1       6.335  32.585  61.891  1.00  0.00     0.055 A 
HETATM   14  C   UNL     1       6.481  33.682  62.752  1.00  0.00     0.058 A 
HETATM   15 CL   UNL     1       7.530  33.501  64.113  1.00  0.00    -0.082 Cl
HETATM   16  C   UNL     1       5.782  34.866  62.503  1.00  0.00     0.055 A 
HETATM   17 CL   UNL     1       5.918  36.259  63.513  1.00  0.00    -0.083 Cl
HETATM   18  C   UNL     1       4.930  34.944  61.399  1.00  0.00     0.028 A 
HETATM   19  C   UNL     1       4.777  33.844  60.550  1.00  0.00     0.031 A 
ENDBRANCH   8  12
ENDBRANCH   5   6
ENDBRANCH   2   5
BRANCH   1  20
HETATM   20  N   UNL     1       4.931  27.110  54.482  1.00  0.00    -0.249 N 
HETATM   21  C   UNL     1       5.278  25.843  54.068  1.00  0.00     0.339 C 
HETATM   22  N   UNL     1       6.372  25.328  54.717  1.00  0.00    -0.308 N 
HETATM   23  O   UNL     1       4.619  25.296  53.190  1.00  0.00    -0.245 OA
HETATM   24  H   UNL     1       6.679  25.901  55.491  1.00  0.00     0.170 HD
HETATM   25  H   UNL     1       4.011  27.430  54.188  1.00  0.00     0.192 HD
BRANCH  22  26
HETATM   26  C   UNL     1       6.998  24.086  54.509  1.00  0.00     0.038 A 
HETATM   27  C   UNL     1       7.202  23.142  55.520  1.00  0.00     0.053 A 
HETATM   28  C   UNL     1       7.833  21.930  55.229  1.00  0.00     0.036 A 
HETATM   29  C   UNL     1       8.269  21.647  53.936  1.00  0.00     0.024 A 
HETATM   30 CL   UNL     1       8.075  20.769  56.478  1.00  0.00    -0.084 Cl
HETATM   31  C   UNL     1       8.067  22.581  52.923  1.00  0.00     0.004 A 
HETATM   32  C   UNL     1       7.430  23.792  53.209  1.00  0.00     0.029 A 
ENDBRANCH  22  26
ENDBRANCH   1  20
TORSDOF 5
ENDMDL
MODEL 8
REMARK VINA RESULT:      -9.0      1.570     11.803
REMARK  5 active torsions:
REMARK  status: ('A' for Active; 'I' for Inactive)
REMARK    1  A    between atoms: C_6  and  N_7 
REMARK       I    between atoms: N_7  and  C_8 
REMARK       I    between atoms: C_8  and  N_9 
REMARK    2  A    between atoms: N_9  and  N_10 
REMARK       I    between atoms: N_10  and  C_11 
REMARK    3  A    between atoms: C_11  and  C_12 
REMARK    4  A    between atoms: C_12  and  N_13 
REMARK       I    between atoms: N_13  and  C_14 
REMARK       I    between atoms: C_14  and  N_15 
REMARK    5  A    between atoms: N_15  and  C_16 
ROOT
HETATM    1  N   UNL     1       7.127  27.914  57.289  1.00  0.00    -0.265 N 
HETATM    2  C   UNL     1       7.612  29.148  57.693  1.00  0.00     0.253 C 
HETATM    3  O   UNL     1       8.677  29.275  58.301  1.00  0.00    -0.270 OA
HETATM    4  H   UNL     1       6.105  27.836  57.222  1.00  0.00     0.190 HD
ENDROOT
BRANCH   2   5
HETATM    5  C   UNL     1       6.654  30.338  57.534  1.00  0.00     0.228 C 
BRANCH   5   6
HETATM    6  N   UNL     1       5.868  30.789  58.676  1.00  0.00    -0.334 N 
HETATM    7  C   UNL     1       6.272  31.874  59.418  1.00  0.00     0.321 C 
HETATM    8  N   UNL     1       5.237  32.439  60.123  1.00  0.00    -0.309 N 
HETATM    9  O   UNL     1       7.444  32.230  59.421  1.00  0.00    -0.247 OA
HETATM   10  H   UNL     1       4.305  32.199  59.819  1.00  0.00     0.170 HD
HETATM   11  H   UNL     1       4.875  30.620  58.613  1.00  0.00     0.164 HD
BRANCH   8  12
HETATM   12  C   UNL     1       5.334  33.498  61.050  1.00  0.00     0.038 A 
HETATM   13  C   UNL     1       6.017  33.403  62.266  1.00  0.00     0.055 A 
HETATM   14  C   UNL     1       6.061  34.492  63.147  1.00  0.00     0.058 A 
HETATM   15 CL   UNL     1       6.908  34.286  64.639  1.00  0.00    -0.082 Cl
HETATM   16  C   UNL     1       5.424  35.691  62.811  1.00  0.00     0.055 A 
HETATM   17 CL   UNL     1       5.443  37.076  63.840  1.00  0.00    -0.083 Cl
HETATM   18  C   UNL     1       4.735  35.789  61.601  1.00  0.00     0.028 A 
HETATM   19  C   UNL     1       4.682  34.696  60.730  1.00  0.00     0.031 A 
ENDBRANCH   8  12
ENDBRANCH   5   6
ENDBRANCH   2   5
BRANCH   1  20
HETATM   20  N   UNL     1       7.761  26.788  57.858  1.00  0.00    -0.249 N 
HETATM   21  C   UNL     1       8.070  25.650  57.146  1.00  0.00     0.339 C 
HETATM   22  N   UNL     1       7.540  25.629  55.880  1.00  0.00    -0.308 N 
HETATM   23  O   UNL     1       8.758  24.781  57.671  1.00  0.00    -0.245 OA
HETATM   24  H   UNL     1       7.114  26.506  55.615  1.00  0.00     0.170 HD
HETATM   25  H   UNL     1       8.308  26.937  58.703  1.00  0.00     0.192 HD
BRANCH  22  26
HETATM   26  C   UNL     1       7.639  24.609  54.917  1.00  0.00     0.038 A 
HETATM   27  C   UNL     1       7.631  23.246  55.228  1.00  0.00     0.053 A 
HETATM   28  C   UNL     1       7.734  22.295  54.210  1.00  0.00     0.036 A 
HETATM   29  C   UNL     1       7.848  22.687  52.879  1.00  0.00     0.024 A 
HETATM   30 CL   UNL     1       7.717  20.617  54.601  1.00  0.00    -0.084 Cl
HETATM   31  C   UNL     1       7.853  24.042  52.560  1.00  0.00     0.004 A 
HETATM   32  C   UNL     1       7.744  24.997  53.575  1.00  0.00     0.029 A 
ENDBRANCH  22  26
ENDBRANCH   1  20
TORSDOF 5
ENDMDL
MODEL 9
REMARK VINA RESULT:      -9.0      6.247      7.787
REMARK  5 active torsions:
REMARK  status: ('A' for Active; 'I' for Inactive)
REMARK    1  A    between atoms: C_6  and  N_7 
REMARK       I    between atoms: N_7  and  C_8 
REMARK       I    between atoms: C_8  and  N_9 
REMARK    2  A    between atoms: N_9  and  N_10 
REMARK       I    between atoms: N_10  and  C_11 
REMARK    3  A    between atoms: C_11  and  C_12 
REMARK    4  A    between atoms: C_12  and  N_13 
REMARK       I    between atoms: N_13  and  C_14 
REMARK       I    between atoms: C_14  and  N_15 
REMARK    5  A    between atoms: N_15  and  C_16 
ROOT
HETATM    1  N   UNL     1       4.380  29.150  49.752  1.00  0.00    -0.265 N 
HETATM    2  C   UNL     1       3.380  28.262  49.387  1.00  0.00     0.253 C 
HETATM    3  O   UNL     1       2.191  28.460  49.645  1.00  0.00    -0.270 OA
HETATM    4  H   UNL     1       5.305  28.736  49.920  1.00  0.00     0.190 HD
ENDROOT
BRANCH   2   5
HETATM    5  C   UNL     1       3.846  26.908  48.831  1.00  0.00     0.228 C 
BRANCH   5   6
HETATM    6  N   UNL     1       4.093  25.799  49.744  1.00  0.00    -0.334 N 
HETATM    7  C   UNL     1       5.003  25.924  50.766  1.00  0.00     0.321 C 
HETATM    8  N   UNL     1       4.785  25.016  51.774  1.00  0.00    -0.309 N 
HETATM    9  O   UNL     1       5.898  26.760  50.711  1.00  0.00    -0.247 OA
HETATM   10  H   UNL     1       3.875  24.580  51.795  1.00  0.00     0.170 HD
HETATM   11  H   UNL     1       3.309  25.183  49.900  1.00  0.00     0.164 HD
BRANCH   8  12
HETATM   12  C   UNL     1       5.594  24.817  52.913  1.00  0.00     0.038 A 
HETATM   13  C   UNL     1       5.173  25.086  54.218  1.00  0.00     0.055 A 
HETATM   14  C   UNL     1       6.035  24.876  55.303  1.00  0.00     0.058 A 
HETATM   15 CL   UNL     1       5.446  25.254  56.883  1.00  0.00    -0.082 Cl
HETATM   16  C   UNL     1       7.327  24.388  55.088  1.00  0.00     0.055 A 
HETATM   17 CL   UNL     1       8.441  24.097  56.374  1.00  0.00    -0.083 Cl
HETATM   18  C   UNL     1       7.755  24.123  53.785  1.00  0.00     0.028 A 
HETATM   19  C   UNL     1       6.897  24.346  52.703  1.00  0.00     0.031 A 
ENDBRANCH   8  12
ENDBRANCH   5   6
ENDBRANCH   2   5
BRANCH   1  20
HETATM   20  N   UNL     1       4.009  30.145  50.682  1.00  0.00    -0.249 N 
HETATM   21  C   UNL     1       4.495  30.198  51.970  1.00  0.00     0.339 C 
HETATM   22  N   UNL     1       5.226  29.094  52.332  1.00  0.00    -0.308 N 
HETATM   23  O   UNL     1       4.249  31.178  52.666  1.00  0.00    -0.245 OA
HETATM   24  H   UNL     1       5.407  28.469  51.559  1.00  0.00     0.170 HD
HETATM   25  H   UNL     1       3.657  31.024  50.311  1.00  0.00     0.192 HD
BRANCH  22  26
HETATM   26  C   UNL     1       5.827  28.823  53.574  1.00  0.00     0.038 A 
HETATM   27  C   UNL     1       5.199  29.041  54.804  1.00  0.00     0.053 A 
HETATM   28  C   UNL     1       5.867  28.745  55.994  1.00  0.00     0.036 A 
HETATM   29  C   UNL     1       7.162  28.233  55.975  1.00  0.00     0.024 A 
HETATM   30 CL   UNL     1       5.084  29.011  57.505  1.00  0.00    -0.084 Cl
HETATM   31  C   UNL     1       7.794  28.009  54.754  1.00  0.00     0.004 A 
HETATM   32  C   UNL     1       7.126  28.299  53.560  1.00  0.00     0.029 A 
ENDBRANCH  22  26
ENDBRANCH   1  20
TORSDOF 5
ENDMDL
MODEL 10
REMARK VINA RESULT:      -8.9      7.394     10.793
REMARK  5 active torsions:
REMARK  status: ('A' for Active; 'I' for Inactive)
REMARK    1  A    between atoms: C_6  and  N_7 
REMARK       I    between atoms: N_7  and  C_8 
REMARK       I    between atoms: C_8  and  N_9 
REMARK    2  A    between atoms: N_9  and  N_10 
REMARK       I    between atoms: N_10  and  C_11 
REMARK    3  A    between atoms: C_11  and  C_12 
REMARK    4  A    between atoms: C_12  and  N_13 
REMARK       I    between atoms: N_13  and  C_14 
REMARK       I    between atoms: C_14  and  N_15 
REMARK    5  A    between atoms: N_15  and  C_16 
ROOT
HETATM    1  N   UNL     1       3.851  27.520  51.546  1.00  0.00    -0.265 N 
HETATM    2  C   UNL     1       4.452  28.289  52.531  1.00  0.00     0.253 C 
HETATM    3  O   UNL     1       5.311  29.135  52.279  1.00  0.00    -0.270 OA
HETATM    4  H   UNL     1       3.528  26.590  51.840  1.00  0.00     0.190 HD
ENDROOT
BRANCH   2   5
HETATM    5  C   UNL     1       4.149  27.887  53.983  1.00  0.00     0.228 C 
BRANCH   5   6
HETATM    6  N   UNL     1       5.072  27.013  54.697  1.00  0.00    -0.334 N 
HETATM    7  C   UNL     1       5.378  25.767  54.205  1.00  0.00     0.321 C 
HETATM    8  N   UNL     1       6.562  25.283  54.706  1.00  0.00    -0.309 N 
HETATM    9  O   UNL     1       4.623  25.198  53.425  1.00  0.00    -0.247 OA
HETATM   10  H   UNL     1       7.182  25.961  55.123  1.00  0.00     0.170 HD
HETATM   11  H   UNL     1       5.786  27.482  55.233  1.00  0.00     0.164 HD
BRANCH   8  12
HETATM   12  C   UNL     1       7.108  24.002  54.479  1.00  0.00     0.038 A 
HETATM   13  C   UNL     1       7.260  23.037  55.479  1.00  0.00     0.055 A 
HETATM   14  C   UNL     1       7.824  21.788  55.185  1.00  0.00     0.058 A 
HETATM   15 CL   UNL     1       7.997  20.659  56.482  1.00  0.00    -0.082 Cl
HETATM   16  C   UNL     1       8.234  21.493  53.881  1.00  0.00     0.055 A 
HETATM   17 CL   UNL     1       8.928  19.975  53.443  1.00  0.00    -0.083 Cl
HETATM   18  C   UNL     1       8.090  22.456  52.880  1.00  0.00     0.028 A 
HETATM   19  C   UNL     1       7.539  23.706  53.179  1.00  0.00     0.031 A 
ENDBRANCH   8  12
ENDBRANCH   5   6
ENDBRANCH   2   5
BRANCH   1  20
HETATM   20  N   UNL     1       4.474  27.547  50.280  1.00  0.00    -0.249 N 
HETATM   21  C   UNL     1       3.847  27.985  49.135  1.00  0.00     0.339 C 
HETATM   22  N   UNL     1       2.504  28.217  49.294  1.00  0.00    -0.308 N 
HETATM   23  O   UNL     1       4.502  28.125  48.107  1.00  0.00    -0.245 OA
HETATM   24  H   UNL     1       2.203  28.157  50.256  1.00  0.00     0.170 HD
HETATM   25  H   UNL     1       5.491  27.576  50.261  1.00  0.00     0.192 HD
BRANCH  22  26
HETATM   26  C   UNL     1       1.576  28.635  48.322  1.00  0.00     0.038 A 
HETATM   27  C   UNL     1       1.082  27.802  47.313  1.00  0.00     0.053 A 
HETATM   28  C   UNL     1       0.162  28.297  46.386  1.00  0.00     0.036 A 
HETATM   29  C   UNL     1      -0.274  29.618  46.450  1.00  0.00     0.024 A 
HETATM   30 CL   UNL     1      -0.446  27.264  45.149  1.00  0.00    -0.084 Cl
HETATM   31  C   UNL     1       0.211  30.453  47.455  1.00  0.00     0.004 A 
HETATM   32  C   UNL     1       1.127  29.960  48.388  1.00  0.00     0.029 A 
ENDBRANCH  22  26
ENDBRANCH   1  20
TORSDOF 5
ENDMDL
