MODEL 1
REMARK VINA RESULT:     -10.4      0.000      0.000
REMARK  8 active torsions:
REMARK  status: ('A' for Active; 'I' for Inactive)
REMARK    1  A    between atoms: C_2  and  O_3 
REMARK    2  A    between atoms: O_3  and  C_4 
REMARK    3  A    between atoms: C_5  and  C_6 
REMARK    4  A    between atoms: C_6  and  N_7 
REMARK    5  A    between atoms: C_23  and  C_24 
REMARK    6  A    between atoms: N_25  and  N_26 
REMARK       I    between atoms: N_26  and  C_27 
REMARK    7  A    between atoms: C_27  and  C_28 
REMARK    8  A    between atoms: C_31  and  N_32 
REMARK       I    between atoms: N_32  and  C_33 
ROOT
HETATM    1  C   UNL     1       7.963  32.374  61.487  1.00  0.00     0.076 A 
HETATM    2  C   UNL     1       6.976  32.349  60.486  1.00  0.00     0.002 A 
HETATM    3  C   UNL     1       7.078  31.422  59.439  1.00  0.00     0.024 A 
HETATM    4  C   UNL     1       8.143  30.520  59.391  1.00  0.00    -0.016 A 
HETATM    5  C   UNL     1       9.133  30.559  60.370  1.00  0.00     0.016 A 
HETATM    6  C   UNL     1       9.042  31.487  61.417  1.00  0.00     0.038 A 
ENDROOT
BRANCH   4   7
HETATM    7  C   UNL     1       8.194  29.496  58.324  1.00  0.00     0.150 C 
HETATM    8  N   UNL     1       7.579  28.370  58.489  1.00  0.00    -0.184 NA
BRANCH   8   9
HETATM    9  N   UNL     1       7.617  27.422  57.507  1.00  0.00    -0.243 N 
HETATM   10  C   UNL     1       6.819  27.363  56.372  1.00  0.00     0.271 C 
HETATM   11  O   UNL     1       5.955  28.172  56.052  1.00  0.00    -0.266 OA
HETATM   12  H   UNL     1       8.086  26.570  57.802  1.00  0.00     0.192 HD
BRANCH  10  13
HETATM   13  C   UNL     1       7.037  26.157  55.520  1.00  0.00     0.033 A 
HETATM   14  C   UNL     1       7.483  26.255  54.196  1.00  0.00     0.019 A 
HETATM   15  C   UNL     1       7.695  25.099  53.435  1.00  0.00     0.030 A 
HETATM   16  C   UNL     1       7.454  23.835  53.977  1.00  0.00     0.034 A 
HETATM   17  C   UNL     1       6.982  23.743  55.293  1.00  0.00     0.030 A 
HETATM   18  C   UNL     1       6.771  24.894  56.059  1.00  0.00     0.019 A 
BRANCH  16  19
HETATM   19  N   UNL     1       7.650  22.629  53.274  1.00  0.00    -0.328 N 
HETATM   20  C   UNL     1       8.534  21.609  53.584  1.00  0.00     0.218 C 
HETATM   21  C   UNL     1       8.466  20.473  52.594  1.00  0.00     0.117 C 
HETATM   22  O   UNL     1       9.284  21.555  54.551  1.00  0.00    -0.274 OA
HETATM   23  H   UNL     1       7.061  22.486  52.463  1.00  0.00     0.169 HD
ENDBRANCH  16  19
ENDBRANCH  10  13
ENDBRANCH   8   9
ENDBRANCH   4   7
BRANCH   2  24
HETATM   24  C   UNL     1       5.795  33.281  60.522  1.00  0.00     0.276 C 
BRANCH  24  25
HETATM   25  N   UNL     1       4.549  32.674  61.142  1.00  0.00    -0.066 N 
HETATM   26  H   UNL     1       4.773  31.670  61.043  1.00  0.00     0.280 HD
HETATM   27  C   UNL     1       4.429  32.918  62.631  1.00  0.00     0.246 C 
HETATM   28  C   UNL     1       3.587  34.162  62.981  1.00  0.00     0.062 C 
HETATM   29  C   UNL     1       2.211  34.042  62.332  1.00  0.00     0.020 C 
HETATM   30  C   UNL     1       4.264  35.452  62.561  1.00  0.00     0.020 A 
HETATM   31  C   UNL     1       2.416  34.052  60.825  1.00  0.00     0.031 C 
HETATM   32  C   UNL     1       2.999  35.400  60.401  1.00  0.00     0.138 C 
HETATM   33  C   UNL     1       3.259  32.852  60.378  1.00  0.00     0.241 C 
HETATM   34  N   UNL     1       4.011  35.972  61.288  1.00  0.00    -0.317 N 
HETATM   35  C   UNL     1       4.619  37.150  60.827  1.00  0.00     0.247 A 
HETATM   36  O   UNL     1       4.429  37.625  59.711  1.00  0.00    -0.268 OA
HETATM   37  C   UNL     1       5.560  37.817  61.758  1.00  0.00     0.074 A 
HETATM   38  C   UNL     1       5.775  37.301  62.972  1.00  0.00     0.007 A 
HETATM   39  C   UNL     1       5.110  36.093  63.387  1.00  0.00     0.026 A 
ENDBRANCH  24  25
ENDBRANCH   2  24
BRANCH   1  40
HETATM   40  O   UNL     1       7.739  33.273  62.501  1.00  0.00    -0.351 OA
BRANCH  40  41
HETATM   41  C   UNL     1       7.915  32.789  63.838  1.00  0.00     0.171 C 
HETATM   42  C   UNL     1       7.343  33.829  64.784  1.00  0.00     0.034 C 
ENDBRANCH  40  41
ENDBRANCH   1  40
TORSDOF 8
ENDMDL
MODEL 2
REMARK VINA RESULT:     -10.2      3.346     11.472
REMARK  8 active torsions:
REMARK  status: ('A' for Active; 'I' for Inactive)
REMARK    1  A    between atoms: C_2  and  O_3 
REMARK    2  A    between atoms: O_3  and  C_4 
REMARK    3  A    between atoms: C_5  and  C_6 
REMARK    4  A    between atoms: C_6  and  N_7 
REMARK    5  A    between atoms: C_23  and  C_24 
REMARK    6  A    between atoms: N_25  and  N_26 
REMARK       I    between atoms: N_26  and  C_27 
REMARK    7  A    between atoms: C_27  and  C_28 
REMARK    8  A    between atoms: C_31  and  N_32 
REMARK       I    between atoms: N_32  and  C_33 
ROOT
HETATM    1  C   UNL     1       3.654  29.484  53.011  1.00  0.00     0.076 A 
HETATM    2  C   UNL     1       4.149  28.682  54.055  1.00  0.00     0.002 A 
HETATM    3  C   UNL     1       4.538  29.281  55.261  1.00  0.00     0.024 A 
HETATM    4  C   UNL     1       4.426  30.662  55.437  1.00  0.00    -0.016 A 
HETATM    5  C   UNL     1       3.956  31.460  54.396  1.00  0.00     0.016 A 
HETATM    6  C   UNL     1       3.572  30.870  53.184  1.00  0.00     0.038 A 
ENDROOT
BRANCH   4   7
HETATM    7  C   UNL     1       4.765  31.269  56.743  1.00  0.00     0.150 C 
HETATM    8  N   UNL     1       5.457  30.592  57.601  1.00  0.00    -0.184 NA
BRANCH   8   9
HETATM    9  N   UNL     1       5.778  31.147  58.808  1.00  0.00    -0.243 N 
HETATM   10  C   UNL     1       7.023  31.615  59.206  1.00  0.00     0.271 C 
HETATM   11  O   UNL     1       8.044  31.625  58.527  1.00  0.00    -0.266 OA
HETATM   12  H   UNL     1       5.096  30.934  59.531  1.00  0.00     0.192 HD
BRANCH  10  13
HETATM   13  C   UNL     1       7.085  32.092  60.619  1.00  0.00     0.033 A 
HETATM   14  C   UNL     1       8.083  31.665  61.503  1.00  0.00     0.019 A 
HETATM   15  C   UNL     1       8.120  32.151  62.815  1.00  0.00     0.030 A 
HETATM   16  C   UNL     1       7.158  33.058  63.266  1.00  0.00     0.034 A 
HETATM   17  C   UNL     1       6.145  33.461  62.387  1.00  0.00     0.030 A 
HETATM   18  C   UNL     1       6.105  32.980  61.073  1.00  0.00     0.019 A 
BRANCH  16  19
HETATM   19  N   UNL     1       7.135  33.594  64.570  1.00  0.00    -0.328 N 
HETATM   20  C   UNL     1       6.067  33.618  65.450  1.00  0.00     0.218 C 
HETATM   21  C   UNL     1       6.418  34.281  66.758  1.00  0.00     0.117 C 
HETATM   22  O   UNL     1       4.952  33.143  65.266  1.00  0.00    -0.274 OA
HETATM   23  H   UNL     1       8.006  33.985  64.906  1.00  0.00     0.169 HD
ENDBRANCH  16  19
ENDBRANCH  10  13
ENDBRANCH   8   9
ENDBRANCH   4   7
BRANCH   2  24
HETATM   24  C   UNL     1       4.251  27.187  53.917  1.00  0.00     0.276 C 
BRANCH  24  25
HETATM   25  N   UNL     1       5.093  26.732  52.738  1.00  0.00    -0.066 N 
HETATM   26  H   UNL     1       4.475  27.012  51.959  1.00  0.00     0.280 HD
HETATM   27  C   UNL     1       6.364  27.534  52.553  1.00  0.00     0.246 C 
HETATM   28  C   UNL     1       7.592  26.903  53.241  1.00  0.00     0.062 C 
HETATM   29  C   UNL     1       7.770  25.471  52.746  1.00  0.00     0.020 C 
HETATM   30  C   UNL     1       7.484  26.935  54.753  1.00  0.00     0.020 A 
HETATM   31  C   UNL     1       6.551  24.680  53.193  1.00  0.00     0.031 C 
HETATM   32  C   UNL     1       6.514  24.627  54.721  1.00  0.00     0.138 C 
HETATM   33  C   UNL     1       5.270  25.243  52.568  1.00  0.00     0.241 C 
HETATM   34  N   UNL     1       6.894  25.855  55.417  1.00  0.00    -0.317 N 
HETATM   35  C   UNL     1       6.743  25.827  56.813  1.00  0.00     0.247 A 
HETATM   36  O   UNL     1       6.218  24.902  57.425  1.00  0.00    -0.268 OA
HETATM   37  C   UNL     1       7.233  27.013  57.554  1.00  0.00     0.074 A 
HETATM   38  C   UNL     1       7.800  28.027  56.893  1.00  0.00     0.007 A 
HETATM   39  C   UNL     1       7.934  27.987  55.459  1.00  0.00     0.026 A 
ENDBRANCH  24  25
ENDBRANCH   2  24
BRANCH   1  40
HETATM   40  O   UNL     1       3.242  28.797  51.896  1.00  0.00    -0.351 OA
BRANCH  40  41
HETATM   41  C   UNL     1       3.018  29.573  50.711  1.00  0.00     0.171 C 
HETATM   42  C   UNL     1       1.615  29.268  50.219  1.00  0.00     0.034 C 
ENDBRANCH  40  41
ENDBRANCH   1  40
TORSDOF 8
ENDMDL
MODEL 3
REMARK VINA RESULT:     -10.1      4.245     11.354
REMARK  8 active torsions:
REMARK  status: ('A' for Active; 'I' for Inactive)
REMARK    1  A    between atoms: C_2  and  O_3 
REMARK    2  A    between atoms: O_3  and  C_4 
REMARK    3  A    between atoms: C_5  and  C_6 
REMARK    4  A    between atoms: C_6  and  N_7 
REMARK    5  A    between atoms: C_23  and  C_24 
REMARK    6  A    between atoms: N_25  and  N_26 
REMARK       I    between atoms: N_26  and  C_27 
REMARK    7  A    between atoms: C_27  and  C_28 
REMARK    8  A    between atoms: C_31  and  N_32 
REMARK       I    between atoms: N_32  and  C_33 
ROOT
HETATM    1  C   UNL     1       7.376  26.945  54.433  1.00  0.00     0.076 A 
HETATM    2  C   UNL     1       6.620  28.121  54.282  1.00  0.00     0.002 A 
HETATM    3  C   UNL     1       6.347  28.915  55.406  1.00  0.00     0.024 A 
HETATM    4  C   UNL     1       6.827  28.552  56.666  1.00  0.00    -0.016 A 
HETATM    5  C   UNL     1       7.557  27.375  56.819  1.00  0.00     0.016 A 
HETATM    6  C   UNL     1       7.830  26.572  55.703  1.00  0.00     0.038 A 
ENDROOT
BRANCH   4   7
HETATM    7  C   UNL     1       6.597  29.441  57.826  1.00  0.00     0.150 C 
HETATM    8  N   UNL     1       7.605  29.853  58.524  1.00  0.00    -0.184 NA
BRANCH   8   9
HETATM    9  N   UNL     1       7.402  30.678  59.594  1.00  0.00    -0.243 N 
HETATM   10  C   UNL     1       8.112  31.829  59.908  1.00  0.00     0.271 C 
HETATM   11  O   UNL     1       9.034  32.310  59.258  1.00  0.00    -0.266 OA
HETATM   12  H   UNL     1       6.865  30.234  60.334  1.00  0.00     0.192 HD
BRANCH  10  13
HETATM   13  C   UNL     1       7.712  32.477  61.191  1.00  0.00     0.033 A 
HETATM   14  C   UNL     1       6.704  33.447  61.249  1.00  0.00     0.019 A 
HETATM   15  C   UNL     1       6.342  34.018  62.475  1.00  0.00     0.030 A 
HETATM   16  C   UNL     1       6.986  33.638  63.655  1.00  0.00     0.034 A 
HETATM   17  C   UNL     1       8.012  32.687  63.589  1.00  0.00     0.030 A 
HETATM   18  C   UNL     1       8.376  32.112  62.366  1.00  0.00     0.019 A 
BRANCH  16  19
HETATM   19  N   UNL     1       6.672  34.164  64.925  1.00  0.00    -0.328 N 
HETATM   20  C   UNL     1       5.528  33.937  65.669  1.00  0.00     0.218 C 
HETATM   21  C   UNL     1       5.544  34.678  66.983  1.00  0.00     0.117 C 
HETATM   22  O   UNL     1       4.591  33.205  65.372  1.00  0.00    -0.274 OA
HETATM   23  H   UNL     1       7.376  34.758  65.347  1.00  0.00     0.169 HD
ENDBRANCH  16  19
ENDBRANCH  10  13
ENDBRANCH   8   9
ENDBRANCH   4   7
BRANCH   2  24
HETATM   24  C   UNL     1       6.116  28.565  52.936  1.00  0.00     0.276 C 
BRANCH  24  25
HETATM   25  N   UNL     1       4.976  27.719  52.395  1.00  0.00    -0.066 N 
HETATM   26  H   UNL     1       5.062  26.893  53.008  1.00  0.00     0.280 HD
HETATM   27  C   UNL     1       3.605  28.294  52.680  1.00  0.00     0.246 C 
HETATM   28  C   UNL     1       3.056  29.165  51.532  1.00  0.00     0.062 C 
HETATM   29  C   UNL     1       3.053  28.357  50.238  1.00  0.00     0.020 C 
HETATM   30  C   UNL     1       3.843  30.450  51.357  1.00  0.00     0.020 A 
HETATM   31  C   UNL     1       4.501  28.034  49.901  1.00  0.00     0.031 C 
HETATM   32  C   UNL     1       5.258  29.333  49.619  1.00  0.00     0.138 C 
HETATM   33  C   UNL     1       5.142  27.176  50.997  1.00  0.00     0.241 C 
HETATM   34  N   UNL     1       4.936  30.466  50.485  1.00  0.00    -0.317 N 
HETATM   35  C   UNL     1       5.721  31.613  50.291  1.00  0.00     0.247 A 
HETATM   36  O   UNL     1       6.694  31.657  49.544  1.00  0.00    -0.268 OA
HETATM   37  C   UNL     1       5.338  32.815  51.070  1.00  0.00     0.074 A 
HETATM   38  C   UNL     1       4.283  32.772  51.889  1.00  0.00     0.007 A 
HETATM   39  C   UNL     1       3.513  31.564  52.034  1.00  0.00     0.026 A 
ENDBRANCH  24  25
ENDBRANCH   2  24
BRANCH   1  40
HETATM   40  O   UNL     1       7.644  26.273  53.266  1.00  0.00    -0.351 OA
BRANCH  40  41
HETATM   41  C   UNL     1       7.780  24.849  53.363  1.00  0.00     0.171 C 
HETATM   42  C   UNL     1       6.426  24.234  53.060  1.00  0.00     0.034 C 
ENDBRANCH  40  41
ENDBRANCH   1  40
TORSDOF 8
ENDMDL
MODEL 4
REMARK VINA RESULT:      -9.7      4.937     12.218
REMARK  8 active torsions:
REMARK  status: ('A' for Active; 'I' for Inactive)
REMARK    1  A    between atoms: C_2  and  O_3 
REMARK    2  A    between atoms: O_3  and  C_4 
REMARK    3  A    between atoms: C_5  and  C_6 
REMARK    4  A    between atoms: C_6  and  N_7 
REMARK    5  A    between atoms: C_23  and  C_24 
REMARK    6  A    between atoms: N_25  and  N_26 
REMARK       I    between atoms: N_26  and  C_27 
REMARK    7  A    between atoms: C_27  and  C_28 
REMARK    8  A    between atoms: C_31  and  N_32 
REMARK       I    between atoms: N_32  and  C_33 
ROOT
HETATM    1  C   UNL     1       5.997  27.555  53.015  1.00  0.00     0.076 A 
HETATM    2  C   UNL     1       5.125  28.650  53.150  1.00  0.00     0.002 A 
HETATM    3  C   UNL     1       5.082  29.354  54.362  1.00  0.00     0.024 A 
HETATM    4  C   UNL     1       5.904  28.983  55.428  1.00  0.00    -0.016 A 
HETATM    5  C   UNL     1       6.751  27.884  55.303  1.00  0.00     0.016 A 
HETATM    6  C   UNL     1       6.796  27.171  54.098  1.00  0.00     0.038 A 
ENDROOT
BRANCH   4   7
HETATM    7  C   UNL     1       5.904  29.784  56.672  1.00  0.00     0.150 C 
HETATM    8  N   UNL     1       6.899  29.688  57.493  1.00  0.00    -0.184 NA
BRANCH   8   9
HETATM    9  N   UNL     1       6.909  30.428  58.642  1.00  0.00    -0.243 N 
HETATM   10  C   UNL     1       8.025  30.866  59.343  1.00  0.00     0.271 C 
HETATM   11  O   UNL     1       9.196  30.676  59.031  1.00  0.00    -0.266 OA
HETATM   12  H   UNL     1       6.020  30.402  59.132  1.00  0.00     0.192 HD
BRANCH  10  13
HETATM   13  C   UNL     1       7.718  31.587  60.612  1.00  0.00     0.033 A 
HETATM   14  C   UNL     1       6.785  32.630  60.666  1.00  0.00     0.019 A 
HETATM   15  C   UNL     1       6.510  33.269  61.881  1.00  0.00     0.030 A 
HETATM   16  C   UNL     1       7.167  32.887  63.052  1.00  0.00     0.034 A 
HETATM   17  C   UNL     1       8.119  31.862  62.989  1.00  0.00     0.030 A 
HETATM   18  C   UNL     1       8.397  31.218  61.778  1.00  0.00     0.019 A 
BRANCH  16  19
HETATM   19  N   UNL     1       6.937  33.480  64.311  1.00  0.00    -0.328 N 
HETATM   20  C   UNL     1       5.764  33.464  65.046  1.00  0.00     0.218 C 
HETATM   21  C   UNL     1       5.896  34.213  66.348  1.00  0.00     0.117 C 
HETATM   22  O   UNL     1       4.718  32.898  64.749  1.00  0.00    -0.274 OA
HETATM   23  H   UNL     1       7.729  33.951  64.731  1.00  0.00     0.169 HD
ENDBRANCH  16  19
ENDBRANCH  10  13
ENDBRANCH   8   9
ENDBRANCH   4   7
BRANCH   2  24
HETATM   24  C   UNL     1       4.250  29.103  52.012  1.00  0.00     0.276 C 
BRANCH  24  25
HETATM   25  N   UNL     1       4.622  30.465  51.452  1.00  0.00    -0.066 N 
HETATM   26  H   UNL     1       5.028  30.899  52.297  1.00  0.00     0.280 HD
HETATM   27  C   UNL     1       5.747  30.419  50.440  1.00  0.00     0.246 C 
HETATM   28  C   UNL     1       5.254  30.329  48.981  1.00  0.00     0.062 C 
HETATM   29  C   UNL     1       4.304  31.487  48.693  1.00  0.00     0.020 C 
HETATM   30  C   UNL     1       4.583  29.002  48.681  1.00  0.00     0.020 A 
HETATM   31  C   UNL     1       3.087  31.310  49.588  1.00  0.00     0.031 C 
HETATM   32  C   UNL     1       2.357  30.023  49.202  1.00  0.00     0.138 C 
HETATM   33  C   UNL     1       3.479  31.372  51.068  1.00  0.00     0.241 C 
HETATM   34  N   UNL     1       3.204  28.878  48.871  1.00  0.00    -0.317 N 
HETATM   35  C   UNL     1       2.521  27.674  48.633  1.00  0.00     0.247 A 
HETATM   36  O   UNL     1       1.314  27.528  48.803  1.00  0.00    -0.268 OA
HETATM   37  C   UNL     1       3.343  26.527  48.178  1.00  0.00     0.074 A 
HETATM   38  C   UNL     1       4.659  26.679  47.998  1.00  0.00     0.007 A 
HETATM   39  C   UNL     1       5.295  27.946  48.250  1.00  0.00     0.026 A 
ENDBRANCH  24  25
ENDBRANCH   2  24
BRANCH   1  40
HETATM   40  O   UNL     1       6.011  26.973  51.772  1.00  0.00    -0.351 OA
BRANCH  40  41
HETATM   41  C   UNL     1       6.198  25.552  51.731  1.00  0.00     0.171 C 
HETATM   42  C   UNL     1       4.871  24.902  52.077  1.00  0.00     0.034 C 
ENDBRANCH  40  41
ENDBRANCH   1  40
TORSDOF 8
ENDMDL
MODEL 5
REMARK VINA RESULT:      -9.5      6.415     10.932
REMARK  8 active torsions:
REMARK  status: ('A' for Active; 'I' for Inactive)
REMARK    1  A    between atoms: C_2  and  O_3 
REMARK    2  A    between atoms: O_3  and  C_4 
REMARK    3  A    between atoms: C_5  and  C_6 
REMARK    4  A    between atoms: C_6  and  N_7 
REMARK    5  A    between atoms: C_23  and  C_24 
REMARK    6  A    between atoms: N_25  and  N_26 
REMARK       I    between atoms: N_26  and  C_27 
REMARK    7  A    between atoms: C_27  and  C_28 
REMARK    8  A    between atoms: C_31  and  N_32 
REMARK       I    between atoms: N_32  and  C_33 
ROOT
HETATM    1  C   UNL     1       5.698  29.549  56.528  1.00  0.00     0.076 A 
HETATM    2  C   UNL     1       6.132  28.700  55.495  1.00  0.00     0.002 A 
HETATM    3  C   UNL     1       5.453  28.701  54.268  1.00  0.00     0.024 A 
HETATM    4  C   UNL     1       4.359  29.544  54.063  1.00  0.00    -0.016 A 
HETATM    5  C   UNL     1       3.914  30.369  55.093  1.00  0.00     0.016 A 
HETATM    6  C   UNL     1       4.583  30.371  56.325  1.00  0.00     0.038 A 
ENDROOT
BRANCH   4   7
HETATM    7  C   UNL     1       3.704  29.590  52.737  1.00  0.00     0.150 C 
HETATM    8  N   UNL     1       3.294  28.493  52.189  1.00  0.00    -0.184 NA
BRANCH   8   9
HETATM    9  N   UNL     1       2.683  28.528  50.967  1.00  0.00    -0.243 N 
HETATM   10  C   UNL     1       3.199  28.069  49.762  1.00  0.00     0.271 C 
HETATM   11  O   UNL     1       4.290  27.533  49.600  1.00  0.00    -0.266 OA
HETATM   12  H   UNL     1       1.913  29.190  50.933  1.00  0.00     0.192 HD
BRANCH  10  13
HETATM   13  C   UNL     1       2.329  28.320  48.577  1.00  0.00     0.033 A 
HETATM   14  C   UNL     1       1.577  27.300  47.980  1.00  0.00     0.019 A 
HETATM   15  C   UNL     1       0.756  27.579  46.881  1.00  0.00     0.030 A 
HETATM   16  C   UNL     1       0.682  28.871  46.356  1.00  0.00     0.034 A 
HETATM   17  C   UNL     1       1.457  29.882  46.939  1.00  0.00     0.030 A 
HETATM   18  C   UNL     1       2.277  29.610  48.039  1.00  0.00     0.019 A 
BRANCH  16  19
HETATM   19  N   UNL     1      -0.126  29.227  45.257  1.00  0.00    -0.328 N 
HETATM   20  C   UNL     1      -1.506  29.171  45.175  1.00  0.00     0.218 C 
HETATM   21  C   UNL     1      -2.019  29.630  43.833  1.00  0.00     0.117 C 
HETATM   22  O   UNL     1      -2.282  28.832  46.062  1.00  0.00    -0.274 OA
HETATM   23  H   UNL     1       0.361  29.586  44.444  1.00  0.00     0.169 HD
ENDBRANCH  16  19
ENDBRANCH  10  13
ENDBRANCH   8   9
ENDBRANCH   4   7
BRANCH   2  24
HETATM   24  C   UNL     1       7.329  27.803  55.666  1.00  0.00     0.276 C 
BRANCH  24  25
HETATM   25  N   UNL     1       7.178  26.778  56.776  1.00  0.00    -0.066 N 
HETATM   26  H   UNL     1       7.210  27.401  57.599  1.00  0.00     0.280 HD
HETATM   27  C   UNL     1       5.814  26.123  56.818  1.00  0.00     0.246 C 
HETATM   28  C   UNL     1       5.750  24.792  56.040  1.00  0.00     0.062 C 
HETATM   29  C   UNL     1       6.827  23.847  56.562  1.00  0.00     0.020 C 
HETATM   30  C   UNL     1       5.895  24.993  54.544  1.00  0.00     0.020 A 
HETATM   31  C   UNL     1       8.175  24.480  56.254  1.00  0.00     0.031 C 
HETATM   32  C   UNL     1       8.356  24.577  54.738  1.00  0.00     0.138 C 
HETATM   33  C   UNL     1       8.330  25.824  56.976  1.00  0.00     0.241 C 
HETATM   34  N   UNL     1       7.170  24.954  53.972  1.00  0.00    -0.317 N 
HETATM   35  C   UNL     1       7.380  25.152  52.598  1.00  0.00     0.247 A 
HETATM   36  O   UNL     1       8.486  25.139  52.067  1.00  0.00    -0.268 OA
HETATM   37  C   UNL     1       6.174  25.417  51.777  1.00  0.00     0.074 A 
HETATM   38  C   UNL     1       4.967  25.440  52.351  1.00  0.00     0.007 A 
HETATM   39  C   UNL     1       4.821  25.218  53.766  1.00  0.00     0.026 A 
ENDBRANCH  24  25
ENDBRANCH   2  24
BRANCH   1  40
HETATM   40  O   UNL     1       6.466  29.521  57.666  1.00  0.00    -0.351 OA
BRANCH  40  41
HETATM   41  C   UNL     1       7.176  30.723  57.990  1.00  0.00     0.171 C 
HETATM   42  C   UNL     1       8.648  30.370  58.110  1.00  0.00     0.034 C 
ENDBRANCH  40  41
ENDBRANCH   1  40
TORSDOF 8
ENDMDL
MODEL 6
REMARK VINA RESULT:      -9.1      1.993      3.440
REMARK  8 active torsions:
REMARK  status: ('A' for Active; 'I' for Inactive)
REMARK    1  A    between atoms: C_2  and  O_3 
REMARK    2  A    between atoms: O_3  and  C_4 
REMARK    3  A    between atoms: C_5  and  C_6 
REMARK    4  A    between atoms: C_6  and  N_7 
REMARK    5  A    between atoms: C_23  and  C_24 
REMARK    6  A    between atoms: N_25  and  N_26 
REMARK       I    between atoms: N_26  and  C_27 
REMARK    7  A    between atoms: C_27  and  C_28 
REMARK    8  A    between atoms: C_31  and  N_32 
REMARK       I    between atoms: N_32  and  C_33 
ROOT
HETATM    1  C   UNL     1       4.498  33.834  58.629  1.00  0.00     0.076 A 
HETATM    2  C   UNL     1       4.653  32.648  59.369  1.00  0.00     0.002 A 
HETATM    3  C   UNL     1       4.953  31.452  58.702  1.00  0.00     0.024 A 
HETATM    4  C   UNL     1       5.110  31.433  57.315  1.00  0.00    -0.016 A 
HETATM    5  C   UNL     1       4.934  32.602  56.579  1.00  0.00     0.016 A 
HETATM    6  C   UNL     1       4.628  33.801  57.236  1.00  0.00     0.038 A 
ENDROOT
BRANCH   4   7
HETATM    7  C   UNL     1       5.504  30.179  56.635  1.00  0.00     0.150 C 
HETATM    8  N   UNL     1       5.457  29.060  57.282  1.00  0.00    -0.184 NA
BRANCH   8   9
HETATM    9  N   UNL     1       5.816  27.897  56.660  1.00  0.00    -0.243 N 
HETATM   10  C   UNL     1       6.912  27.097  56.954  1.00  0.00     0.271 C 
HETATM   11  O   UNL     1       7.735  27.295  57.841  1.00  0.00    -0.266 OA
HETATM   12  H   UNL     1       5.379  27.790  55.749  1.00  0.00     0.192 HD
BRANCH  10  13
HETATM   13  C   UNL     1       7.090  25.928  56.044  1.00  0.00     0.033 A 
HETATM   14  C   UNL     1       7.412  26.084  54.690  1.00  0.00     0.019 A 
HETATM   15  C   UNL     1       7.590  24.962  53.872  1.00  0.00     0.030 A 
HETATM   16  C   UNL     1       7.440  23.673  54.389  1.00  0.00     0.034 A 
HETATM   17  C   UNL     1       7.092  23.522  55.736  1.00  0.00     0.030 A 
HETATM   18  C   UNL     1       6.914  24.640  56.559  1.00  0.00     0.019 A 
BRANCH  16  19
HETATM   19  N   UNL     1       7.610  22.498  53.628  1.00  0.00    -0.328 N 
HETATM   20  C   UNL     1       8.567  21.514  53.804  1.00  0.00     0.218 C 
HETATM   21  C   UNL     1       8.439  20.405  52.790  1.00  0.00     0.117 C 
HETATM   22  O   UNL     1       9.423  21.470  54.679  1.00  0.00    -0.274 OA
HETATM   23  H   UNL     1       6.940  22.350  52.883  1.00  0.00     0.169 HD
ENDBRANCH  16  19
ENDBRANCH  10  13
ENDBRANCH   8   9
ENDBRANCH   4   7
BRANCH   2  24
HETATM   24  C   UNL     1       4.528  32.636  60.869  1.00  0.00     0.276 C 
BRANCH  24  25
HETATM   25  N   UNL     1       5.785  32.184  61.590  1.00  0.00    -0.066 N 
HETATM   26  H   UNL     1       6.071  31.404  60.975  1.00  0.00     0.280 HD
HETATM   27  C   UNL     1       6.918  33.186  61.523  1.00  0.00     0.246 C 
HETATM   28  C   UNL     1       6.967  34.134  62.739  1.00  0.00     0.062 C 
HETATM   29  C   UNL     1       7.038  33.311  64.022  1.00  0.00     0.020 C 
HETATM   30  C   UNL     1       5.784  35.082  62.779  1.00  0.00     0.020 A 
HETATM   31  C   UNL     1       5.744  32.519  64.126  1.00  0.00     0.031 C 
HETATM   32  C   UNL     1       4.569  33.485  64.275  1.00  0.00     0.138 C 
HETATM   33  C   UNL     1       5.596  31.551  62.946  1.00  0.00     0.241 C 
HETATM   34  N   UNL     1       4.628  34.701  63.465  1.00  0.00    -0.317 N 
HETATM   35  C   UNL     1       3.489  35.519  63.525  1.00  0.00     0.247 A 
HETATM   36  O   UNL     1       2.453  35.208  64.106  1.00  0.00    -0.268 OA
HETATM   37  C   UNL     1       3.569  36.815  62.810  1.00  0.00     0.074 A 
HETATM   38  C   UNL     1       4.691  37.157  62.170  1.00  0.00     0.007 A 
HETATM   39  C   UNL     1       5.829  36.274  62.156  1.00  0.00     0.026 A 
ENDBRANCH  24  25
ENDBRANCH   2  24
BRANCH   1  40
HETATM   40  O   UNL     1       4.269  34.961  59.379  1.00  0.00    -0.351 OA
BRANCH  40  41
HETATM   41  C   UNL     1       3.116  35.739  59.031  1.00  0.00     0.171 C 
HETATM   42  C   UNL     1       1.930  35.167  59.785  1.00  0.00     0.034 C 
ENDBRANCH  40  41
ENDBRANCH   1  40
TORSDOF 8
ENDMDL
MODEL 7
REMARK VINA RESULT:      -9.0      3.076     12.199
REMARK  8 active torsions:
REMARK  status: ('A' for Active; 'I' for Inactive)
REMARK    1  A    between atoms: C_2  and  O_3 
REMARK    2  A    between atoms: O_3  and  C_4 
REMARK    3  A    between atoms: C_5  and  C_6 
REMARK    4  A    between atoms: C_6  and  N_7 
REMARK    5  A    between atoms: C_23  and  C_24 
REMARK    6  A    between atoms: N_25  and  N_26 
REMARK       I    between atoms: N_26  and  C_27 
REMARK    7  A    between atoms: C_27  and  C_28 
REMARK    8  A    between atoms: C_31  and  N_32 
REMARK       I    between atoms: N_32  and  C_33 
ROOT
HETATM    1  C   UNL     1       4.927  30.024  54.909  1.00  0.00     0.076 A 
HETATM    2  C   UNL     1       5.669  29.326  55.879  1.00  0.00     0.002 A 
HETATM    3  C   UNL     1       5.703  29.803  57.197  1.00  0.00     0.024 A 
HETATM    4  C   UNL     1       4.999  30.956  57.554  1.00  0.00    -0.016 A 
HETATM    5  C   UNL     1       4.283  31.660  56.589  1.00  0.00     0.016 A 
HETATM    6  C   UNL     1       4.247  31.194  55.267  1.00  0.00     0.038 A 
ENDROOT
BRANCH   4   7
HETATM    7  C   UNL     1       4.981  31.401  58.964  1.00  0.00     0.150 C 
HETATM    8  N   UNL     1       6.047  31.917  59.485  1.00  0.00    -0.184 NA
BRANCH   8   9
HETATM    9  N   UNL     1       6.038  32.335  60.786  1.00  0.00    -0.243 N 
HETATM   10  C   UNL     1       7.137  32.503  61.617  1.00  0.00     0.271 C 
HETATM   11  O   UNL     1       8.311  32.322  61.310  1.00  0.00    -0.266 OA
HETATM   12  H   UNL     1       5.124  32.242  61.220  1.00  0.00     0.192 HD
BRANCH  10  13
HETATM   13  C   UNL     1       6.804  32.892  63.018  1.00  0.00     0.033 A 
HETATM   14  C   UNL     1       5.483  32.946  63.479  1.00  0.00     0.019 A 
HETATM   15  C   UNL     1       5.211  33.296  64.807  1.00  0.00     0.030 A 
HETATM   16  C   UNL     1       6.249  33.609  65.687  1.00  0.00     0.034 A 
HETATM   17  C   UNL     1       7.567  33.582  65.215  1.00  0.00     0.030 A 
HETATM   18  C   UNL     1       7.845  33.229  63.889  1.00  0.00     0.019 A 
BRANCH  16  19
HETATM   19  N   UNL     1       6.053  33.965  67.037  1.00  0.00    -0.328 N 
HETATM   20  C   UNL     1       5.416  35.093  67.525  1.00  0.00     0.218 C 
HETATM   21  C   UNL     1       5.403  35.135  69.033  1.00  0.00     0.117 C 
HETATM   22  O   UNL     1       4.874  35.974  66.868  1.00  0.00    -0.274 OA
HETATM   23  H   UNL     1       6.398  33.307  67.725  1.00  0.00     0.169 HD
ENDBRANCH  16  19
ENDBRANCH  10  13
ENDBRANCH   8   9
ENDBRANCH   4   7
BRANCH   2  24
HETATM   24  C   UNL     1       6.411  28.061  55.541  1.00  0.00     0.276 C 
BRANCH  24  25
HETATM   25  N   UNL     1       6.395  27.022  56.648  1.00  0.00    -0.066 N 
HETATM   26  H   UNL     1       6.220  27.634  57.462  1.00  0.00     0.280 HD
HETATM   27  C   UNL     1       5.209  26.084  56.584  1.00  0.00     0.246 C 
HETATM   28  C   UNL     1       5.505  24.776  55.822  1.00  0.00     0.062 C 
HETATM   29  C   UNL     1       6.716  24.088  56.445  1.00  0.00     0.020 C 
HETATM   30  C   UNL     1       5.729  25.011  54.341  1.00  0.00     0.020 A 
HETATM   31  C   UNL     1       7.913  25.004  56.242  1.00  0.00     0.031 C 
HETATM   32  C   UNL     1       8.196  25.145  54.746  1.00  0.00     0.138 C 
HETATM   33  C   UNL     1       7.707  26.344  56.957  1.00  0.00     0.241 C 
HETATM   34  N   UNL     1       7.024  25.256  53.878  1.00  0.00    -0.317 N 
HETATM   35  C   UNL     1       7.301  25.502  52.523  1.00  0.00     0.247 A 
HETATM   36  O   UNL     1       8.425  25.735  52.087  1.00  0.00    -0.268 OA
HETATM   37  C   UNL     1       6.141  25.500  51.601  1.00  0.00     0.074 A 
HETATM   38  C   UNL     1       4.914  25.254  52.072  1.00  0.00     0.007 A 
HETATM   39  C   UNL     1       4.701  24.998  53.473  1.00  0.00     0.026 A 
ENDBRANCH  24  25
ENDBRANCH   2  24
BRANCH   1  40
HETATM   40  O   UNL     1       4.904  29.442  53.665  1.00  0.00    -0.351 OA
BRANCH  40  41
HETATM   41  C   UNL     1       3.719  28.713  53.320  1.00  0.00     0.171 C 
HETATM   42  C   UNL     1       3.427  28.975  51.854  1.00  0.00     0.034 C 
ENDBRANCH  40  41
ENDBRANCH   1  40
TORSDOF 8
ENDMDL
MODEL 8
REMARK VINA RESULT:      -8.8      2.132      3.203
REMARK  8 active torsions:
REMARK  status: ('A' for Active; 'I' for Inactive)
REMARK    1  A    between atoms: C_2  and  O_3 
REMARK    2  A    between atoms: O_3  and  C_4 
REMARK    3  A    between atoms: C_5  and  C_6 
REMARK    4  A    between atoms: C_6  and  N_7 
REMARK    5  A    between atoms: C_23  and  C_24 
REMARK    6  A    between atoms: N_25  and  N_26 
REMARK       I    between atoms: N_26  and  C_27 
REMARK    7  A    between atoms: C_27  and  C_28 
REMARK    8  A    between atoms: C_31  and  N_32 
REMARK       I    between atoms: N_32  and  C_33 
ROOT
HETATM    1  C   UNL     1       4.629  34.119  57.840  1.00  0.00     0.076 A 
HETATM    2  C   UNL     1       5.035  33.209  58.832  1.00  0.00     0.002 A 
HETATM    3  C   UNL     1       5.406  31.908  58.466  1.00  0.00     0.024 A 
HETATM    4  C   UNL     1       5.386  31.514  57.126  1.00  0.00    -0.016 A 
HETATM    5  C   UNL     1       4.962  32.407  56.145  1.00  0.00     0.016 A 
HETATM    6  C   UNL     1       4.583  33.709  56.502  1.00  0.00     0.038 A 
ENDROOT
BRANCH   4   7
HETATM    7  C   UNL     1       5.856  30.163  56.748  1.00  0.00     0.150 C 
HETATM    8  N   UNL     1       5.388  29.600  55.681  1.00  0.00    -0.184 NA
BRANCH   8   9
HETATM    9  N   UNL     1       5.821  28.354  55.323  1.00  0.00    -0.243 N 
HETATM   10  C   UNL     1       7.110  27.992  54.953  1.00  0.00     0.271 C 
HETATM   11  O   UNL     1       8.085  28.735  54.908  1.00  0.00    -0.266 OA
HETATM   12  H   UNL     1       5.059  27.736  55.057  1.00  0.00     0.192 HD
BRANCH  10  13
HETATM   13  C   UNL     1       7.259  26.569  54.533  1.00  0.00     0.033 A 
HETATM   14  C   UNL     1       6.949  25.506  55.389  1.00  0.00     0.019 A 
HETATM   15  C   UNL     1       7.083  24.183  54.952  1.00  0.00     0.030 A 
HETATM   16  C   UNL     1       7.540  23.902  53.662  1.00  0.00     0.034 A 
HETATM   17  C   UNL     1       7.876  24.967  52.818  1.00  0.00     0.030 A 
HETATM   18  C   UNL     1       7.741  26.292  53.249  1.00  0.00     0.019 A 
BRANCH  16  19
HETATM   19  N   UNL     1       7.695  22.597  53.151  1.00  0.00    -0.328 N 
HETATM   20  C   UNL     1       8.591  21.630  53.572  1.00  0.00     0.218 C 
HETATM   21  C   UNL     1       8.467  20.352  52.781  1.00  0.00     0.117 C 
HETATM   22  O   UNL     1       9.393  21.723  54.494  1.00  0.00    -0.274 OA
HETATM   23  H   UNL     1       7.062  22.333  52.406  1.00  0.00     0.169 HD
ENDBRANCH  16  19
ENDBRANCH  10  13
ENDBRANCH   8   9
ENDBRANCH   4   7
BRANCH   2  24
HETATM   24  C   UNL     1       5.105  33.607  60.282  1.00  0.00     0.276 C 
BRANCH  24  25
HETATM   25  N   UNL     1       4.051  32.947  61.154  1.00  0.00    -0.066 N 
HETATM   26  H   UNL     1       4.177  31.962  60.868  1.00  0.00     0.280 HD
HETATM   27  C   UNL     1       4.376  32.984  62.632  1.00  0.00     0.246 C 
HETATM   28  C   UNL     1       3.746  34.185  63.367  1.00  0.00     0.062 C 
HETATM   29  C   UNL     1       2.239  34.188  63.136  1.00  0.00     0.020 C 
HETATM   30  C   UNL     1       4.354  35.507  62.935  1.00  0.00     0.020 A 
HETATM   31  C   UNL     1       2.006  34.403  61.649  1.00  0.00     0.031 C 
HETATM   32  C   UNL     1       2.526  35.784  61.248  1.00  0.00     0.138 C 
HETATM   33  C   UNL     1       2.611  33.258  60.827  1.00  0.00     0.241 C 
HETATM   34  N   UNL     1       3.782  36.204  61.868  1.00  0.00    -0.317 N 
HETATM   35  C   UNL     1       4.304  37.421  61.403  1.00  0.00     0.247 A 
HETATM   36  O   UNL     1       3.834  38.051  60.460  1.00  0.00    -0.268 OA
HETATM   37  C   UNL     1       5.511  37.930  62.098  1.00  0.00     0.074 A 
HETATM   38  C   UNL     1       6.031  37.246  63.121  1.00  0.00     0.007 A 
HETATM   39  C   UNL     1       5.438  36.007  63.555  1.00  0.00     0.026 A 
ENDBRANCH  24  25
ENDBRANCH   2  24
BRANCH   1  40
HETATM   40  O   UNL     1       4.347  35.385  58.291  1.00  0.00    -0.351 OA
BRANCH  40  41
HETATM   41  C   UNL     1       4.600  36.462  57.380  1.00  0.00     0.171 C 
HETATM   42  C   UNL     1       3.277  37.154  57.106  1.00  0.00     0.034 C 
ENDBRANCH  40  41
ENDBRANCH   1  40
TORSDOF 8
ENDMDL
MODEL 9
REMARK VINA RESULT:      -8.7      4.650     11.575
REMARK  8 active torsions:
REMARK  status: ('A' for Active; 'I' for Inactive)
REMARK    1  A    between atoms: C_2  and  O_3 
REMARK    2  A    between atoms: O_3  and  C_4 
REMARK    3  A    between atoms: C_5  and  C_6 
REMARK    4  A    between atoms: C_6  and  N_7 
REMARK    5  A    between atoms: C_23  and  C_24 
REMARK    6  A    between atoms: N_25  and  N_26 
REMARK       I    between atoms: N_26  and  C_27 
REMARK    7  A    between atoms: C_27  and  C_28 
REMARK    8  A    between atoms: C_31  and  N_32 
REMARK       I    between atoms: N_32  and  C_33 
ROOT
HETATM    1  C   UNL     1       6.020  26.542  53.896  1.00  0.00     0.076 A 
HETATM    2  C   UNL     1       5.510  27.842  53.737  1.00  0.00     0.002 A 
HETATM    3  C   UNL     1       5.201  28.607  54.871  1.00  0.00     0.024 A 
HETATM    4  C   UNL     1       5.407  28.092  56.152  1.00  0.00    -0.016 A 
HETATM    5  C   UNL     1       5.892  26.795  56.311  1.00  0.00     0.016 A 
HETATM    6  C   UNL     1       6.197  26.021  55.183  1.00  0.00     0.038 A 
ENDROOT
BRANCH   4   7
HETATM    7  C   UNL     1       5.152  28.940  57.337  1.00  0.00     0.150 C 
HETATM    8  N   UNL     1       5.548  30.171  57.338  1.00  0.00    -0.184 NA
BRANCH   8   9
HETATM    9  N   UNL     1       5.311  30.963  58.427  1.00  0.00    -0.243 N 
HETATM   10  C   UNL     1       4.171  31.713  58.681  1.00  0.00     0.271 C 
HETATM   11  O   UNL     1       3.171  31.773  57.974  1.00  0.00    -0.266 OA
HETATM   12  H   UNL     1       6.162  31.206  58.926  1.00  0.00     0.192 HD
BRANCH  10  13
HETATM   13  C   UNL     1       4.238  32.546  59.918  1.00  0.00     0.033 A 
HETATM   14  C   UNL     1       5.447  32.796  60.579  1.00  0.00     0.019 A 
HETATM   15  C   UNL     1       5.472  33.599  61.726  1.00  0.00     0.030 A 
HETATM   16  C   UNL     1       4.295  34.153  62.233  1.00  0.00     0.034 A 
HETATM   17  C   UNL     1       3.084  33.878  61.585  1.00  0.00     0.030 A 
HETATM   18  C   UNL     1       3.054  33.078  60.437  1.00  0.00     0.019 A 
BRANCH  16  19
HETATM   19  N   UNL     1       4.244  34.974  63.378  1.00  0.00    -0.328 N 
HETATM   20  C   UNL     1       4.179  34.571  64.700  1.00  0.00     0.218 C 
HETATM   21  C   UNL     1       4.134  35.739  65.653  1.00  0.00     0.117 C 
HETATM   22  O   UNL     1       4.189  33.419  65.119  1.00  0.00    -0.274 OA
HETATM   23  H   UNL     1       4.282  35.973  63.211  1.00  0.00     0.169 HD
ENDBRANCH  16  19
ENDBRANCH  10  13
ENDBRANCH   8   9
ENDBRANCH   4   7
BRANCH   2  24
HETATM   24  C   UNL     1       5.307  28.445  52.373  1.00  0.00     0.276 C 
BRANCH  24  25
HETATM   25  N   UNL     1       4.109  27.889  51.623  1.00  0.00    -0.066 N 
HETATM   26  H   UNL     1       3.998  26.986  52.113  1.00  0.00     0.280 HD
HETATM   27  C   UNL     1       2.826  28.650  51.879  1.00  0.00     0.246 C 
HETATM   28  C   UNL     1       2.546  29.746  50.831  1.00  0.00     0.062 C 
HETATM   29  C   UNL     1       2.549  29.128  49.436  1.00  0.00     0.020 C 
HETATM   30  C   UNL     1       3.543  30.887  50.911  1.00  0.00     0.020 A 
HETATM   31  C   UNL     1       3.953  28.607  49.173  1.00  0.00     0.031 C 
HETATM   32  C   UNL     1       4.933  29.780  49.147  1.00  0.00     0.138 C 
HETATM   33  C   UNL     1       4.331  27.513  50.179  1.00  0.00     0.241 C 
HETATM   34  N   UNL     1       4.709  30.828  50.142  1.00  0.00    -0.317 N 
HETATM   35  C   UNL     1       5.684  31.837  50.182  1.00  0.00     0.247 A 
HETATM   36  O   UNL     1       6.724  31.809  49.532  1.00  0.00    -0.268 OA
HETATM   37  C   UNL     1       5.420  32.974  51.096  1.00  0.00     0.074 A 
HETATM   38  C   UNL     1       4.292  33.007  51.813  1.00  0.00     0.007 A 
HETATM   39  C   UNL     1       3.327  31.942  51.716  1.00  0.00     0.026 A 
ENDBRANCH  24  25
ENDBRANCH   2  24
BRANCH   1  40
HETATM   40  O   UNL     1       6.350  25.899  52.728  1.00  0.00    -0.351 OA
BRANCH  40  41
HETATM   41  C   UNL     1       7.719  25.499  52.581  1.00  0.00     0.171 C 
HETATM   42  C   UNL     1       7.758  23.982  52.584  1.00  0.00     0.034 C 
ENDBRANCH  40  41
ENDBRANCH   1  40
TORSDOF 8
ENDMDL
MODEL 10
REMARK VINA RESULT:      -8.6      2.146      4.878
REMARK  8 active torsions:
REMARK  status: ('A' for Active; 'I' for Inactive)
REMARK    1  A    between atoms: C_2  and  O_3 
REMARK    2  A    between atoms: O_3  and  C_4 
REMARK    3  A    between atoms: C_5  and  C_6 
REMARK    4  A    between atoms: C_6  and  N_7 
REMARK    5  A    between atoms: C_23  and  C_24 
REMARK    6  A    between atoms: N_25  and  N_26 
REMARK       I    between atoms: N_26  and  C_27 
REMARK    7  A    between atoms: C_27  and  C_28 
REMARK    8  A    between atoms: C_31  and  N_32 
REMARK       I    between atoms: N_32  and  C_33 
ROOT
HETATM    1  C   UNL     1       3.662  36.464  59.780  1.00  0.00     0.076 A 
HETATM    2  C   UNL     1       4.410  35.602  60.601  1.00  0.00     0.002 A 
HETATM    3  C   UNL     1       4.612  34.272  60.203  1.00  0.00     0.024 A 
HETATM    4  C   UNL     1       4.085  33.804  58.998  1.00  0.00    -0.016 A 
HETATM    5  C   UNL     1       3.325  34.651  58.195  1.00  0.00     0.016 A 
HETATM    6  C   UNL     1       3.113  35.980  58.587  1.00  0.00     0.038 A 
ENDROOT
BRANCH   4   7
HETATM    7  C   UNL     1       4.374  32.422  58.556  1.00  0.00     0.150 C 
HETATM    8  N   UNL     1       5.491  32.163  57.957  1.00  0.00    -0.184 NA
BRANCH   8   9
HETATM    9  N   UNL     1       5.767  30.888  57.550  1.00  0.00    -0.243 N 
HETATM   10  C   UNL     1       6.841  30.100  57.943  1.00  0.00     0.271 C 
HETATM   11  O   UNL     1       7.714  30.415  58.745  1.00  0.00    -0.266 OA
HETATM   12  H   UNL     1       5.282  30.637  56.693  1.00  0.00     0.192 HD
BRANCH  10  13
HETATM   13  C   UNL     1       6.922  28.775  57.262  1.00  0.00     0.033 A 
HETATM   14  C   UNL     1       5.967  28.363  56.325  1.00  0.00     0.019 A 
HETATM   15  C   UNL     1       6.089  27.120  55.692  1.00  0.00     0.030 A 
HETATM   16  C   UNL     1       7.155  26.270  55.991  1.00  0.00     0.034 A 
HETATM   17  C   UNL     1       8.094  26.674  56.948  1.00  0.00     0.030 A 
HETATM   18  C   UNL     1       7.978  27.916  57.583  1.00  0.00     0.019 A 
BRANCH  16  19
HETATM   19  N   UNL     1       7.346  25.009  55.390  1.00  0.00    -0.328 N 
HETATM   20  C   UNL     1       7.713  24.748  54.081  1.00  0.00     0.218 C 
HETATM   21  C   UNL     1       7.815  23.270  53.799  1.00  0.00     0.117 C 
HETATM   22  O   UNL     1       7.974  25.573  53.213  1.00  0.00    -0.274 OA
HETATM   23  H   UNL     1       7.221  24.205  55.993  1.00  0.00     0.169 HD
ENDBRANCH  16  19
ENDBRANCH  10  13
ENDBRANCH   8   9
ENDBRANCH   4   7
BRANCH   2  24
HETATM   24  C   UNL     1       5.023  36.080  61.889  1.00  0.00     0.276 C 
BRANCH  24  25
HETATM   25  N   UNL     1       4.014  36.346  62.992  1.00  0.00    -0.066 N 
HETATM   26  H   UNL     1       3.536  37.173  62.599  1.00  0.00     0.280 HD
HETATM   27  C   UNL     1       2.945  35.279  63.108  1.00  0.00     0.246 C 
HETATM   28  C   UNL     1       3.282  34.186  64.143  1.00  0.00     0.062 C 
HETATM   29  C   UNL     1       3.558  34.836  65.495  1.00  0.00     0.020 C 
HETATM   30  C   UNL     1       4.458  33.329  63.713  1.00  0.00     0.020 A 
HETATM   31  C   UNL     1       4.799  35.701  65.340  1.00  0.00     0.031 C 
HETATM   32  C   UNL     1       6.000  34.812  65.014  1.00  0.00     0.138 C 
HETATM   33  C   UNL     1       4.566  36.817  64.315  1.00  0.00     0.241 C 
HETATM   34  N   UNL     1       5.750  33.706  64.091  1.00  0.00    -0.317 N 
HETATM   35  C   UNL     1       6.884  32.971  63.712  1.00  0.00     0.247 A 
HETATM   36  O   UNL     1       8.033  33.282  64.014  1.00  0.00    -0.268 OA
HETATM   37  C   UNL     1       6.645  31.772  62.874  1.00  0.00     0.074 A 
HETATM   38  C   UNL     1       5.397  31.432  62.536  1.00  0.00     0.007 A 
HETATM   39  C   UNL     1       4.275  32.225  62.968  1.00  0.00     0.026 A 
ENDBRANCH  24  25
ENDBRANCH   2  24
BRANCH   1  40
HETATM   40  O   UNL     1       3.575  37.760  60.224  1.00  0.00    -0.351 OA
BRANCH  40  41
HETATM   41  C   UNL     1       3.914  38.786  59.281  1.00  0.00     0.171 C 
HETATM   42  C   UNL     1       5.428  38.862  59.208  1.00  0.00     0.034 C 
ENDBRANCH  40  41
ENDBRANCH   1  40
TORSDOF 8
ENDMDL
