MODEL 1
REMARK VINA RESULT:     -10.8      0.000      0.000
REMARK  6 active torsions:
REMARK  status: ('A' for Active; 'I' for Inactive)
REMARK    1  A    between atoms: C_2  and  C_3 
REMARK    2  A    between atoms: C_3  and  C_4 
REMARK    3  A    between atoms: N_7  and  C_9 
REMARK    4  A    between atoms: C_9  and  C_10 
REMARK    5  A    between atoms: N_23  and  C_24 
REMARK    6  A    between atoms: C_24  and  C_25 
ROOT
HETATM    1  C   UNL     1       5.481  27.412  54.801  1.00  0.00     0.119 C 
HETATM    2  N   UNL     1       5.268  26.349  55.771  1.00  0.00    -0.324 N 
HETATM    3  C   UNL     1       6.319  26.253  56.661  1.00  0.00     0.326 C 
HETATM    4  O   UNL     1       6.271  25.541  57.647  1.00  0.00    -0.247 OA
HETATM    5  N   UNL     1       7.330  27.047  56.235  1.00  0.00    -0.264 N 
HETATM    6  C   UNL     1       6.960  27.742  55.121  1.00  0.00     0.257 C 
HETATM    7  O   UNL     1       7.659  28.507  54.474  1.00  0.00    -0.270 OA
HETATM    8  H   UNL     1       4.367  26.125  56.179  1.00  0.00     0.165 HD
ENDROOT
BRANCH   1   9
HETATM    9  C   UNL     1       4.601  28.619  55.210  1.00  0.00     0.037 C 
HETATM   10  C   UNL     1       4.134  29.512  54.069  1.00  0.00     0.008 C 
ENDBRANCH   1   9
BRANCH   1  11
HETATM   11  C   UNL     1       5.312  26.928  53.326  1.00  0.00     0.026 C 
HETATM   12  C   UNL     1       4.735  25.509  53.189  1.00  0.00     0.035 C 
HETATM   13  C   UNL     1       5.741  24.392  53.439  1.00  0.00     0.235 C 
HETATM   14  N   UNL     1       6.961  24.558  52.567  1.00  0.00    -0.067 N 
HETATM   15  H   UNL     1       6.651  24.441  51.593  1.00  0.00     0.280 HD
HETATM   16  C   UNL     1       7.599  25.925  52.681  1.00  0.00     0.235 C 
HETATM   17  C   UNL     1       6.573  27.020  52.441  1.00  0.00     0.035 C 
BRANCH  14  18
HETATM   18  C   UNL     1       8.021  23.491  52.809  1.00  0.00     0.273 C 
BRANCH  18  19
HETATM   19  C   UNL     1       8.096  22.981  54.222  1.00  0.00    -0.027 A 
HETATM   20  C   UNL     1       8.589  23.782  55.262  1.00  0.00     0.051 A 
HETATM   21  C   UNL     1       8.670  23.271  56.559  1.00  0.00     0.119 A 
HETATM   22  F   UNL     1       9.149  24.052  57.534  1.00  0.00    -0.206 F 
HETATM   23  C   UNL     1       8.276  21.974  56.852  1.00  0.00     0.084 A 
HETATM   24  C   UNL     1       7.787  21.183  55.824  1.00  0.00     0.119 A 
HETATM   25  F   UNL     1       7.408  19.925  56.079  1.00  0.00    -0.206 F 
HETATM   26  C   UNL     1       7.693  21.668  54.522  1.00  0.00     0.051 A 
ENDBRANCH  18  19
ENDBRANCH  14  18
ENDBRANCH   1  11
BRANCH   5  27
HETATM   27  C   UNL     1       8.615  27.151  56.888  1.00  0.00     0.175 C 
BRANCH  27  28
HETATM   28  C   UNL     1       8.846  28.542  57.435  1.00  0.00    -0.037 A 
HETATM   29  C   UNL     1       7.904  29.128  58.297  1.00  0.00     0.048 A 
HETATM   30  C   UNL     1       8.170  30.389  58.785  1.00  0.00     0.105 A 
HETATM   31  C   UNL     1       9.308  31.078  58.437  1.00  0.00     0.105 A 
HETATM   32  O   UNL     1       7.382  31.092  59.641  1.00  0.00    -0.323 OA
HETATM   33  O   UNL     1       9.379  32.297  59.034  1.00  0.00    -0.323 OA
HETATM   34  C   UNL     1      10.243  30.548  57.577  1.00  0.00     0.040 A 
HETATM   35  C   UNL     1       8.201  32.258  59.869  1.00  0.00     0.352 A 
HETATM   36  C   UNL     1      10.005  29.266  57.069  1.00  0.00     0.012 A 
ENDBRANCH  27  28
ENDBRANCH   5  27
TORSDOF 6
ENDMDL
MODEL 2
REMARK VINA RESULT:     -10.5      2.500      4.037
REMARK  6 active torsions:
REMARK  status: ('A' for Active; 'I' for Inactive)
REMARK    1  A    between atoms: C_2  and  C_3 
REMARK    2  A    between atoms: C_3  and  C_4 
REMARK    3  A    between atoms: N_7  and  C_9 
REMARK    4  A    between atoms: C_9  and  C_10 
REMARK    5  A    between atoms: N_23  and  C_24 
REMARK    6  A    between atoms: C_24  and  C_25 
ROOT
HETATM    1  C   UNL     1       5.417  28.667  56.544  1.00  0.00     0.119 C 
HETATM    2  N   UNL     1       4.066  29.072  56.896  1.00  0.00    -0.324 N 
HETATM    3  C   UNL     1       4.014  30.400  57.273  1.00  0.00     0.326 C 
HETATM    4  O   UNL     1       2.960  30.983  57.451  1.00  0.00    -0.247 OA
HETATM    5  N   UNL     1       5.277  30.872  57.397  1.00  0.00    -0.264 N 
HETATM    6  C   UNL     1       6.184  29.919  57.035  1.00  0.00     0.257 C 
HETATM    7  O   UNL     1       7.401  30.020  57.076  1.00  0.00    -0.270 OA
HETATM    8  H   UNL     1       3.233  28.753  56.414  1.00  0.00     0.165 HD
ENDROOT
BRANCH   1   9
HETATM    9  C   UNL     1       5.511  28.598  55.000  1.00  0.00     0.037 C 
HETATM   10  C   UNL     1       4.181  28.559  54.259  1.00  0.00     0.008 C 
ENDBRANCH   1   9
BRANCH   1  11
HETATM   11  C   UNL     1       5.881  27.382  57.302  1.00  0.00     0.026 C 
HETATM   12  C   UNL     1       7.387  27.093  57.190  1.00  0.00     0.035 C 
HETATM   13  C   UNL     1       7.814  26.466  55.868  1.00  0.00     0.235 C 
HETATM   14  N   UNL     1       7.009  25.223  55.575  1.00  0.00    -0.067 N 
HETATM   15  H   UNL     1       7.247  24.534  56.300  1.00  0.00     0.280 HD
HETATM   16  C   UNL     1       5.514  25.449  55.635  1.00  0.00     0.235 C 
HETATM   17  C   UNL     1       5.117  26.087  56.956  1.00  0.00     0.035 C 
BRANCH  14  18
HETATM   18  C   UNL     1       7.364  24.581  54.241  1.00  0.00     0.273 C 
BRANCH  18  19
HETATM   19  C   UNL     1       7.640  23.103  54.300  1.00  0.00    -0.027 A 
HETATM   20  C   UNL     1       7.923  22.367  53.142  1.00  0.00     0.051 A 
HETATM   21  C   UNL     1       8.151  20.992  53.226  1.00  0.00     0.119 A 
HETATM   22  F   UNL     1       8.414  20.308  52.107  1.00  0.00    -0.206 F 
HETATM   23  C   UNL     1       8.101  20.324  54.440  1.00  0.00     0.084 A 
HETATM   24  C   UNL     1       7.823  21.052  55.586  1.00  0.00     0.119 A 
HETATM   25  F   UNL     1       7.760  20.430  56.769  1.00  0.00    -0.206 F 
HETATM   26  C   UNL     1       7.594  22.426  55.530  1.00  0.00     0.051 A 
ENDBRANCH  18  19
ENDBRANCH  14  18
ENDBRANCH   1  11
BRANCH   5  27
HETATM   27  C   UNL     1       5.608  32.208  57.836  1.00  0.00     0.175 C 
BRANCH  27  28
HETATM   28  C   UNL     1       5.826  32.261  59.331  1.00  0.00    -0.037 A 
HETATM   29  C   UNL     1       7.122  32.155  59.860  1.00  0.00     0.048 A 
HETATM   30  C   UNL     1       7.271  32.230  61.229  1.00  0.00     0.105 A 
HETATM   31  C   UNL     1       6.194  32.385  62.069  1.00  0.00     0.105 A 
HETATM   32  O   UNL     1       8.450  32.166  61.905  1.00  0.00    -0.323 OA
HETATM   33  O   UNL     1       6.561  32.442  63.377  1.00  0.00    -0.323 OA
HETATM   34  C   UNL     1       4.906  32.468  61.590  1.00  0.00     0.040 A 
HETATM   35  C   UNL     1       8.000  32.399  63.256  1.00  0.00     0.352 A 
HETATM   36  C   UNL     1       4.723  32.403  60.205  1.00  0.00     0.012 A 
ENDBRANCH  27  28
ENDBRANCH   5  27
TORSDOF 6
ENDMDL
MODEL 3
REMARK VINA RESULT:     -10.5      3.384      7.793
REMARK  6 active torsions:
REMARK  status: ('A' for Active; 'I' for Inactive)
REMARK    1  A    between atoms: C_2  and  C_3 
REMARK    2  A    between atoms: C_3  and  C_4 
REMARK    3  A    between atoms: N_7  and  C_9 
REMARK    4  A    between atoms: C_9  and  C_10 
REMARK    5  A    between atoms: N_23  and  C_24 
REMARK    6  A    between atoms: C_24  and  C_25 
ROOT
HETATM    1  C   UNL     1       5.300  27.974  54.853  1.00  0.00     0.119 C 
HETATM    2  N   UNL     1       6.575  28.633  54.621  1.00  0.00    -0.324 N 
HETATM    3  C   UNL     1       7.472  27.799  53.984  1.00  0.00     0.326 C 
HETATM    4  O   UNL     1       8.537  28.200  53.553  1.00  0.00    -0.247 OA
HETATM    5  N   UNL     1       6.959  26.546  53.949  1.00  0.00    -0.264 N 
HETATM    6  C   UNL     1       5.701  26.527  54.476  1.00  0.00     0.257 C 
HETATM    7  O   UNL     1       4.989  25.545  54.626  1.00  0.00    -0.270 OA
HETATM    8  H   UNL     1       6.671  29.610  54.362  1.00  0.00     0.165 HD
ENDROOT
BRANCH   1   9
HETATM    9  C   UNL     1       4.290  28.501  53.805  1.00  0.00     0.037 C 
HETATM   10  C   UNL     1       4.611  29.864  53.204  1.00  0.00     0.008 C 
ENDBRANCH   1   9
BRANCH   1  11
HETATM   11  C   UNL     1       4.832  28.066  56.340  1.00  0.00     0.026 C 
HETATM   12  C   UNL     1       4.263  29.437  56.740  1.00  0.00     0.035 C 
HETATM   13  C   UNL     1       5.318  30.505  57.007  1.00  0.00     0.235 C 
HETATM   14  N   UNL     1       6.323  30.028  58.026  1.00  0.00    -0.067 N 
HETATM   15  H   UNL     1       5.818  29.908  58.913  1.00  0.00     0.280 HD
HETATM   16  C   UNL     1       6.948  28.696  57.674  1.00  0.00     0.235 C 
HETATM   17  C   UNL     1       5.877  27.653  57.399  1.00  0.00     0.035 C 
BRANCH  14  18
HETATM   18  C   UNL     1       7.428  31.040  58.297  1.00  0.00     0.273 C 
BRANCH  18  19
HETATM   19  C   UNL     1       7.758  31.248  59.750  1.00  0.00    -0.027 A 
HETATM   20  C   UNL     1       7.126  32.244  60.506  1.00  0.00     0.051 A 
HETATM   21  C   UNL     1       7.471  32.428  61.847  1.00  0.00     0.119 A 
HETATM   22  F   UNL     1       6.859  33.390  62.547  1.00  0.00    -0.206 F 
HETATM   23  C   UNL     1       8.439  31.646  62.458  1.00  0.00     0.084 A 
HETATM   24  C   UNL     1       9.062  30.659  61.711  1.00  0.00     0.119 A 
HETATM   25  F   UNL     1      10.004  29.895  62.275  1.00  0.00    -0.206 F 
HETATM   26  C   UNL     1       8.734  30.452  60.373  1.00  0.00     0.051 A 
ENDBRANCH  18  19
ENDBRANCH  14  18
ENDBRANCH   1  11
BRANCH   5  27
HETATM   27  C   UNL     1       7.650  25.397  53.410  1.00  0.00     0.175 C 
BRANCH  27  28
HETATM   28  C   UNL     1       7.837  24.323  54.457  1.00  0.00    -0.037 A 
HETATM   29  C   UNL     1       7.609  22.975  54.136  1.00  0.00     0.048 A 
HETATM   30  C   UNL     1       7.813  22.031  55.119  1.00  0.00     0.105 A 
HETATM   31  C   UNL     1       8.212  22.379  56.388  1.00  0.00     0.105 A 
HETATM   32  O   UNL     1       7.660  20.688  54.976  1.00  0.00    -0.323 OA
HETATM   33  O   UNL     1       8.362  21.298  57.199  1.00  0.00    -0.323 OA
HETATM   34  C   UNL     1       8.422  23.691  56.749  1.00  0.00     0.040 A 
HETATM   35  C   UNL     1       8.103  20.224  56.269  1.00  0.00     0.352 A 
HETATM   36  C   UNL     1       8.230  24.672  55.771  1.00  0.00     0.012 A 
ENDBRANCH  27  28
ENDBRANCH   5  27
TORSDOF 6
ENDMDL
MODEL 4
REMARK VINA RESULT:     -10.5      2.498      3.973
REMARK  6 active torsions:
REMARK  status: ('A' for Active; 'I' for Inactive)
REMARK    1  A    between atoms: C_2  and  C_3 
REMARK    2  A    between atoms: C_3  and  C_4 
REMARK    3  A    between atoms: N_7  and  C_9 
REMARK    4  A    between atoms: C_9  and  C_10 
REMARK    5  A    between atoms: N_23  and  C_24 
REMARK    6  A    between atoms: C_24  and  C_25 
ROOT
HETATM    1  C   UNL     1       5.415  28.664  56.545  1.00  0.00     0.119 C 
HETATM    2  N   UNL     1       4.063  29.082  56.880  1.00  0.00    -0.324 N 
HETATM    3  C   UNL     1       4.018  30.411  57.251  1.00  0.00     0.326 C 
HETATM    4  O   UNL     1       2.968  31.004  57.415  1.00  0.00    -0.247 OA
HETATM    5  N   UNL     1       5.284  30.872  57.389  1.00  0.00    -0.264 N 
HETATM    6  C   UNL     1       6.187  29.911  57.041  1.00  0.00     0.257 C 
HETATM    7  O   UNL     1       7.404  30.001  57.097  1.00  0.00    -0.270 OA
HETATM    8  H   UNL     1       3.233  28.768  56.389  1.00  0.00     0.165 HD
ENDROOT
BRANCH   1   9
HETATM    9  C   UNL     1       5.526  28.589  55.003  1.00  0.00     0.037 C 
HETATM   10  C   UNL     1       4.205  28.554  54.246  1.00  0.00     0.008 C 
ENDBRANCH   1   9
BRANCH   1  11
HETATM   11  C   UNL     1       5.858  27.378  57.313  1.00  0.00     0.026 C 
HETATM   12  C   UNL     1       7.366  27.085  57.237  1.00  0.00     0.035 C 
HETATM   13  C   UNL     1       7.822  26.458  55.924  1.00  0.00     0.235 C 
HETATM   14  N   UNL     1       7.022  25.217  55.612  1.00  0.00    -0.067 N 
HETATM   15  H   UNL     1       7.242  24.528  56.342  1.00  0.00     0.280 HD
HETATM   16  C   UNL     1       5.527  25.446  55.637  1.00  0.00     0.235 C 
HETATM   17  C   UNL     1       5.101  26.084  56.949  1.00  0.00     0.035 C 
BRANCH  14  18
HETATM   18  C   UNL     1       7.407  24.575  54.286  1.00  0.00     0.273 C 
BRANCH  18  19
HETATM   19  C   UNL     1       7.633  23.089  54.342  1.00  0.00    -0.027 A 
HETATM   20  C   UNL     1       7.606  22.392  55.558  1.00  0.00     0.051 A 
HETATM   21  C   UNL     1       7.844  21.016  55.580  1.00  0.00     0.119 A 
HETATM   22  F   UNL     1       7.819  20.373  56.753  1.00  0.00    -0.206 F 
HETATM   23  C   UNL     1       8.115  20.310  54.418  1.00  0.00     0.084 A 
HETATM   24  C   UNL     1       8.139  20.999  53.215  1.00  0.00     0.119 A 
HETATM   25  F   UNL     1       8.406  20.342  52.080  1.00  0.00    -0.206 F 
HETATM   26  C   UNL     1       7.902  22.371  53.164  1.00  0.00     0.051 A 
ENDBRANCH  18  19
ENDBRANCH  14  18
ENDBRANCH   1  11
BRANCH   5  27
HETATM   27  C   UNL     1       5.621  32.208  57.827  1.00  0.00     0.175 C 
BRANCH  27  28
HETATM   28  C   UNL     1       5.836  32.261  59.322  1.00  0.00    -0.037 A 
HETATM   29  C   UNL     1       7.133  32.163  59.854  1.00  0.00     0.048 A 
HETATM   30  C   UNL     1       7.279  32.238  61.223  1.00  0.00     0.105 A 
HETATM   31  C   UNL     1       6.199  32.385  62.062  1.00  0.00     0.105 A 
HETATM   32  O   UNL     1       8.456  32.182  61.901  1.00  0.00    -0.323 OA
HETATM   33  O   UNL     1       6.564  32.444  63.370  1.00  0.00    -0.323 OA
HETATM   34  C   UNL     1       4.911  32.460  61.581  1.00  0.00     0.040 A 
HETATM   35  C   UNL     1       8.003  32.411  63.252  1.00  0.00     0.352 A 
HETATM   36  C   UNL     1       4.731  32.395  60.195  1.00  0.00     0.012 A 
ENDBRANCH  27  28
ENDBRANCH   5  27
TORSDOF 6
ENDMDL
MODEL 5
REMARK VINA RESULT:      -9.9      2.997      6.002
REMARK  6 active torsions:
REMARK  status: ('A' for Active; 'I' for Inactive)
REMARK    1  A    between atoms: C_2  and  C_3 
REMARK    2  A    between atoms: C_3  and  C_4 
REMARK    3  A    between atoms: N_7  and  C_9 
REMARK    4  A    between atoms: C_9  and  C_10 
REMARK    5  A    between atoms: N_23  and  C_24 
REMARK    6  A    between atoms: C_24  and  C_25 
ROOT
HETATM    1  C   UNL     1       5.903  27.750  55.340  1.00  0.00     0.119 C 
HETATM    2  N   UNL     1       5.873  26.688  54.348  1.00  0.00    -0.324 N 
HETATM    3  C   UNL     1       4.931  26.932  53.367  1.00  0.00     0.326 C 
HETATM    4  O   UNL     1       4.853  26.255  52.359  1.00  0.00    -0.247 OA
HETATM    5  N   UNL     1       4.175  27.992  53.739  1.00  0.00    -0.264 N 
HETATM    6  C   UNL     1       4.632  28.523  54.909  1.00  0.00     0.257 C 
HETATM    7  O   UNL     1       4.142  29.457  55.526  1.00  0.00    -0.270 OA
HETATM    8  H   UNL     1       6.697  26.203  54.009  1.00  0.00     0.165 HD
ENDROOT
BRANCH   1   9
HETATM    9  C   UNL     1       7.143  28.633  55.061  1.00  0.00     0.037 C 
HETATM   10  C   UNL     1       8.139  28.074  54.053  1.00  0.00     0.008 C 
ENDBRANCH   1   9
BRANCH   1  11
HETATM   11  C   UNL     1       5.775  27.216  56.803  1.00  0.00     0.026 C 
HETATM   12  C   UNL     1       7.090  27.240  57.600  1.00  0.00     0.035 C 
HETATM   13  C   UNL     1       8.050  26.103  57.270  1.00  0.00     0.235 C 
HETATM   14  N   UNL     1       7.368  24.764  57.406  1.00  0.00    -0.067 N 
HETATM   15  H   UNL     1       7.130  24.648  58.400  1.00  0.00     0.280 HD
HETATM   16  C   UNL     1       6.082  24.662  56.616  1.00  0.00     0.235 C 
HETATM   17  C   UNL     1       5.149  25.814  56.953  1.00  0.00     0.035 C 
BRANCH  14  18
HETATM   18  C   UNL     1       8.271  23.592  57.043  1.00  0.00     0.273 C 
BRANCH  18  19
HETATM   19  C   UNL     1       8.168  23.130  55.615  1.00  0.00    -0.027 A 
HETATM   20  C   UNL     1       8.253  24.035  54.548  1.00  0.00     0.051 A 
HETATM   21  C   UNL     1       8.129  23.579  53.234  1.00  0.00     0.119 A 
HETATM   22  F   UNL     1       8.207  24.461  52.231  1.00  0.00    -0.206 F 
HETATM   23  C   UNL     1       7.918  22.238  52.951  1.00  0.00     0.084 A 
HETATM   24  C   UNL     1       7.837  21.343  54.006  1.00  0.00     0.119 A 
HETATM   25  F   UNL     1       7.626  20.045  53.760  1.00  0.00    -0.206 F 
HETATM   26  C   UNL     1       7.960  21.771  55.326  1.00  0.00     0.051 A 
ENDBRANCH  18  19
ENDBRANCH  14  18
ENDBRANCH   1  11
BRANCH   5  27
HETATM   27  C   UNL     1       3.051  28.496  52.983  1.00  0.00     0.175 C 
BRANCH  27  28
HETATM   28  C   UNL     1       3.504  29.226  51.739  1.00  0.00    -0.037 A 
HETATM   29  C   UNL     1       4.588  30.118  51.799  1.00  0.00     0.048 A 
HETATM   30  C   UNL     1       4.977  30.744  50.633  1.00  0.00     0.105 A 
HETATM   31  C   UNL     1       4.325  30.530  49.442  1.00  0.00     0.105 A 
HETATM   32  O   UNL     1       6.012  31.616  50.507  1.00  0.00    -0.323 OA
HETATM   33  O   UNL     1       4.871  31.238  48.418  1.00  0.00    -0.323 OA
HETATM   34  C   UNL     1       3.243  29.683  49.348  1.00  0.00     0.040 A 
HETATM   35  C   UNL     1       5.999  31.848  49.082  1.00  0.00     0.352 A 
HETATM   36  C   UNL     1       2.829  29.027  50.512  1.00  0.00     0.012 A 
ENDBRANCH  27  28
ENDBRANCH   5  27
TORSDOF 6
ENDMDL
MODEL 6
REMARK VINA RESULT:      -9.8      3.238      6.436
REMARK  6 active torsions:
REMARK  status: ('A' for Active; 'I' for Inactive)
REMARK    1  A    between atoms: C_2  and  C_3 
REMARK    2  A    between atoms: C_3  and  C_4 
REMARK    3  A    between atoms: N_7  and  C_9 
REMARK    4  A    between atoms: C_9  and  C_10 
REMARK    5  A    between atoms: N_23  and  C_24 
REMARK    6  A    between atoms: C_24  and  C_25 
ROOT
HETATM    1  C   UNL     1       5.947  27.761  55.299  1.00  0.00     0.119 C 
HETATM    2  N   UNL     1       5.943  26.704  54.300  1.00  0.00    -0.324 N 
HETATM    3  C   UNL     1       5.029  26.955  53.295  1.00  0.00     0.326 C 
HETATM    4  O   UNL     1       4.979  26.282  52.282  1.00  0.00    -0.247 OA
HETATM    5  N   UNL     1       4.264  28.014  53.651  1.00  0.00    -0.264 N 
HETATM    6  C   UNL     1       4.690  28.538  54.837  1.00  0.00     0.257 C 
HETATM    7  O   UNL     1       4.183  29.469  55.445  1.00  0.00    -0.270 OA
HETATM    8  H   UNL     1       6.776  26.219  53.982  1.00  0.00     0.165 HD
ENDROOT
BRANCH   1   9
HETATM    9  C   UNL     1       7.195  28.644  55.058  1.00  0.00     0.037 C 
HETATM   10  C   UNL     1       8.215  28.091  54.071  1.00  0.00     0.008 C 
ENDBRANCH   1   9
BRANCH   1  11
HETATM   11  C   UNL     1       5.778  27.220  56.754  1.00  0.00     0.026 C 
HETATM   12  C   UNL     1       7.075  27.216  57.581  1.00  0.00     0.035 C 
HETATM   13  C   UNL     1       8.023  26.065  57.264  1.00  0.00     0.235 C 
HETATM   14  N   UNL     1       7.316  24.737  57.376  1.00  0.00    -0.067 N 
HETATM   15  H   UNL     1       7.054  24.619  58.363  1.00  0.00     0.280 HD
HETATM   16  C   UNL     1       6.046  24.662  56.556  1.00  0.00     0.235 C 
HETATM   17  C   UNL     1       5.125  25.827  56.881  1.00  0.00     0.035 C 
BRANCH  14  18
HETATM   18  C   UNL     1       8.207  23.553  57.024  1.00  0.00     0.273 C 
BRANCH  18  19
HETATM   19  C   UNL     1       8.110  23.087  55.597  1.00  0.00    -0.027 A 
HETATM   20  C   UNL     1       7.945  21.731  55.283  1.00  0.00     0.051 A 
HETATM   21  C   UNL     1       7.884  21.326  53.948  1.00  0.00     0.119 A 
HETATM   22  F   UNL     1       7.732  20.026  53.671  1.00  0.00    -0.206 F 
HETATM   23  C   UNL     1       7.988  22.239  52.909  1.00  0.00     0.084 A 
HETATM   24  C   UNL     1       8.148  23.580  53.221  1.00  0.00     0.119 A 
HETATM   25  F   UNL     1       8.259  24.481  52.237  1.00  0.00    -0.206 F 
HETATM   26  C   UNL     1       8.210  24.011  54.544  1.00  0.00     0.051 A 
ENDBRANCH  18  19
ENDBRANCH  14  18
ENDBRANCH   1  11
BRANCH   5  27
HETATM   27  C   UNL     1       3.162  28.523  52.867  1.00  0.00     0.175 C 
BRANCH  27  28
HETATM   28  C   UNL     1       3.648  29.196  51.604  1.00  0.00    -0.037 A 
HETATM   29  C   UNL     1       3.222  28.734  50.348  1.00  0.00     0.048 A 
HETATM   30  C   UNL     1       3.677  29.395  49.226  1.00  0.00     0.105 A 
HETATM   31  C   UNL     1       4.535  30.465  49.312  1.00  0.00     0.105 A 
HETATM   32  O   UNL     1       3.350  29.095  47.940  1.00  0.00    -0.323 OA
HETATM   33  O   UNL     1       4.853  30.974  48.091  1.00  0.00    -0.323 OA
HETATM   34  C   UNL     1       4.994  30.933  50.523  1.00  0.00     0.040 A 
HETATM   35  C   UNL     1       4.022  30.160  47.235  1.00  0.00     0.352 A 
HETATM   36  C   UNL     1       4.545  30.288  51.680  1.00  0.00     0.012 A 
ENDBRANCH  27  28
ENDBRANCH   5  27
TORSDOF 6
ENDMDL
MODEL 7
REMARK VINA RESULT:      -9.7      3.863      7.195
REMARK  6 active torsions:
REMARK  status: ('A' for Active; 'I' for Inactive)
REMARK    1  A    between atoms: C_2  and  C_3 
REMARK    2  A    between atoms: C_3  and  C_4 
REMARK    3  A    between atoms: N_7  and  C_9 
REMARK    4  A    between atoms: C_9  and  C_10 
REMARK    5  A    between atoms: N_23  and  C_24 
REMARK    6  A    between atoms: C_24  and  C_25 
ROOT
HETATM    1  C   UNL     1       6.059  28.150  56.386  1.00  0.00     0.119 C 
HETATM    2  N   UNL     1       5.123  27.056  56.181  1.00  0.00    -0.324 N 
HETATM    3  C   UNL     1       5.624  25.860  56.656  1.00  0.00     0.326 C 
HETATM    4  O   UNL     1       4.942  24.855  56.730  1.00  0.00    -0.247 OA
HETATM    5  N   UNL     1       6.926  26.029  56.986  1.00  0.00    -0.264 N 
HETATM    6  C   UNL     1       7.298  27.332  56.823  1.00  0.00     0.257 C 
HETATM    7  O   UNL     1       8.415  27.796  56.996  1.00  0.00    -0.270 OA
HETATM    8  H   UNL     1       4.116  27.143  56.277  1.00  0.00     0.165 HD
ENDROOT
BRANCH   1   9
HETATM    9  C   UNL     1       5.563  28.987  57.591  1.00  0.00     0.037 C 
HETATM   10  C   UNL     1       6.143  30.390  57.703  1.00  0.00     0.008 C 
ENDBRANCH   1   9
BRANCH   1  11
HETATM   11  C   UNL     1       6.342  28.957  55.079  1.00  0.00     0.026 C 
HETATM   12  C   UNL     1       5.082  29.329  54.281  1.00  0.00     0.035 C 
HETATM   13  C   UNL     1       4.502  28.189  53.450  1.00  0.00     0.235 C 
HETATM   14  N   UNL     1       5.552  27.594  52.543  1.00  0.00    -0.067 N 
HETATM   15  H   UNL     1       5.815  28.325  51.869  1.00  0.00     0.280 HD
HETATM   16  C   UNL     1       6.808  27.175  53.274  1.00  0.00     0.235 C 
HETATM   17  C   UNL     1       7.357  28.323  54.105  1.00  0.00     0.035 C 
BRANCH  14  18
HETATM   18  C   UNL     1       5.037  26.420  51.721  1.00  0.00     0.273 C 
BRANCH  18  19
HETATM   19  C   UNL     1       4.797  26.719  50.267  1.00  0.00    -0.027 A 
HETATM   20  C   UNL     1       4.206  25.774  49.416  1.00  0.00     0.051 A 
HETATM   21  C   UNL     1       4.018  26.072  48.065  1.00  0.00     0.119 A 
HETATM   22  F   UNL     1       3.458  25.153  47.270  1.00  0.00    -0.206 F 
HETATM   23  C   UNL     1       4.410  27.291  47.532  1.00  0.00     0.084 A 
HETATM   24  C   UNL     1       4.993  28.226  48.373  1.00  0.00     0.119 A 
HETATM   25  F   UNL     1       5.387  29.406  47.882  1.00  0.00    -0.206 F 
HETATM   26  C   UNL     1       5.188  27.955  49.726  1.00  0.00     0.051 A 
ENDBRANCH  18  19
ENDBRANCH  14  18
ENDBRANCH   1  11
BRANCH   5  27
HETATM   27  C   UNL     1       7.790  24.973  57.463  1.00  0.00     0.175 C 
BRANCH  27  28
HETATM   28  C   UNL     1       8.052  23.945  56.386  1.00  0.00    -0.037 A 
HETATM   29  C   UNL     1       8.326  22.612  56.733  1.00  0.00     0.048 A 
HETATM   30  C   UNL     1       8.538  21.708  55.713  1.00  0.00     0.105 A 
HETATM   31  C   UNL     1       8.503  22.083  54.391  1.00  0.00     0.105 A 
HETATM   32  O   UNL     1       8.794  20.381  55.868  1.00  0.00    -0.323 OA
HETATM   33  O   UNL     1       8.730  21.039  53.550  1.00  0.00    -0.323 OA
HETATM   34  C   UNL     1       8.262  23.384  54.012  1.00  0.00     0.040 A 
HETATM   35  C   UNL     1       8.818  19.947  54.492  1.00  0.00     0.352 A 
HETATM   36  C   UNL     1       8.036  24.324  55.023  1.00  0.00     0.012 A 
ENDBRANCH  27  28
ENDBRANCH   5  27
TORSDOF 6
ENDMDL
MODEL 8
REMARK VINA RESULT:      -9.6      2.388      5.918
REMARK  6 active torsions:
REMARK  status: ('A' for Active; 'I' for Inactive)
REMARK    1  A    between atoms: C_2  and  C_3 
REMARK    2  A    between atoms: C_3  and  C_4 
REMARK    3  A    between atoms: N_7  and  C_9 
REMARK    4  A    between atoms: C_9  and  C_10 
REMARK    5  A    between atoms: N_23  and  C_24 
REMARK    6  A    between atoms: C_24  and  C_25 
ROOT
HETATM    1  C   UNL     1       7.289  27.963  57.198  1.00  0.00     0.119 C 
HETATM    2  N   UNL     1       8.184  27.884  56.054  1.00  0.00    -0.324 N 
HETATM    3  C   UNL     1       7.639  28.488  54.938  1.00  0.00     0.326 C 
HETATM    4  O   UNL     1       8.283  28.676  53.923  1.00  0.00    -0.247 OA
HETATM    5  N   UNL     1       6.344  28.793  55.191  1.00  0.00    -0.264 N 
HETATM    6  C   UNL     1       6.020  28.484  56.480  1.00  0.00     0.257 C 
HETATM    7  O   UNL     1       4.922  28.600  57.002  1.00  0.00    -0.270 OA
HETATM    8  H   UNL     1       9.193  27.975  56.115  1.00  0.00     0.165 HD
ENDROOT
BRANCH   1   9
HETATM    9  C   UNL     1       7.817  29.068  58.145  1.00  0.00     0.037 C 
HETATM   10  C   UNL     1       9.184  29.640  57.796  1.00  0.00     0.008 C 
ENDBRANCH   1   9
BRANCH   1  11
HETATM   11  C   UNL     1       7.036  26.573  57.864  1.00  0.00     0.026 C 
HETATM   12  C   UNL     1       8.174  25.559  57.663  1.00  0.00     0.035 C 
HETATM   13  C   UNL     1       8.193  24.896  56.290  1.00  0.00     0.235 C 
HETATM   14  N   UNL     1       6.858  24.268  55.975  1.00  0.00    -0.067 N 
HETATM   15  H   UNL     1       6.718  23.506  56.651  1.00  0.00     0.280 HD
HETATM   16  C   UNL     1       5.696  25.225  56.121  1.00  0.00     0.235 C 
HETATM   17  C   UNL     1       5.707  25.883  57.491  1.00  0.00     0.035 C 
BRANCH  14  18
HETATM   18  C   UNL     1       6.808  23.630  54.593  1.00  0.00     0.273 C 
BRANCH  18  19
HETATM   19  C   UNL     1       7.572  22.340  54.461  1.00  0.00    -0.027 A 
HETATM   20  C   UNL     1       7.758  21.728  53.214  1.00  0.00     0.051 A 
HETATM   21  C   UNL     1       8.451  20.519  53.127  1.00  0.00     0.119 A 
HETATM   22  F   UNL     1       8.612  19.949  51.926  1.00  0.00    -0.206 F 
HETATM   23  C   UNL     1       8.963  19.895  54.254  1.00  0.00     0.084 A 
HETATM   24  C   UNL     1       8.780  20.502  55.487  1.00  0.00     0.119 A 
HETATM   25  F   UNL     1       9.257  19.917  56.591  1.00  0.00    -0.206 F 
HETATM   26  C   UNL     1       8.096  21.710  55.602  1.00  0.00     0.051 A 
ENDBRANCH  18  19
ENDBRANCH  14  18
ENDBRANCH   1  11
BRANCH   5  27
HETATM   27  C   UNL     1       5.442  29.381  54.228  1.00  0.00     0.175 C 
BRANCH  27  28
HETATM   28  C   UNL     1       5.242  28.476  53.034  1.00  0.00    -0.037 A 
HETATM   29  C   UNL     1       5.170  29.018  51.740  1.00  0.00     0.048 A 
HETATM   30  C   UNL     1       5.008  28.149  50.682  1.00  0.00     0.105 A 
HETATM   31  C   UNL     1       4.899  26.791  50.867  1.00  0.00     0.105 A 
HETATM   32  O   UNL     1       4.939  28.499  49.369  1.00  0.00    -0.323 OA
HETATM   33  O   UNL     1       4.753  26.118  49.695  1.00  0.00    -0.323 OA
HETATM   34  C   UNL     1       4.940  26.224  52.121  1.00  0.00     0.040 A 
HETATM   35  C   UNL     1       4.876  27.199  48.745  1.00  0.00     0.352 A 
HETATM   36  C   UNL     1       5.112  27.079  53.215  1.00  0.00     0.012 A 
ENDBRANCH  27  28
ENDBRANCH   5  27
TORSDOF 6
ENDMDL
MODEL 9
REMARK VINA RESULT:      -9.5      4.241      8.701
REMARK  6 active torsions:
REMARK  status: ('A' for Active; 'I' for Inactive)
REMARK    1  A    between atoms: C_2  and  C_3 
REMARK    2  A    between atoms: C_3  and  C_4 
REMARK    3  A    between atoms: N_7  and  C_9 
REMARK    4  A    between atoms: C_9  and  C_10 
REMARK    5  A    between atoms: N_23  and  C_24 
REMARK    6  A    between atoms: C_24  and  C_25 
ROOT
HETATM    1  C   UNL     1       5.735  27.561  55.242  1.00  0.00     0.119 C 
HETATM    2  N   UNL     1       4.716  26.802  54.535  1.00  0.00    -0.324 N 
HETATM    3  C   UNL     1       5.271  25.805  53.757  1.00  0.00     0.326 C 
HETATM    4  O   UNL     1       4.592  24.955  53.211  1.00  0.00    -0.247 OA
HETATM    5  N   UNL     1       6.615  25.966  53.728  1.00  0.00    -0.264 N 
HETATM    6  C   UNL     1       6.993  27.000  54.534  1.00  0.00     0.257 C 
HETATM    7  O   UNL     1       8.128  27.423  54.691  1.00  0.00    -0.270 OA
HETATM    8  H   UNL     1       3.814  26.557  54.929  1.00  0.00     0.165 HD
ENDROOT
BRANCH   1   9
HETATM    9  C   UNL     1       5.743  27.093  56.718  1.00  0.00     0.037 C 
HETATM   10  C   UNL     1       5.009  25.789  57.002  1.00  0.00     0.008 C 
ENDBRANCH   1   9
BRANCH   1  11
HETATM   11  C   UNL     1       5.601  29.102  55.028  1.00  0.00     0.026 C 
HETATM   12  C   UNL     1       6.363  29.952  56.059  1.00  0.00     0.035 C 
HETATM   13  C   UNL     1       5.667  30.080  57.409  1.00  0.00     0.235 C 
HETATM   14  N   UNL     1       4.254  30.583  57.243  1.00  0.00    -0.067 N 
HETATM   15  H   UNL     1       4.319  31.540  56.870  1.00  0.00     0.280 HD
HETATM   16  C   UNL     1       3.438  29.768  56.264  1.00  0.00     0.235 C 
HETATM   17  C   UNL     1       4.159  29.643  54.932  1.00  0.00     0.035 C 
BRANCH  14  18
HETATM   18  C   UNL     1       3.496  30.687  58.559  1.00  0.00     0.273 C 
BRANCH  18  19
HETATM   19  C   UNL     1       3.642  32.003  59.275  1.00  0.00    -0.027 A 
HETATM   20  C   UNL     1       3.898  33.189  58.574  1.00  0.00     0.051 A 
HETATM   21  C   UNL     1       4.052  34.391  59.268  1.00  0.00     0.119 A 
HETATM   22  F   UNL     1       4.303  35.510  58.579  1.00  0.00    -0.206 F 
HETATM   23  C   UNL     1       3.963  34.444  60.651  1.00  0.00     0.084 A 
HETATM   24  C   UNL     1       3.707  33.271  61.344  1.00  0.00     0.119 A 
HETATM   25  F   UNL     1       3.624  33.293  62.679  1.00  0.00    -0.206 F 
HETATM   26  C   UNL     1       3.546  32.059  60.675  1.00  0.00     0.051 A 
ENDBRANCH  18  19
ENDBRANCH  14  18
ENDBRANCH   1  11
BRANCH   5  27
HETATM   27  C   UNL     1       7.518  25.139  52.961  1.00  0.00     0.175 C 
BRANCH  27  28
HETATM   28  C   UNL     1       7.745  23.802  53.628  1.00  0.00    -0.037 A 
HETATM   29  C   UNL     1       8.009  23.735  55.006  1.00  0.00     0.048 A 
HETATM   30  C   UNL     1       8.187  22.490  55.572  1.00  0.00     0.105 A 
HETATM   31  C   UNL     1       8.130  21.338  54.824  1.00  0.00     0.105 A 
HETATM   32  O   UNL     1       8.429  22.243  56.887  1.00  0.00    -0.323 OA
HETATM   33  O   UNL     1       8.326  20.222  55.577  1.00  0.00    -0.323 OA
HETATM   34  C   UNL     1       7.898  21.363  53.468  1.00  0.00     0.040 A 
HETATM   35  C   UNL     1       8.419  20.799  56.897  1.00  0.00     0.352 A 
HETATM   36  C   UNL     1       7.706  22.611  52.865  1.00  0.00     0.012 A 
ENDBRANCH  27  28
ENDBRANCH   5  27
TORSDOF 6
ENDMDL
MODEL 10
REMARK VINA RESULT:      -9.5      4.500      6.465
REMARK  6 active torsions:
REMARK  status: ('A' for Active; 'I' for Inactive)
REMARK    1  A    between atoms: C_2  and  C_3 
REMARK    2  A    between atoms: C_3  and  C_4 
REMARK    3  A    between atoms: N_7  and  C_9 
REMARK    4  A    between atoms: C_9  and  C_10 
REMARK    5  A    between atoms: N_23  and  C_24 
REMARK    6  A    between atoms: C_24  and  C_25 
ROOT
HETATM    1  C   UNL     1       6.557  26.141  54.108  1.00  0.00     0.119 C 
HETATM    2  N   UNL     1       7.276  27.344  53.720  1.00  0.00    -0.324 N 
HETATM    3  C   UNL     1       8.002  27.865  54.773  1.00  0.00     0.326 C 
HETATM    4  O   UNL     1       8.799  28.773  54.625  1.00  0.00    -0.247 OA
HETATM    5  N   UNL     1       7.662  27.211  55.909  1.00  0.00    -0.264 N 
HETATM    6  C   UNL     1       6.782  26.204  55.639  1.00  0.00     0.257 C 
HETATM    7  O   UNL     1       6.255  25.460  56.452  1.00  0.00    -0.270 OA
HETATM    8  H   UNL     1       7.717  27.476  52.816  1.00  0.00     0.165 HD
ENDROOT
BRANCH   1   9
HETATM    9  C   UNL     1       7.323  24.920  53.541  1.00  0.00     0.037 C 
HETATM   10  C   UNL     1       8.145  25.180  52.286  1.00  0.00     0.008 C 
ENDBRANCH   1   9
BRANCH   1  11
HETATM   11  C   UNL     1       5.038  26.203  53.754  1.00  0.00     0.026 C 
HETATM   12  C   UNL     1       4.543  25.034  52.885  1.00  0.00     0.035 C 
HETATM   13  C   UNL     1       4.893  25.154  51.406  1.00  0.00     0.235 C 
HETATM   14  N   UNL     1       4.419  26.472  50.845  1.00  0.00    -0.067 N 
HETATM   15  H   UNL     1       3.392  26.465  50.889  1.00  0.00     0.280 HD
HETATM   16  C   UNL     1       4.900  27.669  51.636  1.00  0.00     0.235 C 
HETATM   17  C   UNL     1       4.552  27.518  53.108  1.00  0.00     0.035 C 
BRANCH  14  18
HETATM   18  C   UNL     1       4.783  26.665  49.379  1.00  0.00     0.273 C 
BRANCH  18  19
HETATM   19  C   UNL     1       3.755  27.398  48.560  1.00  0.00    -0.027 A 
HETATM   20  C   UNL     1       2.445  26.916  48.432  1.00  0.00     0.051 A 
HETATM   21  C   UNL     1       1.521  27.606  47.645  1.00  0.00     0.119 A 
HETATM   22  F   UNL     1       0.278  27.124  47.532  1.00  0.00    -0.206 F 
HETATM   23  C   UNL     1       1.868  28.768  46.973  1.00  0.00     0.084 A 
HETATM   24  C   UNL     1       3.163  29.246  47.101  1.00  0.00     0.119 A 
HETATM   25  F   UNL     1       3.525  30.361  46.457  1.00  0.00    -0.206 F 
HETATM   26  C   UNL     1       4.104  28.579  47.883  1.00  0.00     0.051 A 
ENDBRANCH  18  19
ENDBRANCH  14  18
ENDBRANCH   1  11
BRANCH   5  27
HETATM   27  C   UNL     1       8.179  27.532  57.220  1.00  0.00     0.175 C 
BRANCH  27  28
HETATM   28  C   UNL     1       7.742  28.908  57.665  1.00  0.00    -0.037 A 
HETATM   29  C   UNL     1       6.406  29.313  57.503  1.00  0.00     0.048 A 
HETATM   30  C   UNL     1       6.052  30.570  57.943  1.00  0.00     0.105 A 
HETATM   31  C   UNL     1       6.967  31.425  58.511  1.00  0.00     0.105 A 
HETATM   32  O   UNL     1       4.806  31.112  57.883  1.00  0.00    -0.323 OA
HETATM   33  O   UNL     1       6.410  32.609  58.882  1.00  0.00    -0.323 OA
HETATM   34  C   UNL     1       8.289  31.075  58.665  1.00  0.00     0.040 A 
HETATM   35  C   UNL     1       5.021  32.364  58.567  1.00  0.00     0.352 A 
HETATM   36  C   UNL     1       8.679  29.802  58.234  1.00  0.00     0.012 A 
ENDBRANCH  27  28
ENDBRANCH   5  27
TORSDOF 6
ENDMDL
