MODEL 1
REMARK VINA RESULT:      -8.1      0.000      0.000
REMARK  7 active torsions:
REMARK  status: ('A' for Active; 'I' for Inactive)
REMARK    1  A    between atoms: C_2  and  O_3 
REMARK    2  A    between atoms: O_3  and  C_4 
REMARK       I    between atoms: C_4  and  N_5 
REMARK    3  A    between atoms: N_5  and  C_6 
REMARK    4  A    between atoms: C_7  and  N_8 
REMARK    5  A    between atoms: C_11  and  N_12 
REMARK    6  A    between atoms: N_12  and  C_13 
REMARK    7  A    between atoms: C_13  and  C_14 
ROOT
HETATM    1  C   UNL     1       8.886  29.929  58.227  1.00  0.00     0.080 A 
HETATM    2  C   UNL     1       9.882  29.761  57.233  1.00  0.00     0.127 A 
HETATM    3  N   UNL     1       9.493  29.330  56.027  1.00  0.00    -0.332 N 
HETATM    4  H   UNL     1      10.183  29.247  55.289  1.00  0.00     0.168 HD
HETATM    5  C   UNL     1       8.242  29.019  55.683  1.00  0.00     0.081 A 
HETATM    6  C   UNL     1       7.233  29.161  56.624  1.00  0.00     0.044 A 
HETATM    7  C   UNL     1       7.557  29.636  57.893  1.00  0.00     0.037 A 
ENDROOT
BRANCH   5   8
HETATM    8  N   UNL     1       8.077  28.553  54.389  1.00  0.00    -0.275 NA
HETATM    9  H   UNL     1       8.857  27.932  54.153  1.00  0.00     0.129 HD
BRANCH   8  10
HETATM   10  C   UNL     1       6.851  27.769  54.174  1.00  0.00     0.132 C 
BRANCH  10  11
HETATM   11  C   UNL     1       7.241  26.349  53.850  1.00  0.00    -0.045 A 
HETATM   12  C   UNL     1       7.464  25.413  54.876  1.00  0.00     0.011 A 
HETATM   13  C   UNL     1       7.844  24.105  54.567  1.00  0.00     0.043 A 
HETATM   14  C   UNL     1       7.999  23.730  53.238  1.00  0.00     0.116 A 
HETATM   15  F   UNL     1       8.363  22.476  52.944  1.00  0.00    -0.206 F 
HETATM   16  C   UNL     1       7.784  24.638  52.210  1.00  0.00     0.043 A 
HETATM   17  C   UNL     1       7.409  25.948  52.514  1.00  0.00     0.011 A 
ENDBRANCH  10  11
ENDBRANCH   8  10
ENDBRANCH   5   8
BRANCH   2  18
HETATM   18  N   UNL     1      11.194  30.174  57.349  1.00  0.00    -0.384 N 
HETATM   19  H   UNL     1      11.840  29.664  56.730  1.00  0.00     0.157 HD
HETATM   20  H   UNL     1      11.437  31.154  57.392  1.00  0.00     0.157 HD
ENDBRANCH   2  18
BRANCH   1  21
HETATM   21  N   UNL     1       9.094  30.363  59.555  1.00  0.00    -0.299 N 
HETATM   22  C   UNL     1       9.265  31.636  60.020  1.00  0.00     0.365 C 
HETATM   23  O   UNL     1       9.287  32.656  59.347  1.00  0.00    -0.238 OA
HETATM   24  H   UNL     1       9.275  29.672  60.274  1.00  0.00     0.171 HD
BRANCH  22  25
HETATM   25  O   UNL     1       9.470  31.576  61.357  1.00  0.00    -0.304 OA
BRANCH  25  26
HETATM   26  C   UNL     1       8.322  31.263  62.164  1.00  0.00     0.176 C 
HETATM   27  C   UNL     1       8.071  32.381  63.160  1.00  0.00     0.034 C 
ENDBRANCH  25  26
ENDBRANCH  22  25
ENDBRANCH   1  21
TORSDOF 7
ENDMDL
MODEL 2
REMARK VINA RESULT:      -8.0      2.767      4.310
REMARK  7 active torsions:
REMARK  status: ('A' for Active; 'I' for Inactive)
REMARK    1  A    between atoms: C_2  and  O_3 
REMARK    2  A    between atoms: O_3  and  C_4 
REMARK       I    between atoms: C_4  and  N_5 
REMARK    3  A    between atoms: N_5  and  C_6 
REMARK    4  A    between atoms: C_7  and  N_8 
REMARK    5  A    between atoms: C_11  and  N_12 
REMARK    6  A    between atoms: N_12  and  C_13 
REMARK    7  A    between atoms: C_13  and  C_14 
ROOT
HETATM    1  C   UNL     1       6.435  27.911  55.761  1.00  0.00     0.080 A 
HETATM    2  C   UNL     1       5.388  26.957  55.830  1.00  0.00     0.127 A 
HETATM    3  N   UNL     1       5.406  25.948  54.950  1.00  0.00    -0.332 N 
HETATM    4  H   UNL     1       4.692  25.231  55.012  1.00  0.00     0.168 HD
HETATM    5  C   UNL     1       6.318  25.773  53.992  1.00  0.00     0.081 A 
HETATM    6  C   UNL     1       7.358  26.684  53.881  1.00  0.00     0.044 A 
HETATM    7  C   UNL     1       7.424  27.744  54.783  1.00  0.00     0.037 A 
ENDROOT
BRANCH   5   8
HETATM    8  N   UNL     1       6.114  24.679  53.167  1.00  0.00    -0.275 NA
HETATM    9  H   UNL     1       5.613  24.979  52.326  1.00  0.00     0.129 HD
BRANCH   8  10
HETATM   10  C   UNL     1       7.349  24.030  52.698  1.00  0.00     0.132 C 
BRANCH  10  11
HETATM   11  C   UNL     1       7.609  22.818  53.558  1.00  0.00    -0.045 A 
HETATM   12  C   UNL     1       7.592  22.915  54.961  1.00  0.00     0.011 A 
HETATM   13  C   UNL     1       7.852  21.792  55.749  1.00  0.00     0.043 A 
HETATM   14  C   UNL     1       8.128  20.574  55.140  1.00  0.00     0.116 A 
HETATM   15  F   UNL     1       8.378  19.499  55.897  1.00  0.00    -0.206 F 
HETATM   16  C   UNL     1       8.151  20.456  53.756  1.00  0.00     0.043 A 
HETATM   17  C   UNL     1       7.895  21.577  52.964  1.00  0.00     0.011 A 
ENDBRANCH  10  11
ENDBRANCH   8  10
ENDBRANCH   5   8
BRANCH   2  18
HETATM   18  N   UNL     1       4.450  26.882  56.839  1.00  0.00    -0.384 N 
HETATM   19  H   UNL     1       3.717  26.180  56.665  1.00  0.00     0.157 HD
HETATM   20  H   UNL     1       4.722  26.883  57.813  1.00  0.00     0.157 HD
ENDBRANCH   2  18
BRANCH   1  21
HETATM   21  N   UNL     1       6.588  29.045  56.589  1.00  0.00    -0.299 N 
HETATM   22  C   UNL     1       7.264  29.153  57.772  1.00  0.00     0.365 C 
HETATM   23  O   UNL     1       7.860  28.257  58.350  1.00  0.00    -0.238 OA
HETATM   24  H   UNL     1       6.040  29.874  56.391  1.00  0.00     0.171 HD
BRANCH  22  25
HETATM   25  O   UNL     1       7.113  30.417  58.233  1.00  0.00    -0.304 OA
BRANCH  25  26
HETATM   26  C   UNL     1       7.920  30.783  59.365  1.00  0.00     0.176 C 
HETATM   27  C   UNL     1       9.157  31.529  58.898  1.00  0.00     0.034 C 
ENDBRANCH  25  26
ENDBRANCH  22  25
ENDBRANCH   1  21
TORSDOF 7
ENDMDL
MODEL 3
REMARK VINA RESULT:      -8.0      2.485      3.384
REMARK  7 active torsions:
REMARK  status: ('A' for Active; 'I' for Inactive)
REMARK    1  A    between atoms: C_2  and  O_3 
REMARK    2  A    between atoms: O_3  and  C_4 
REMARK       I    between atoms: C_4  and  N_5 
REMARK    3  A    between atoms: N_5  and  C_6 
REMARK    4  A    between atoms: C_7  and  N_8 
REMARK    5  A    between atoms: C_11  and  N_12 
REMARK    6  A    between atoms: N_12  and  C_13 
REMARK    7  A    between atoms: C_13  and  C_14 
ROOT
HETATM    1  C   UNL     1       7.204  28.861  57.537  1.00  0.00     0.080 A 
HETATM    2  C   UNL     1       5.918  28.298  57.342  1.00  0.00     0.127 A 
HETATM    3  N   UNL     1       5.849  27.022  56.943  1.00  0.00    -0.332 N 
HETATM    4  H   UNL     1       4.940  26.588  56.842  1.00  0.00     0.168 HD
HETATM    5  C   UNL     1       6.896  26.235  56.687  1.00  0.00     0.081 A 
HETATM    6  C   UNL     1       8.175  26.743  56.857  1.00  0.00     0.044 A 
HETATM    7  C   UNL     1       8.326  28.055  57.302  1.00  0.00     0.037 A 
ENDROOT
BRANCH   5   8
HETATM    8  N   UNL     1       6.588  24.959  56.245  1.00  0.00    -0.275 NA
HETATM    9  H   UNL     1       6.555  24.956  55.221  1.00  0.00     0.129 HD
BRANCH   8  10
HETATM   10  C   UNL     1       7.567  23.928  56.625  1.00  0.00     0.132 C 
BRANCH  10  11
HETATM   11  C   UNL     1       7.696  22.947  55.487  1.00  0.00    -0.045 A 
HETATM   12  C   UNL     1       7.789  21.566  55.735  1.00  0.00     0.011 A 
HETATM   13  C   UNL     1       7.927  20.667  54.676  1.00  0.00     0.043 A 
HETATM   14  C   UNL     1       7.973  21.143  53.371  1.00  0.00     0.116 A 
HETATM   15  F   UNL     1       8.106  20.280  52.357  1.00  0.00    -0.206 F 
HETATM   16  C   UNL     1       7.884  22.503  53.104  1.00  0.00     0.043 A 
HETATM   17  C   UNL     1       7.750  23.406  54.160  1.00  0.00     0.011 A 
ENDBRANCH  10  11
ENDBRANCH   8  10
ENDBRANCH   5   8
BRANCH   2  18
HETATM   18  N   UNL     1       4.728  28.899  57.700  1.00  0.00    -0.384 N 
HETATM   19  H   UNL     1       4.777  29.927  57.714  1.00  0.00     0.157 HD
HETATM   20  H   UNL     1       3.844  28.586  57.322  1.00  0.00     0.157 HD
ENDBRANCH   2  18
BRANCH   1  21
HETATM   21  N   UNL     1       7.485  30.184  57.945  1.00  0.00    -0.299 N 
HETATM   22  C   UNL     1       8.159  30.610  59.054  1.00  0.00     0.365 C 
HETATM   23  O   UNL     1       8.638  29.903  59.927  1.00  0.00    -0.238 OA
HETATM   24  H   UNL     1       7.042  30.953  57.454  1.00  0.00     0.171 HD
BRANCH  22  25
HETATM   25  O   UNL     1       8.156  31.965  59.058  1.00  0.00    -0.304 OA
BRANCH  25  26
HETATM   26  C   UNL     1       8.001  32.597  60.340  1.00  0.00     0.176 C 
HETATM   27  C   UNL     1       6.536  32.614  60.735  1.00  0.00     0.034 C 
ENDBRANCH  25  26
ENDBRANCH  22  25
ENDBRANCH   1  21
TORSDOF 7
ENDMDL
MODEL 4
REMARK VINA RESULT:      -7.7      2.248      3.189
REMARK  7 active torsions:
REMARK  status: ('A' for Active; 'I' for Inactive)
REMARK    1  A    between atoms: C_2  and  O_3 
REMARK    2  A    between atoms: O_3  and  C_4 
REMARK       I    between atoms: C_4  and  N_5 
REMARK    3  A    between atoms: N_5  and  C_6 
REMARK    4  A    between atoms: C_7  and  N_8 
REMARK    5  A    between atoms: C_11  and  N_12 
REMARK    6  A    between atoms: N_12  and  C_13 
REMARK    7  A    between atoms: C_13  and  C_14 
ROOT
HETATM    1  C   UNL     1       6.708  29.028  56.820  1.00  0.00     0.080 A 
HETATM    2  C   UNL     1       7.508  28.430  55.814  1.00  0.00     0.127 A 
HETATM    3  N   UNL     1       7.118  27.245  55.328  1.00  0.00    -0.332 N 
HETATM    4  H   UNL     1       7.652  26.823  54.577  1.00  0.00     0.168 HD
HETATM    5  C   UNL     1       6.045  26.561  55.728  1.00  0.00     0.081 A 
HETATM    6  C   UNL     1       5.234  27.102  56.715  1.00  0.00     0.044 A 
HETATM    7  C   UNL     1       5.558  28.349  57.246  1.00  0.00     0.037 A 
ENDROOT
BRANCH   5   8
HETATM    8  N   UNL     1       5.857  25.334  55.114  1.00  0.00    -0.275 NA
HETATM    9  H   UNL     1       4.921  25.305  54.698  1.00  0.00     0.129 HD
BRANCH   8  10
HETATM   10  C   UNL     1       6.800  25.047  54.022  1.00  0.00     0.132 C 
BRANCH  10  11
HETATM   11  C   UNL     1       7.267  23.620  54.155  1.00  0.00    -0.045 A 
HETATM   12  C   UNL     1       7.610  22.866  53.019  1.00  0.00     0.011 A 
HETATM   13  C   UNL     1       8.024  21.539  53.150  1.00  0.00     0.043 A 
HETATM   14  C   UNL     1       8.097  20.964  54.413  1.00  0.00     0.116 A 
HETATM   15  F   UNL     1       8.493  19.691  54.537  1.00  0.00    -0.206 F 
HETATM   16  C   UNL     1       7.762  21.690  55.549  1.00  0.00     0.043 A 
HETATM   17  C   UNL     1       7.344  23.015  55.422  1.00  0.00     0.011 A 
ENDBRANCH  10  11
ENDBRANCH   8  10
ENDBRANCH   5   8
BRANCH   2  18
HETATM   18  N   UNL     1       8.559  29.048  55.167  1.00  0.00    -0.384 N 
HETATM   19  H   UNL     1       8.349  29.295  54.190  1.00  0.00     0.157 HD
HETATM   20  H   UNL     1       9.099  29.776  55.614  1.00  0.00     0.157 HD
ENDBRANCH   2  18
BRANCH   1  21
HETATM   21  N   UNL     1       6.954  30.262  57.461  1.00  0.00    -0.299 N 
HETATM   22  C   UNL     1       7.757  30.521  58.535  1.00  0.00     0.365 C 
HETATM   23  O   UNL     1       8.411  29.703  59.165  1.00  0.00    -0.238 OA
HETATM   24  H   UNL     1       6.390  31.066  57.210  1.00  0.00     0.171 HD
BRANCH  22  25
HETATM   25  O   UNL     1       7.660  31.839  58.830  1.00  0.00    -0.304 OA
BRANCH  25  26
HETATM   26  C   UNL     1       6.444  32.261  59.470  1.00  0.00     0.176 C 
HETATM   27  C   UNL     1       6.642  32.308  60.975  1.00  0.00     0.034 C 
ENDBRANCH  25  26
ENDBRANCH  22  25
ENDBRANCH   1  21
TORSDOF 7
ENDMDL
MODEL 5
REMARK VINA RESULT:      -7.5      3.345      4.200
REMARK  7 active torsions:
REMARK  status: ('A' for Active; 'I' for Inactive)
REMARK    1  A    between atoms: C_2  and  O_3 
REMARK    2  A    between atoms: O_3  and  C_4 
REMARK       I    between atoms: C_4  and  N_5 
REMARK    3  A    between atoms: N_5  and  C_6 
REMARK    4  A    between atoms: C_7  and  N_8 
REMARK    5  A    between atoms: C_11  and  N_12 
REMARK    6  A    between atoms: N_12  and  C_13 
REMARK    7  A    between atoms: C_13  and  C_14 
ROOT
HETATM    1  C   UNL     1       6.107  28.704  57.421  1.00  0.00     0.080 A 
HETATM    2  C   UNL     1       5.008  28.115  56.747  1.00  0.00     0.127 A 
HETATM    3  N   UNL     1       5.144  26.855  56.315  1.00  0.00    -0.332 N 
HETATM    4  H   UNL     1       4.355  26.400  55.871  1.00  0.00     0.168 HD
HETATM    5  C   UNL     1       6.242  26.107  56.444  1.00  0.00     0.081 A 
HETATM    6  C   UNL     1       7.346  26.643  57.091  1.00  0.00     0.044 A 
HETATM    7  C   UNL     1       7.267  27.939  57.597  1.00  0.00     0.037 A 
ENDROOT
BRANCH   5   8
HETATM    8  N   UNL     1       6.172  24.843  55.883  1.00  0.00    -0.275 NA
HETATM    9  H   UNL     1       6.330  24.913  54.873  1.00  0.00     0.129 HD
BRANCH   8  10
HETATM   10  C   UNL     1       7.177  23.894  56.389  1.00  0.00     0.132 C 
BRANCH  10  11
HETATM   11  C   UNL     1       7.470  22.885  55.307  1.00  0.00    -0.045 A 
HETATM   12  C   UNL     1       7.712  21.537  55.628  1.00  0.00     0.011 A 
HETATM   13  C   UNL     1       8.002  20.614  54.621  1.00  0.00     0.043 A 
HETATM   14  C   UNL     1       8.049  21.033  53.297  1.00  0.00     0.116 A 
HETATM   15  F   UNL     1       8.328  20.146  52.334  1.00  0.00    -0.206 F 
HETATM   16  C   UNL     1       7.815  22.359  52.959  1.00  0.00     0.043 A 
HETATM   17  C   UNL     1       7.529  23.287  53.962  1.00  0.00     0.011 A 
ENDBRANCH  10  11
ENDBRANCH   8  10
ENDBRANCH   5   8
BRANCH   2  18
HETATM   18  N   UNL     1       3.747  28.667  56.654  1.00  0.00    -0.384 N 
HETATM   19  H   UNL     1       3.547  29.079  55.731  1.00  0.00     0.157 HD
HETATM   20  H   UNL     1       2.933  28.190  57.018  1.00  0.00     0.157 HD
ENDBRANCH   2  18
BRANCH   1  21
HETATM   21  N   UNL     1       6.162  30.016  57.941  1.00  0.00    -0.299 N 
HETATM   22  C   UNL     1       5.868  31.195  57.317  1.00  0.00     0.365 C 
HETATM   23  O   UNL     1       5.511  31.331  56.156  1.00  0.00    -0.238 OA
HETATM   24  H   UNL     1       6.590  30.166  58.848  1.00  0.00     0.171 HD
BRANCH  22  25
HETATM   25  O   UNL     1       6.098  32.206  58.188  1.00  0.00    -0.304 OA
BRANCH  25  26
HETATM   26  C   UNL     1       5.005  33.113  58.414  1.00  0.00     0.176 C 
HETATM   27  C   UNL     1       4.111  32.579  59.518  1.00  0.00     0.034 C 
ENDBRANCH  25  26
ENDBRANCH  22  25
ENDBRANCH   1  21
TORSDOF 7
ENDMDL
MODEL 6
REMARK VINA RESULT:      -7.4      4.675      7.924
REMARK  7 active torsions:
REMARK  status: ('A' for Active; 'I' for Inactive)
REMARK    1  A    between atoms: C_2  and  O_3 
REMARK    2  A    between atoms: O_3  and  C_4 
REMARK       I    between atoms: C_4  and  N_5 
REMARK    3  A    between atoms: N_5  and  C_6 
REMARK    4  A    between atoms: C_7  and  N_8 
REMARK    5  A    between atoms: C_11  and  N_12 
REMARK    6  A    between atoms: N_12  and  C_13 
REMARK    7  A    between atoms: C_13  and  C_14 
ROOT
HETATM    1  C   UNL     1       6.704  24.848  56.191  1.00  0.00     0.080 A 
HETATM    2  C   UNL     1       7.444  25.424  57.254  1.00  0.00     0.127 A 
HETATM    3  N   UNL     1       7.099  26.653  57.659  1.00  0.00    -0.332 N 
HETATM    4  H   UNL     1       7.586  27.064  58.447  1.00  0.00     0.168 HD
HETATM    5  C   UNL     1       6.127  27.397  57.130  1.00  0.00     0.081 A 
HETATM    6  C   UNL     1       5.379  26.879  56.083  1.00  0.00     0.044 A 
HETATM    7  C   UNL     1       5.659  25.592  55.628  1.00  0.00     0.037 A 
ENDROOT
BRANCH   5   8
HETATM    8  N   UNL     1       5.973  28.658  57.682  1.00  0.00    -0.275 NA
HETATM    9  H   UNL     1       6.509  28.712  58.553  1.00  0.00     0.129 HD
BRANCH   8  10
HETATM   10  C   UNL     1       6.458  29.759  56.834  1.00  0.00     0.132 C 
BRANCH  10  11
HETATM   11  C   UNL     1       7.960  29.829  56.953  1.00  0.00    -0.045 A 
HETATM   12  C   UNL     1       8.785  29.418  55.891  1.00  0.00     0.011 A 
HETATM   13  C   UNL     1      10.175  29.468  56.016  1.00  0.00     0.043 A 
HETATM   14  C   UNL     1      10.742  29.929  57.198  1.00  0.00     0.116 A 
HETATM   15  F   UNL     1      12.074  29.976  57.317  1.00  0.00    -0.206 F 
HETATM   16  C   UNL     1       9.946  30.339  58.260  1.00  0.00     0.043 A 
HETATM   17  C   UNL     1       8.556  30.286  58.140  1.00  0.00     0.011 A 
ENDBRANCH  10  11
ENDBRANCH   8  10
ENDBRANCH   5   8
BRANCH   2  18
HETATM   18  N   UNL     1       8.374  24.757  58.025  1.00  0.00    -0.384 N 
HETATM   19  H   UNL     1       8.754  23.915  57.570  1.00  0.00     0.157 HD
HETATM   20  H   UNL     1       9.099  25.254  58.525  1.00  0.00     0.157 HD
ENDBRANCH   2  18
BRANCH   1  21
HETATM   21  N   UNL     1       6.917  23.574  55.618  1.00  0.00    -0.299 N 
HETATM   22  C   UNL     1       7.634  23.250  54.502  1.00  0.00     0.365 C 
HETATM   23  O   UNL     1       8.222  24.028  53.767  1.00  0.00    -0.238 OA
HETATM   24  H   UNL     1       6.388  22.784  55.969  1.00  0.00     0.171 HD
BRANCH  22  25
HETATM   25  O   UNL     1       7.535  21.913  54.307  1.00  0.00    -0.304 OA
BRANCH  25  26
HETATM   26  C   UNL     1       8.752  21.227  53.964  1.00  0.00     0.176 C 
HETATM   27  C   UNL     1       8.509  20.308  52.781  1.00  0.00     0.034 C 
ENDBRANCH  25  26
ENDBRANCH  22  25
ENDBRANCH   1  21
TORSDOF 7
ENDMDL
MODEL 7
REMARK VINA RESULT:      -7.4      4.857      8.854
REMARK  7 active torsions:
REMARK  status: ('A' for Active; 'I' for Inactive)
REMARK    1  A    between atoms: C_2  and  O_3 
REMARK    2  A    between atoms: O_3  and  C_4 
REMARK       I    between atoms: C_4  and  N_5 
REMARK    3  A    between atoms: N_5  and  C_6 
REMARK    4  A    between atoms: C_7  and  N_8 
REMARK    5  A    between atoms: C_11  and  N_12 
REMARK    6  A    between atoms: N_12  and  C_13 
REMARK    7  A    between atoms: C_13  and  C_14 
ROOT
HETATM    1  C   UNL     1       6.767  26.792  56.462  1.00  0.00     0.080 A 
HETATM    2  C   UNL     1       5.596  27.450  56.916  1.00  0.00     0.127 A 
HETATM    3  N   UNL     1       5.744  28.627  57.538  1.00  0.00    -0.332 N 
HETATM    4  H   UNL     1       4.917  29.135  57.829  1.00  0.00     0.168 HD
HETATM    5  C   UNL     1       6.909  29.228  57.790  1.00  0.00     0.081 A 
HETATM    6  C   UNL     1       8.082  28.619  57.370  1.00  0.00     0.044 A 
HETATM    7  C   UNL     1       8.005  27.406  56.687  1.00  0.00     0.037 A 
ENDROOT
BRANCH   5   8
HETATM    8  N   UNL     1       6.825  30.423  58.484  1.00  0.00    -0.275 NA
HETATM    9  H   UNL     1       6.373  30.257  59.388  1.00  0.00     0.129 HD
BRANCH   8  10
HETATM   10  C   UNL     1       8.124  31.046  58.784  1.00  0.00     0.132 C 
BRANCH  10  11
HETATM   11  C   UNL     1       8.125  31.478  60.229  1.00  0.00    -0.045 A 
HETATM   12  C   UNL     1       8.892  30.788  61.185  1.00  0.00     0.011 A 
HETATM   13  C   UNL     1       8.872  31.182  62.525  1.00  0.00     0.043 A 
HETATM   14  C   UNL     1       8.090  32.264  62.911  1.00  0.00     0.116 A 
HETATM   15  F   UNL     1       8.072  32.640  64.195  1.00  0.00    -0.206 F 
HETATM   16  C   UNL     1       7.324  32.959  61.984  1.00  0.00     0.043 A 
HETATM   17  C   UNL     1       7.338  32.565  60.644  1.00  0.00     0.011 A 
ENDBRANCH  10  11
ENDBRANCH   8  10
ENDBRANCH   5   8
BRANCH   2  18
HETATM   18  N   UNL     1       4.305  27.068  56.616  1.00  0.00    -0.384 N 
HETATM   19  H   UNL     1       3.594  27.534  57.196  1.00  0.00     0.157 HD
HETATM   20  H   UNL     1       3.989  26.984  55.659  1.00  0.00     0.157 HD
ENDBRANCH   2  18
BRANCH   1  21
HETATM   21  N   UNL     1       6.820  25.547  55.797  1.00  0.00    -0.299 N 
HETATM   22  C   UNL     1       6.296  25.205  54.583  1.00  0.00     0.365 C 
HETATM   23  O   UNL     1       5.652  25.931  53.841  1.00  0.00    -0.238 OA
HETATM   24  H   UNL     1       7.170  24.738  56.298  1.00  0.00     0.171 HD
BRANCH  22  25
HETATM   25  O   UNL     1       6.558  23.895  54.360  1.00  0.00    -0.304 OA
BRANCH  25  26
HETATM   26  C   UNL     1       7.912  23.469  54.588  1.00  0.00     0.176 C 
HETATM   27  C   UNL     1       7.920  22.086  55.215  1.00  0.00     0.034 C 
ENDBRANCH  25  26
ENDBRANCH  22  25
ENDBRANCH   1  21
TORSDOF 7
ENDMDL
MODEL 8
REMARK VINA RESULT:      -7.3      7.059      8.765
REMARK  7 active torsions:
REMARK  status: ('A' for Active; 'I' for Inactive)
REMARK    1  A    between atoms: C_2  and  O_3 
REMARK    2  A    between atoms: O_3  and  C_4 
REMARK       I    between atoms: C_4  and  N_5 
REMARK    3  A    between atoms: N_5  and  C_6 
REMARK    4  A    between atoms: C_7  and  N_8 
REMARK    5  A    between atoms: C_11  and  N_12 
REMARK    6  A    between atoms: N_12  and  C_13 
REMARK    7  A    between atoms: C_13  and  C_14 
ROOT
HETATM    1  C   UNL     1       4.738  27.333  51.068  1.00  0.00     0.080 A 
HETATM    2  C   UNL     1       5.581  27.988  52.001  1.00  0.00     0.127 A 
HETATM    3  N   UNL     1       6.511  27.255  52.624  1.00  0.00    -0.332 N 
HETATM    4  H   UNL     1       7.153  27.713  53.260  1.00  0.00     0.168 HD
HETATM    5  C   UNL     1       6.701  25.944  52.458  1.00  0.00     0.081 A 
HETATM    6  C   UNL     1       5.898  25.258  51.560  1.00  0.00     0.044 A 
HETATM    7  C   UNL     1       4.927  25.962  50.850  1.00  0.00     0.037 A 
ENDROOT
BRANCH   5   8
HETATM    8  N   UNL     1       7.698  25.382  53.239  1.00  0.00    -0.275 NA
HETATM    9  H   UNL     1       7.302  25.103  54.141  1.00  0.00     0.129 HD
BRANCH   8  10
HETATM   10  C   UNL     1       8.311  24.173  52.668  1.00  0.00     0.132 C 
BRANCH  10  11
HETATM   11  C   UNL     1       8.122  23.036  53.642  1.00  0.00    -0.045 A 
HETATM   12  C   UNL     1       8.114  21.702  53.196  1.00  0.00     0.011 A 
HETATM   13  C   UNL     1       7.920  20.657  54.101  1.00  0.00     0.043 A 
HETATM   14  C   UNL     1       7.734  20.940  55.449  1.00  0.00     0.116 A 
HETATM   15  F   UNL     1       7.548  19.937  56.315  1.00  0.00    -0.206 F 
HETATM   16  C   UNL     1       7.738  22.251  55.910  1.00  0.00     0.043 A 
HETATM   17  C   UNL     1       7.928  23.299  55.008  1.00  0.00     0.011 A 
ENDBRANCH  10  11
ENDBRANCH   8  10
ENDBRANCH   5   8
BRANCH   2  18
HETATM   18  N   UNL     1       5.640  29.354  52.192  1.00  0.00    -0.384 N 
HETATM   19  H   UNL     1       6.210  29.841  51.487  1.00  0.00     0.157 HD
HETATM   20  H   UNL     1       4.815  29.891  52.421  1.00  0.00     0.157 HD
ENDBRANCH   2  18
BRANCH   1  21
HETATM   21  N   UNL     1       3.698  27.928  50.321  1.00  0.00    -0.299 N 
HETATM   22  C   UNL     1       3.714  28.350  49.021  1.00  0.00     0.365 C 
HETATM   23  O   UNL     1       4.665  28.304  48.256  1.00  0.00    -0.238 OA
HETATM   24  H   UNL     1       2.852  28.215  50.800  1.00  0.00     0.171 HD
BRANCH  22  25
HETATM   25  O   UNL     1       2.505  28.890  48.735  1.00  0.00    -0.304 OA
BRANCH  25  26
HETATM   26  C   UNL     1       1.384  27.990  48.753  1.00  0.00     0.176 C 
HETATM   27  C   UNL     1       1.495  27.005  47.603  1.00  0.00     0.034 C 
ENDBRANCH  25  26
ENDBRANCH  22  25
ENDBRANCH   1  21
TORSDOF 7
ENDMDL
MODEL 9
REMARK VINA RESULT:      -7.2      5.995      7.717
REMARK  7 active torsions:
REMARK  status: ('A' for Active; 'I' for Inactive)
REMARK    1  A    between atoms: C_2  and  O_3 
REMARK    2  A    between atoms: O_3  and  C_4 
REMARK       I    between atoms: C_4  and  N_5 
REMARK    3  A    between atoms: N_5  and  C_6 
REMARK    4  A    between atoms: C_7  and  N_8 
REMARK    5  A    between atoms: C_11  and  N_12 
REMARK    6  A    between atoms: N_12  and  C_13 
REMARK    7  A    between atoms: C_13  and  C_14 
ROOT
HETATM    1  C   UNL     1       4.638  27.021  53.225  1.00  0.00     0.080 A 
HETATM    2  C   UNL     1       4.876  25.634  53.060  1.00  0.00     0.127 A 
HETATM    3  N   UNL     1       5.372  24.958  54.104  1.00  0.00    -0.332 N 
HETATM    4  H   UNL     1       5.507  23.957  54.021  1.00  0.00     0.168 HD
HETATM    5  C   UNL     1       5.685  25.486  55.289  1.00  0.00     0.081 A 
HETATM    6  C   UNL     1       5.476  26.841  55.496  1.00  0.00     0.044 A 
HETATM    7  C   UNL     1       4.932  27.604  54.465  1.00  0.00     0.037 A 
ENDROOT
BRANCH   5   8
HETATM    8  N   UNL     1       6.224  24.604  56.211  1.00  0.00    -0.275 NA
HETATM    9  H   UNL     1       5.766  23.693  56.115  1.00  0.00     0.129 HD
BRANCH   8  10
HETATM   10  C   UNL     1       7.666  24.355  56.048  1.00  0.00     0.132 C 
BRANCH  10  11
HETATM   11  C   UNL     1       7.846  23.150  55.159  1.00  0.00    -0.045 A 
HETATM   12  C   UNL     1       7.691  21.849  55.671  1.00  0.00     0.011 A 
HETATM   13  C   UNL     1       7.878  20.739  54.846  1.00  0.00     0.043 A 
HETATM   14  C   UNL     1       8.218  20.924  53.511  1.00  0.00     0.116 A 
HETATM   15  F   UNL     1       8.397  19.858  52.721  1.00  0.00    -0.206 F 
HETATM   16  C   UNL     1       8.375  22.200  52.984  1.00  0.00     0.043 A 
HETATM   17  C   UNL     1       8.194  23.312  53.807  1.00  0.00     0.011 A 
ENDBRANCH  10  11
ENDBRANCH   8  10
ENDBRANCH   5   8
BRANCH   2  18
HETATM   18  N   UNL     1       4.475  24.885  51.973  1.00  0.00    -0.384 N 
HETATM   19  H   UNL     1       4.116  25.455  51.194  1.00  0.00     0.157 HD
HETATM   20  H   UNL     1       5.031  24.114  51.629  1.00  0.00     0.157 HD
ENDBRANCH   2  18
BRANCH   1  21
HETATM   21  N   UNL     1       4.130  27.904  52.247  1.00  0.00    -0.299 N 
HETATM   22  C   UNL     1       4.572  28.110  50.971  1.00  0.00     0.365 C 
HETATM   23  O   UNL     1       5.526  27.564  50.438  1.00  0.00    -0.238 OA
HETATM   24  H   UNL     1       3.429  28.585  52.517  1.00  0.00     0.171 HD
BRANCH  22  25
HETATM   25  O   UNL     1       3.807  29.075  50.407  1.00  0.00    -0.304 OA
BRANCH  25  26
HETATM   26  C   UNL     1       2.718  28.624  49.584  1.00  0.00     0.176 C 
HETATM   27  C   UNL     1       1.402  29.135  50.143  1.00  0.00     0.034 C 
ENDBRANCH  25  26
ENDBRANCH  22  25
ENDBRANCH   1  21
TORSDOF 7
ENDMDL
MODEL 10
REMARK VINA RESULT:      -7.2      4.194      5.074
REMARK  7 active torsions:
REMARK  status: ('A' for Active; 'I' for Inactive)
REMARK    1  A    between atoms: C_2  and  O_3 
REMARK    2  A    between atoms: O_3  and  C_4 
REMARK       I    between atoms: C_4  and  N_5 
REMARK    3  A    between atoms: N_5  and  C_6 
REMARK    4  A    between atoms: C_7  and  N_8 
REMARK    5  A    between atoms: C_11  and  N_12 
REMARK    6  A    between atoms: N_12  and  C_13 
REMARK    7  A    between atoms: C_13  and  C_14 
ROOT
HETATM    1  C   UNL     1       5.762  28.991  55.558  1.00  0.00     0.080 A 
HETATM    2  C   UNL     1       5.208  28.280  56.653  1.00  0.00     0.127 A 
HETATM    3  N   UNL     1       5.382  26.953  56.687  1.00  0.00    -0.332 N 
HETATM    4  H   UNL     1       5.033  26.433  57.483  1.00  0.00     0.168 HD
HETATM    5  C   UNL     1       6.017  26.233  55.760  1.00  0.00     0.081 A 
HETATM    6  C   UNL     1       6.570  26.883  54.667  1.00  0.00     0.044 A 
HETATM    7  C   UNL     1       6.457  28.269  54.580  1.00  0.00     0.037 A 
ENDROOT
BRANCH   5   8
HETATM    8  N   UNL     1       6.040  24.866  55.980  1.00  0.00    -0.275 NA
HETATM    9  H   UNL     1       5.662  24.385  55.158  1.00  0.00     0.129 HD
BRANCH   8  10
HETATM   10  C   UNL     1       7.382  24.305  56.201  1.00  0.00     0.132 C 
BRANCH  10  11
HETATM   11  C   UNL     1       7.607  23.194  55.207  1.00  0.00    -0.045 A 
HETATM   12  C   UNL     1       7.701  23.468  53.830  1.00  0.00     0.011 A 
HETATM   13  C   UNL     1       7.889  22.431  52.915  1.00  0.00     0.043 A 
HETATM   14  C   UNL     1       7.985  21.122  53.370  1.00  0.00     0.116 A 
HETATM   15  F   UNL     1       8.166  20.129  52.491  1.00  0.00    -0.206 F 
HETATM   16  C   UNL     1       7.895  20.828  54.725  1.00  0.00     0.043 A 
HETATM   17  C   UNL     1       7.702  21.861  55.643  1.00  0.00     0.011 A 
ENDBRANCH  10  11
ENDBRANCH   8  10
ENDBRANCH   5   8
BRANCH   2  18
HETATM   18  N   UNL     1       4.657  28.861  57.777  1.00  0.00    -0.384 N 
HETATM   19  H   UNL     1       3.763  28.435  58.061  1.00  0.00     0.157 HD
HETATM   20  H   UNL     1       5.222  29.085  58.585  1.00  0.00     0.157 HD
ENDBRANCH   2  18
BRANCH   1  21
HETATM   21  N   UNL     1       5.679  30.384  55.339  1.00  0.00    -0.299 N 
HETATM   22  C   UNL     1       4.566  31.173  55.270  1.00  0.00     0.365 C 
HETATM   23  O   UNL     1       3.407  30.801  55.371  1.00  0.00    -0.238 OA
HETATM   24  H   UNL     1       6.515  30.887  55.066  1.00  0.00     0.171 HD
BRANCH  22  25
HETATM   25  O   UNL     1       4.960  32.442  55.008  1.00  0.00    -0.304 OA
BRANCH  25  26
HETATM   26  C   UNL     1       4.258  33.484  55.705  1.00  0.00     0.176 C 
HETATM   27  C   UNL     1       4.784  33.602  57.124  1.00  0.00     0.034 C 
ENDBRANCH  25  26
ENDBRANCH  22  25
ENDBRANCH   1  21
TORSDOF 7
ENDMDL
