MODEL 1
REMARK VINA RESULT:      -9.5      0.000      0.000
REMARK  6 active torsions:
REMARK  status: ('A' for Active; 'I' for Inactive)
REMARK    1  A    between atoms: O_2  and  C_3 
REMARK    2  A    between atoms: C_6  and  C_7 
REMARK    3  A    between atoms: C_7  and  N_8 
REMARK       I    between atoms: N_8  and  C_9 
REMARK    4  A    between atoms: C_9  and  C_10 
REMARK    5  A    between atoms: C_10  and  O_11 
REMARK    6  A    between atoms: N_12  and  C_13 
ROOT
HETATM    1  C   UNL     1       7.265  28.158  55.864  1.00  0.00     0.256 C 
HETATM    2  N   UNL     1       6.258  28.101  54.788  1.00  0.00    -0.254 N 
HETATM    3  C   UNL     1       5.449  29.199  54.521  1.00  0.00     0.330 C 
HETATM    4  O   UNL     1       4.747  29.349  53.520  1.00  0.00    -0.246 OA
HETATM    5  N   UNL     1       5.430  30.216  55.421  1.00  0.00    -0.308 N 
HETATM    6  C   UNL     1       6.162  30.287  56.590  1.00  0.00     0.048 A 
HETATM    7  C   UNL     1       7.091  29.295  56.856  1.00  0.00     0.035 A 
HETATM    8  C   UNL     1       5.966  31.360  57.463  1.00  0.00     0.031 A 
HETATM    9  C   UNL     1       6.711  31.446  58.637  1.00  0.00     0.021 A 
HETATM   10  C   UNL     1       7.660  30.468  58.915  1.00  0.00     0.011 A 
HETATM   11 BR   UNL     1       8.681  30.572  60.502  1.00  0.00    -0.051 Br
HETATM   12  C   UNL     1       7.863  29.407  58.031  1.00  0.00     0.034 A 
HETATM   13  H   UNL     1       4.784  30.959  55.183  1.00  0.00     0.170 HD
ENDROOT
BRANCH   1  14
HETATM   14  C   UNL     1       7.262  26.804  56.709  1.00  0.00     0.279 C 
HETATM   15  N   UNL     1       8.453  26.096  56.609  1.00  0.00    -0.352 N 
HETATM   16  H   UNL     1       9.127  26.418  55.920  1.00  0.00     0.162 HD
HETATM   17  O   UNL     1       6.333  26.448  57.433  1.00  0.00    -0.268 OA
BRANCH  15  18
HETATM   18  C   UNL     1       8.709  24.888  57.348  1.00  0.00     0.161 C 
BRANCH  18  19
HETATM   19  C   UNL     1       8.447  23.651  56.529  1.00  0.00    -0.040 A 
HETATM   20  C   UNL     1       8.320  23.722  55.137  1.00  0.00     0.011 A 
HETATM   21  C   UNL     1       8.138  22.556  54.387  1.00  0.00     0.037 A 
HETATM   22  C   UNL     1       8.087  21.309  55.011  1.00  0.00     0.068 A 
HETATM   23  C   UNL     1       8.166  21.236  56.401  1.00  0.00     0.037 A 
HETATM   24  C   UNL     1       8.346  22.401  57.154  1.00  0.00     0.011 A 
BRANCH  22  25
HETATM   25  O   UNL     1       7.944  20.242  54.166  1.00  0.00    -0.356 OA
HETATM   26  C   UNL     1       8.346  20.460  52.817  1.00  0.00     0.210 C 
ENDBRANCH  22  25
ENDBRANCH  18  19
ENDBRANCH  15  18
ENDBRANCH   1  14
BRANCH   1  27
HETATM   27  O   UNL     1       8.528  28.408  55.240  1.00  0.00    -0.359 OA
HETATM   28  H   UNL     1       8.462  27.923  54.398  1.00  0.00     0.213 HD
ENDBRANCH   1  27
BRANCH   2  29
HETATM   29  C   UNL     1       6.144  26.908  53.964  1.00  0.00     0.042 A 
HETATM   30  C   UNL     1       5.069  26.010  54.078  1.00  0.00     0.030 A 
HETATM   31  C   UNL     1       4.970  24.876  53.259  1.00  0.00     0.002 A 
HETATM   32  C   UNL     1       5.944  24.614  52.305  1.00  0.00     0.000 A 
HETATM   33  C   UNL     1       7.013  25.487  52.164  1.00  0.00     0.002 A 
HETATM   34  C   UNL     1       7.107  26.619  52.981  1.00  0.00     0.030 A 
ENDBRANCH   2  29
TORSDOF 6
ENDMDL
MODEL 2
REMARK VINA RESULT:      -9.1      3.428      5.318
REMARK  6 active torsions:
REMARK  status: ('A' for Active; 'I' for Inactive)
REMARK    1  A    between atoms: O_2  and  C_3 
REMARK    2  A    between atoms: C_6  and  C_7 
REMARK    3  A    between atoms: C_7  and  N_8 
REMARK       I    between atoms: N_8  and  C_9 
REMARK    4  A    between atoms: C_9  and  C_10 
REMARK    5  A    between atoms: C_10  and  O_11 
REMARK    6  A    between atoms: N_12  and  C_13 
ROOT
HETATM    1  C   UNL     1       5.446  26.828  52.938  1.00  0.00     0.256 C 
HETATM    2  N   UNL     1       5.652  27.577  54.192  1.00  0.00    -0.254 N 
HETATM    3  C   UNL     1       5.298  28.917  54.278  1.00  0.00     0.330 C 
HETATM    4  O   UNL     1       5.209  29.573  55.318  1.00  0.00    -0.246 OA
HETATM    5  N   UNL     1       5.001  29.579  53.130  1.00  0.00    -0.308 N 
HETATM    6  C   UNL     1       4.992  29.042  51.857  1.00  0.00     0.048 A 
HETATM    7  C   UNL     1       5.201  27.681  51.705  1.00  0.00     0.035 A 
HETATM    8  C   UNL     1       4.753  29.874  50.759  1.00  0.00     0.031 A 
HETATM    9  C   UNL     1       4.729  29.337  49.474  1.00  0.00     0.021 A 
HETATM   10  C   UNL     1       4.922  27.971  49.302  1.00  0.00     0.011 A 
HETATM   11 BR   UNL     1       4.889  27.228  47.564  1.00  0.00    -0.051 Br
HETATM   12  C   UNL     1       5.143  27.142  50.404  1.00  0.00     0.034 A 
HETATM   13  H   UNL     1       4.797  30.561  53.266  1.00  0.00     0.170 HD
ENDROOT
BRANCH   1  14
HETATM   14  C   UNL     1       6.711  25.908  52.618  1.00  0.00     0.279 C 
HETATM   15  N   UNL     1       6.401  24.555  52.570  1.00  0.00    -0.352 N 
HETATM   16  H   UNL     1       5.472  24.281  52.876  1.00  0.00     0.162 HD
HETATM   17  O   UNL     1       7.833  26.345  52.370  1.00  0.00    -0.268 OA
BRANCH  15  18
HETATM   18  C   UNL     1       7.365  23.545  52.219  1.00  0.00     0.161 C 
BRANCH  18  19
HETATM   19  C   UNL     1       7.802  22.734  53.409  1.00  0.00    -0.040 A 
HETATM   20  C   UNL     1       8.205  23.356  54.597  1.00  0.00     0.011 A 
HETATM   21  C   UNL     1       8.551  22.587  55.712  1.00  0.00     0.037 A 
HETATM   22  C   UNL     1       8.493  21.193  55.662  1.00  0.00     0.068 A 
HETATM   23  C   UNL     1       8.138  20.567  54.468  1.00  0.00     0.037 A 
HETATM   24  C   UNL     1       7.794  21.334  53.350  1.00  0.00     0.011 A 
BRANCH  22  25
HETATM   25  O   UNL     1       8.818  20.556  56.828  1.00  0.00    -0.356 OA
HETATM   26  C   UNL     1       8.472  21.242  58.028  1.00  0.00     0.210 C 
ENDBRANCH  22  25
ENDBRANCH  18  19
ENDBRANCH  15  18
ENDBRANCH   1  14
BRANCH   1  27
HETATM   27  O   UNL     1       4.245  26.068  53.100  1.00  0.00    -0.359 OA
HETATM   28  H   UNL     1       3.754  26.248  52.278  1.00  0.00     0.213 HD
ENDBRANCH   1  27
BRANCH   2  29
HETATM   29  C   UNL     1       6.181  26.896  55.363  1.00  0.00     0.042 A 
HETATM   30  C   UNL     1       5.457  25.911  56.056  1.00  0.00     0.030 A 
HETATM   31  C   UNL     1       5.995  25.253  57.171  1.00  0.00     0.002 A 
HETATM   32  C   UNL     1       7.273  25.564  57.619  1.00  0.00     0.000 A 
HETATM   33  C   UNL     1       8.014  26.527  56.950  1.00  0.00     0.002 A 
HETATM   34  C   UNL     1       7.474  27.180  55.836  1.00  0.00     0.030 A 
ENDBRANCH   2  29
TORSDOF 6
ENDMDL
MODEL 3
REMARK VINA RESULT:      -8.7      2.923      7.598
REMARK  6 active torsions:
REMARK  status: ('A' for Active; 'I' for Inactive)
REMARK    1  A    between atoms: O_2  and  C_3 
REMARK    2  A    between atoms: C_6  and  C_7 
REMARK    3  A    between atoms: C_7  and  N_8 
REMARK       I    between atoms: N_8  and  C_9 
REMARK    4  A    between atoms: C_9  and  C_10 
REMARK    5  A    between atoms: C_10  and  O_11 
REMARK    6  A    between atoms: N_12  and  C_13 
ROOT
HETATM    1  C   UNL     1       5.407  27.362  55.423  1.00  0.00     0.256 C 
HETATM    2  N   UNL     1       4.491  28.263  54.698  1.00  0.00    -0.254 N 
HETATM    3  C   UNL     1       3.832  27.827  53.556  1.00  0.00     0.330 C 
HETATM    4  O   UNL     1       2.887  28.397  53.008  1.00  0.00    -0.246 OA
HETATM    5  N   UNL     1       4.237  26.662  52.986  1.00  0.00    -0.308 N 
HETATM    6  C   UNL     1       5.243  25.834  53.444  1.00  0.00     0.048 A 
HETATM    7  C   UNL     1       5.854  26.132  54.652  1.00  0.00     0.035 A 
HETATM    8  C   UNL     1       5.607  24.711  52.697  1.00  0.00     0.031 A 
HETATM    9  C   UNL     1       6.611  23.863  53.160  1.00  0.00     0.021 A 
HETATM   10  C   UNL     1       7.226  24.137  54.377  1.00  0.00     0.011 A 
HETATM   11 BR   UNL     1       8.587  22.995  55.020  1.00  0.00    -0.051 Br
HETATM   12  C   UNL     1       6.846  25.251  55.128  1.00  0.00     0.034 A 
HETATM   13  H   UNL     1       3.742  26.432  52.133  1.00  0.00     0.170 HD
ENDROOT
BRANCH   1  14
HETATM   14  C   UNL     1       6.732  28.139  55.858  1.00  0.00     0.279 C 
HETATM   15  N   UNL     1       6.866  28.259  57.235  1.00  0.00    -0.352 N 
HETATM   16  H   UNL     1       6.069  27.985  57.804  1.00  0.00     0.162 HD
HETATM   17  O   UNL     1       7.588  28.533  55.068  1.00  0.00    -0.268 OA
BRANCH  15  18
HETATM   18  C   UNL     1       8.020  28.850  57.860  1.00  0.00     0.161 C 
BRANCH  18  19
HETATM   19  C   UNL     1       7.667  30.057  58.687  1.00  0.00    -0.040 A 
HETATM   20  C   UNL     1       6.627  30.914  58.305  1.00  0.00     0.011 A 
HETATM   21  C   UNL     1       6.273  31.996  59.116  1.00  0.00     0.037 A 
HETATM   22  C   UNL     1       6.944  32.236  60.317  1.00  0.00     0.068 A 
HETATM   23  C   UNL     1       8.010  31.415  60.679  1.00  0.00     0.037 A 
HETATM   24  C   UNL     1       8.368  30.332  59.869  1.00  0.00     0.011 A 
BRANCH  22  25
HETATM   25  O   UNL     1       6.479  33.301  61.038  1.00  0.00    -0.356 OA
HETATM   26  C   UNL     1       6.957  33.402  62.376  1.00  0.00     0.210 C 
ENDBRANCH  22  25
ENDBRANCH  18  19
ENDBRANCH  15  18
ENDBRANCH   1  14
BRANCH   1  27
HETATM   27  O   UNL     1       4.684  26.847  56.545  1.00  0.00    -0.359 OA
HETATM   28  H   UNL     1       3.775  27.158  56.387  1.00  0.00     0.213 HD
ENDBRANCH   1  27
BRANCH   2  29
HETATM   29  C   UNL     1       4.235  29.599  55.210  1.00  0.00     0.042 A 
HETATM   30  C   UNL     1       4.668  30.760  54.546  1.00  0.00     0.030 A 
HETATM   31  C   UNL     1       4.391  32.039  55.049  1.00  0.00     0.002 A 
HETATM   32  C   UNL     1       3.671  32.188  56.227  1.00  0.00     0.000 A 
HETATM   33  C   UNL     1       3.223  31.061  56.900  1.00  0.00     0.002 A 
HETATM   34  C   UNL     1       3.499  29.786  56.394  1.00  0.00     0.030 A 
ENDBRANCH   2  29
TORSDOF 6
ENDMDL
MODEL 4
REMARK VINA RESULT:      -8.4      3.020      4.109
REMARK  6 active torsions:
REMARK  status: ('A' for Active; 'I' for Inactive)
REMARK    1  A    between atoms: O_2  and  C_3 
REMARK    2  A    between atoms: C_6  and  C_7 
REMARK    3  A    between atoms: C_7  and  N_8 
REMARK       I    between atoms: N_8  and  C_9 
REMARK    4  A    between atoms: C_9  and  C_10 
REMARK    5  A    between atoms: C_10  and  O_11 
REMARK    6  A    between atoms: N_12  and  C_13 
ROOT
HETATM    1  C   UNL     1       5.627  27.685  52.507  1.00  0.00     0.256 C 
HETATM    2  N   UNL     1       4.566  28.208  51.626  1.00  0.00    -0.254 N 
HETATM    3  C   UNL     1       3.579  29.044  52.132  1.00  0.00     0.330 C 
HETATM    4  O   UNL     1       2.791  29.715  51.462  1.00  0.00    -0.246 OA
HETATM    5  N   UNL     1       3.464  29.161  53.480  1.00  0.00    -0.308 N 
HETATM    6  C   UNL     1       4.259  28.540  54.424  1.00  0.00     0.048 A 
HETATM    7  C   UNL     1       5.349  27.800  53.997  1.00  0.00     0.035 A 
HETATM    8  C   UNL     1       3.961  28.687  55.782  1.00  0.00     0.031 A 
HETATM    9  C   UNL     1       4.766  28.076  56.740  1.00  0.00     0.021 A 
HETATM   10  C   UNL     1       5.873  27.341  56.331  1.00  0.00     0.011 A 
HETATM   11 BR   UNL     1       6.977  26.507  57.620  1.00  0.00    -0.051 Br
HETATM   12  C   UNL     1       6.176  27.211  54.974  1.00  0.00     0.034 A 
HETATM   13  H   UNL     1       2.696  29.750  53.775  1.00  0.00     0.170 HD
ENDROOT
BRANCH   1  14
HETATM   14  C   UNL     1       5.896  26.140  52.207  1.00  0.00     0.279 C 
HETATM   15  N   UNL     1       7.229  25.863  51.934  1.00  0.00    -0.352 N 
HETATM   16  H   UNL     1       7.852  26.657  51.810  1.00  0.00     0.162 HD
HETATM   17  O   UNL     1       5.034  25.266  52.276  1.00  0.00    -0.268 OA
BRANCH  15  18
HETATM   18  C   UNL     1       7.721  24.529  51.713  1.00  0.00     0.161 C 
BRANCH  18  19
HETATM   19  C   UNL     1       7.875  23.757  52.997  1.00  0.00    -0.040 A 
HETATM   20  C   UNL     1       7.830  22.358  53.006  1.00  0.00     0.011 A 
HETATM   21  C   UNL     1       8.035  21.655  54.197  1.00  0.00     0.037 A 
HETATM   22  C   UNL     1       8.293  22.334  55.389  1.00  0.00     0.068 A 
HETATM   23  C   UNL     1       8.292  23.728  55.395  1.00  0.00     0.037 A 
HETATM   24  C   UNL     1       8.086  24.433  54.206  1.00  0.00     0.011 A 
BRANCH  22  25
HETATM   25  O   UNL     1       8.514  21.534  56.477  1.00  0.00    -0.356 OA
HETATM   26  C   UNL     1       9.172  20.298  56.216  1.00  0.00     0.210 C 
ENDBRANCH  22  25
ENDBRANCH  18  19
ENDBRANCH  15  18
ENDBRANCH   1  14
BRANCH   1  27
HETATM   27  O   UNL     1       6.786  28.493  52.289  1.00  0.00    -0.359 OA
HETATM   28  H   UNL     1       6.441  29.247  51.778  1.00  0.00     0.213 HD
ENDBRANCH   1  27
BRANCH   2  29
HETATM   29  C   UNL     1       4.582  27.891  50.207  1.00  0.00     0.042 A 
HETATM   30  C   UNL     1       5.374  28.594  49.284  1.00  0.00     0.030 A 
HETATM   31  C   UNL     1       5.389  28.257  47.923  1.00  0.00     0.002 A 
HETATM   32  C   UNL     1       4.613  27.206  47.453  1.00  0.00     0.000 A 
HETATM   33  C   UNL     1       3.827  26.488  48.342  1.00  0.00     0.002 A 
HETATM   34  C   UNL     1       3.816  26.825  49.700  1.00  0.00     0.030 A 
ENDBRANCH   2  29
TORSDOF 6
ENDMDL
MODEL 5
REMARK VINA RESULT:      -8.4      3.768      5.701
REMARK  6 active torsions:
REMARK  status: ('A' for Active; 'I' for Inactive)
REMARK    1  A    between atoms: O_2  and  C_3 
REMARK    2  A    between atoms: C_6  and  C_7 
REMARK    3  A    between atoms: C_7  and  N_8 
REMARK       I    between atoms: N_8  and  C_9 
REMARK    4  A    between atoms: C_9  and  C_10 
REMARK    5  A    between atoms: C_10  and  O_11 
REMARK    6  A    between atoms: N_12  and  C_13 
ROOT
HETATM    1  C   UNL     1       4.059  28.425  52.843  1.00  0.00     0.256 C 
HETATM    2  N   UNL     1       4.242  29.171  54.103  1.00  0.00    -0.254 N 
HETATM    3  C   UNL     1       3.610  30.393  54.296  1.00  0.00     0.330 C 
HETATM    4  O   UNL     1       3.503  30.985  55.372  1.00  0.00    -0.246 OA
HETATM    5  N   UNL     1       3.037  30.997  53.223  1.00  0.00    -0.308 N 
HETATM    6  C   UNL     1       2.995  30.503  51.934  1.00  0.00     0.048 A 
HETATM    7  C   UNL     1       3.483  29.230  51.690  1.00  0.00     0.035 A 
HETATM    8  C   UNL     1       2.446  31.285  50.914  1.00  0.00     0.031 A 
HETATM    9  C   UNL     1       2.388  30.789  49.613  1.00  0.00     0.021 A 
HETATM   10  C   UNL     1       2.859  29.507  49.351  1.00  0.00     0.011 A 
HETATM   11 BR   UNL     1       2.783  28.818  47.593  1.00  0.00    -0.051 Br
HETATM   12  C   UNL     1       3.390  28.724  50.378  1.00  0.00     0.034 A 
HETATM   13  H   UNL     1       2.637  31.903  53.431  1.00  0.00     0.170 HD
ENDROOT
BRANCH   1  14
HETATM   14  C   UNL     1       5.449  27.826  52.338  1.00  0.00     0.279 C 
HETATM   15  N   UNL     1       5.493  26.439  52.386  1.00  0.00    -0.352 N 
HETATM   16  H   UNL     1       4.727  25.966  52.857  1.00  0.00     0.162 HD
HETATM   17  O   UNL     1       6.367  28.507  51.884  1.00  0.00    -0.268 OA
BRANCH  15  18
HETATM   18  C   UNL     1       6.614  25.675  51.904  1.00  0.00     0.161 C 
BRANCH  18  19
HETATM   19  C   UNL     1       7.137  24.713  52.938  1.00  0.00    -0.040 A 
HETATM   20  C   UNL     1       6.833  24.878  54.295  1.00  0.00     0.011 A 
HETATM   21  C   UNL     1       7.276  23.942  55.234  1.00  0.00     0.037 A 
HETATM   22  C   UNL     1       8.021  22.830  54.835  1.00  0.00     0.068 A 
HETATM   23  C   UNL     1       8.367  22.686  53.492  1.00  0.00     0.037 A 
HETATM   24  C   UNL     1       7.926  23.622  52.551  1.00  0.00     0.011 A 
BRANCH  22  25
HETATM   25  O   UNL     1       8.362  21.968  55.841  1.00  0.00    -0.356 OA
HETATM   26  C   UNL     1       7.705  20.705  55.828  1.00  0.00     0.210 C 
ENDBRANCH  22  25
ENDBRANCH  18  19
ENDBRANCH  15  18
ENDBRANCH   1  14
BRANCH   1  27
HETATM   27  O   UNL     1       3.086  27.408  53.099  1.00  0.00    -0.359 OA
HETATM   28  H   UNL     1       2.874  27.072  52.210  1.00  0.00     0.213 HD
ENDBRANCH   1  27
BRANCH   2  29
HETATM   29  C   UNL     1       5.046  28.600  55.171  1.00  0.00     0.042 A 
HETATM   30  C   UNL     1       4.549  27.626  56.054  1.00  0.00     0.030 A 
HETATM   31  C   UNL     1       5.350  27.075  57.065  1.00  0.00     0.002 A 
HETATM   32  C   UNL     1       6.669  27.484  57.214  1.00  0.00     0.000 A 
HETATM   33  C   UNL     1       7.190  28.437  56.352  1.00  0.00     0.002 A 
HETATM   34  C   UNL     1       6.388  28.983  55.343  1.00  0.00     0.030 A 
ENDBRANCH   2  29
TORSDOF 6
ENDMDL
MODEL 6
REMARK VINA RESULT:      -8.3      2.699      6.211
REMARK  6 active torsions:
REMARK  status: ('A' for Active; 'I' for Inactive)
REMARK    1  A    between atoms: O_2  and  C_3 
REMARK    2  A    between atoms: C_6  and  C_7 
REMARK    3  A    between atoms: C_7  and  N_8 
REMARK       I    between atoms: N_8  and  C_9 
REMARK    4  A    between atoms: C_9  and  C_10 
REMARK    5  A    between atoms: C_10  and  O_11 
REMARK    6  A    between atoms: N_12  and  C_13 
ROOT
HETATM    1  C   UNL     1       6.143  25.437  55.833  1.00  0.00     0.256 C 
HETATM    2  N   UNL     1       7.429  24.726  55.964  1.00  0.00    -0.254 N 
HETATM    3  C   UNL     1       8.402  25.187  56.841  1.00  0.00     0.330 C 
HETATM    4  O   UNL     1       9.402  24.561  57.201  1.00  0.00    -0.246 OA
HETATM    5  N   UNL     1       8.251  26.426  57.376  1.00  0.00    -0.308 N 
HETATM    6  C   UNL     1       7.195  27.289  57.153  1.00  0.00     0.048 A 
HETATM    7  C   UNL     1       6.121  26.847  56.399  1.00  0.00     0.035 A 
HETATM    8  C   UNL     1       7.224  28.572  57.705  1.00  0.00     0.031 A 
HETATM    9  C   UNL     1       6.157  29.443  57.496  1.00  0.00     0.021 A 
HETATM   10  C   UNL     1       5.062  29.012  56.754  1.00  0.00     0.011 A 
HETATM   11 BR   UNL     1       3.605  30.181  56.465  1.00  0.00    -0.051 Br
HETATM   12  C   UNL     1       5.031  27.723  56.220  1.00  0.00     0.034 A 
HETATM   13  H   UNL     1       9.020  26.711  57.969  1.00  0.00     0.170 HD
ENDROOT
BRANCH   1  14
HETATM   14  C   UNL     1       5.717  25.549  54.299  1.00  0.00     0.279 C 
HETATM   15  N   UNL     1       6.487  26.458  53.585  1.00  0.00    -0.352 N 
HETATM   16  H   UNL     1       7.121  27.047  54.117  1.00  0.00     0.162 HD
HETATM   17  O   UNL     1       4.845  24.857  53.776  1.00  0.00    -0.268 OA
BRANCH  15  18
HETATM   18  C   UNL     1       6.337  26.666  52.168  1.00  0.00     0.161 C 
BRANCH  18  19
HETATM   19  C   UNL     1       5.327  27.737  51.852  1.00  0.00    -0.040 A 
HETATM   20  C   UNL     1       4.528  27.657  50.705  1.00  0.00     0.011 A 
HETATM   21  C   UNL     1       3.553  28.628  50.457  1.00  0.00     0.037 A 
HETATM   22  C   UNL     1       3.358  29.685  51.349  1.00  0.00     0.068 A 
HETATM   23  C   UNL     1       4.182  29.795  52.468  1.00  0.00     0.037 A 
HETATM   24  C   UNL     1       5.159  28.826  52.717  1.00  0.00     0.011 A 
BRANCH  22  25
HETATM   25  O   UNL     1       2.349  30.547  51.016  1.00  0.00    -0.356 OA
HETATM   26  C   UNL     1       1.392  30.053  50.084  1.00  0.00     0.210 C 
ENDBRANCH  22  25
ENDBRANCH  18  19
ENDBRANCH  15  18
ENDBRANCH   1  14
BRANCH   1  27
HETATM   27  O   UNL     1       5.186  24.715  56.614  1.00  0.00    -0.359 OA
HETATM   28  H   UNL     1       5.122  25.240  57.431  1.00  0.00     0.213 HD
ENDBRANCH   1  27
BRANCH   2  29
HETATM   29  C   UNL     1       7.661  23.504  55.210  1.00  0.00     0.042 A 
HETATM   30  C   UNL     1       7.446  22.227  55.756  1.00  0.00     0.030 A 
HETATM   31  C   UNL     1       7.656  21.063  55.003  1.00  0.00     0.002 A 
HETATM   32  C   UNL     1       8.085  21.149  53.685  1.00  0.00     0.000 A 
HETATM   33  C   UNL     1       8.298  22.396  53.117  1.00  0.00     0.002 A 
HETATM   34  C   UNL     1       8.084  23.556  53.871  1.00  0.00     0.030 A 
ENDBRANCH   2  29
TORSDOF 6
ENDMDL
MODEL 7
REMARK VINA RESULT:      -8.2      4.563      7.307
REMARK  6 active torsions:
REMARK  status: ('A' for Active; 'I' for Inactive)
REMARK    1  A    between atoms: O_2  and  C_3 
REMARK    2  A    between atoms: C_6  and  C_7 
REMARK    3  A    between atoms: C_7  and  N_8 
REMARK       I    between atoms: N_8  and  C_9 
REMARK    4  A    between atoms: C_9  and  C_10 
REMARK    5  A    between atoms: C_10  and  O_11 
REMARK    6  A    between atoms: N_12  and  C_13 
ROOT
HETATM    1  C   UNL     1       4.583  28.098  53.261  1.00  0.00     0.256 C 
HETATM    2  N   UNL     1       5.555  27.403  54.126  1.00  0.00    -0.254 N 
HETATM    3  C   UNL     1       5.785  27.843  55.422  1.00  0.00     0.330 C 
HETATM    4  O   UNL     1       6.387  27.220  56.298  1.00  0.00    -0.246 OA
HETATM    5  N   UNL     1       5.296  29.058  55.785  1.00  0.00    -0.308 N 
HETATM    6  C   UNL     1       4.558  29.912  54.988  1.00  0.00     0.048 A 
HETATM    7  C   UNL     1       4.173  29.484  53.729  1.00  0.00     0.035 A 
HETATM    8  C   UNL     1       4.202  31.173  55.474  1.00  0.00     0.031 A 
HETATM    9  C   UNL     1       3.446  32.034  54.683  1.00  0.00     0.021 A 
HETATM   10  C   UNL     1       3.036  31.617  53.421  1.00  0.00     0.011 A 
HETATM   11 BR   UNL     1       2.007  32.773  52.336  1.00  0.00    -0.051 Br
HETATM   12  C   UNL     1       3.381  30.349  52.947  1.00  0.00     0.034 A 
HETATM   13  H   UNL     1       5.542  29.332  56.728  1.00  0.00     0.170 HD
ENDROOT
BRANCH   1  14
HETATM   14  C   UNL     1       5.164  28.264  51.783  1.00  0.00     0.279 C 
HETATM   15  N   UNL     1       4.581  27.397  50.868  1.00  0.00    -0.352 N 
HETATM   16  H   UNL     1       3.975  26.671  51.239  1.00  0.00     0.162 HD
HETATM   17  O   UNL     1       5.992  29.116  51.462  1.00  0.00    -0.268 OA
BRANCH  15  18
HETATM   18  C   UNL     1       4.889  27.422  49.462  1.00  0.00     0.161 C 
BRANCH  18  19
HETATM   19  C   UNL     1       3.661  27.267  48.605  1.00  0.00    -0.040 A 
HETATM   20  C   UNL     1       2.613  28.193  48.672  1.00  0.00     0.011 A 
HETATM   21  C   UNL     1       1.507  28.067  47.827  1.00  0.00     0.037 A 
HETATM   22  C   UNL     1       1.434  27.025  46.901  1.00  0.00     0.068 A 
HETATM   23  C   UNL     1       2.451  26.073  46.862  1.00  0.00     0.037 A 
HETATM   24  C   UNL     1       3.558  26.195  47.708  1.00  0.00     0.011 A 
BRANCH  22  25
HETATM   25  O   UNL     1       0.321  27.033  46.105  1.00  0.00    -0.356 OA
HETATM   26  C   UNL     1      -0.526  28.171  46.232  1.00  0.00     0.210 C 
ENDBRANCH  22  25
ENDBRANCH  18  19
ENDBRANCH  15  18
ENDBRANCH   1  14
BRANCH   1  27
HETATM   27  O   UNL     1       3.376  27.331  53.289  1.00  0.00    -0.359 OA
HETATM   28  H   UNL     1       3.115  27.357  54.227  1.00  0.00     0.213 HD
ENDBRANCH   1  27
BRANCH   2  29
HETATM   29  C   UNL     1       6.238  26.215  53.638  1.00  0.00     0.042 A 
HETATM   30  C   UNL     1       7.484  26.273  52.988  1.00  0.00     0.030 A 
HETATM   31  C   UNL     1       8.134  25.113  52.544  1.00  0.00     0.002 A 
HETATM   32  C   UNL     1       7.555  23.866  52.742  1.00  0.00     0.000 A 
HETATM   33  C   UNL     1       6.330  23.777  53.387  1.00  0.00     0.002 A 
HETATM   34  C   UNL     1       5.685  24.937  53.831  1.00  0.00     0.030 A 
ENDBRANCH   2  29
TORSDOF 6
ENDMDL
MODEL 8
REMARK VINA RESULT:      -8.1      3.455      5.269
REMARK  6 active torsions:
REMARK  status: ('A' for Active; 'I' for Inactive)
REMARK    1  A    between atoms: O_2  and  C_3 
REMARK    2  A    between atoms: C_6  and  C_7 
REMARK    3  A    between atoms: C_7  and  N_8 
REMARK       I    between atoms: N_8  and  C_9 
REMARK    4  A    between atoms: C_9  and  C_10 
REMARK    5  A    between atoms: C_10  and  O_11 
REMARK    6  A    between atoms: N_12  and  C_13 
ROOT
HETATM    1  C   UNL     1       5.000  28.604  52.086  1.00  0.00     0.256 C 
HETATM    2  N   UNL     1       4.990  27.289  51.418  1.00  0.00    -0.254 N 
HETATM    3  C   UNL     1       4.276  27.101  50.242  1.00  0.00     0.330 C 
HETATM    4  O   UNL     1       4.377  26.134  49.485  1.00  0.00    -0.246 OA
HETATM    5  N   UNL     1       3.396  28.065  49.864  1.00  0.00    -0.308 N 
HETATM    6  C   UNL     1       3.146  29.249  50.528  1.00  0.00     0.048 A 
HETATM    7  C   UNL     1       3.917  29.569  51.634  1.00  0.00     0.035 A 
HETATM    8  C   UNL     1       2.143  30.103  50.063  1.00  0.00     0.031 A 
HETATM    9  C   UNL     1       1.895  31.307  50.720  1.00  0.00     0.021 A 
HETATM   10  C   UNL     1       2.668  31.653  51.823  1.00  0.00     0.011 A 
HETATM   11 BR   UNL     1       2.346  33.284  52.722  1.00  0.00    -0.051 Br
HETATM   12  C   UNL     1       3.681  30.804  52.273  1.00  0.00     0.034 A 
HETATM   13  H   UNL     1       2.880  27.838  49.023  1.00  0.00     0.170 HD
ENDROOT
BRANCH   1  14
HETATM   14  C   UNL     1       4.837  28.435  53.664  1.00  0.00     0.279 C 
HETATM   15  N   UNL     1       6.031  28.593  54.355  1.00  0.00    -0.352 N 
HETATM   16  H   UNL     1       6.882  28.650  53.803  1.00  0.00     0.162 HD
HETATM   17  O   UNL     1       3.759  28.253  54.228  1.00  0.00    -0.268 OA
BRANCH  15  18
HETATM   18  C   UNL     1       6.113  28.564  55.792  1.00  0.00     0.161 C 
BRANCH  18  19
HETATM   19  C   UNL     1       6.701  27.276  56.305  1.00  0.00    -0.040 A 
HETATM   20  C   UNL     1       5.994  26.072  56.210  1.00  0.00     0.011 A 
HETATM   21  C   UNL     1       6.579  24.876  56.636  1.00  0.00     0.037 A 
HETATM   22  C   UNL     1       7.875  24.863  57.156  1.00  0.00     0.068 A 
HETATM   23  C   UNL     1       8.566  26.065  57.297  1.00  0.00     0.037 A 
HETATM   24  C   UNL     1       7.983  27.263  56.873  1.00  0.00     0.011 A 
BRANCH  22  25
HETATM   25  O   UNL     1       8.350  23.627  57.501  1.00  0.00    -0.356 OA
HETATM   26  C   UNL     1       8.301  22.635  56.481  1.00  0.00     0.210 C 
ENDBRANCH  22  25
ENDBRANCH  18  19
ENDBRANCH  15  18
ENDBRANCH   1  14
BRANCH   1  27
HETATM   27  O   UNL     1       6.230  29.243  51.730  1.00  0.00    -0.359 OA
HETATM   28  H   UNL     1       6.280  29.112  50.766  1.00  0.00     0.213 HD
ENDBRANCH   1  27
BRANCH   2  29
HETATM   29  C   UNL     1       5.775  26.194  51.965  1.00  0.00     0.042 A 
HETATM   30  C   UNL     1       5.187  25.074  52.577  1.00  0.00     0.030 A 
HETATM   31  C   UNL     1       5.964  24.020  53.080  1.00  0.00     0.002 A 
HETATM   32  C   UNL     1       7.348  24.060  52.979  1.00  0.00     0.000 A 
HETATM   33  C   UNL     1       7.957  25.149  52.373  1.00  0.00     0.002 A 
HETATM   34  C   UNL     1       7.178  26.198  51.870  1.00  0.00     0.030 A 
ENDBRANCH   2  29
TORSDOF 6
ENDMDL
MODEL 9
REMARK VINA RESULT:      -8.1      3.247      4.510
REMARK  6 active torsions:
REMARK  status: ('A' for Active; 'I' for Inactive)
REMARK    1  A    between atoms: O_2  and  C_3 
REMARK    2  A    between atoms: C_6  and  C_7 
REMARK    3  A    between atoms: C_7  and  N_8 
REMARK       I    between atoms: N_8  and  C_9 
REMARK    4  A    between atoms: C_9  and  C_10 
REMARK    5  A    between atoms: C_10  and  O_11 
REMARK    6  A    between atoms: N_12  and  C_13 
ROOT
HETATM    1  C   UNL     1       5.150  28.697  52.070  1.00  0.00     0.256 C 
HETATM    2  N   UNL     1       4.109  28.850  51.036  1.00  0.00    -0.254 N 
HETATM    3  C   UNL     1       3.020  29.685  51.250  1.00  0.00     0.330 C 
HETATM    4  O   UNL     1       2.224  30.065  50.390  1.00  0.00    -0.246 OA
HETATM    5  N   UNL     1       2.806  30.151  52.508  1.00  0.00    -0.308 N 
HETATM    6  C   UNL     1       3.586  29.894  53.619  1.00  0.00     0.048 A 
HETATM    7  C   UNL     1       4.763  29.182  53.457  1.00  0.00     0.035 A 
HETATM    8  C   UNL     1       3.185  30.373  54.869  1.00  0.00     0.031 A 
HETATM    9  C   UNL     1       3.974  30.129  55.991  1.00  0.00     0.021 A 
HETATM   10  C   UNL     1       5.167  29.429  55.847  1.00  0.00     0.011 A 
HETATM   11 BR   UNL     1       6.249  29.094  57.359  1.00  0.00    -0.051 Br
HETATM   12  C   UNL     1       5.571  28.969  54.592  1.00  0.00     0.034 A 
HETATM   13  H   UNL     1       1.970  30.715  52.597  1.00  0.00     0.170 HD
ENDROOT
BRANCH   1  14
HETATM   14  C   UNL     1       5.573  27.165  52.219  1.00  0.00     0.279 C 
HETATM   15  N   UNL     1       4.584  26.380  52.797  1.00  0.00    -0.352 N 
HETATM   16  H   UNL     1       3.779  26.862  53.188  1.00  0.00     0.162 HD
HETATM   17  O   UNL     1       6.635  26.703  51.805  1.00  0.00    -0.268 OA
BRANCH  15  18
HETATM   18  C   UNL     1       4.710  24.955  52.957  1.00  0.00     0.161 C 
BRANCH  18  19
HETATM   19  C   UNL     1       5.812  24.584  53.913  1.00  0.00    -0.040 A 
HETATM   20  C   UNL     1       5.850  25.110  55.210  1.00  0.00     0.011 A 
HETATM   21  C   UNL     1       6.846  24.708  56.105  1.00  0.00     0.037 A 
HETATM   22  C   UNL     1       7.811  23.774  55.723  1.00  0.00     0.068 A 
HETATM   23  C   UNL     1       7.806  23.281  54.419  1.00  0.00     0.037 A 
HETATM   24  C   UNL     1       6.812  23.683  53.521  1.00  0.00     0.011 A 
BRANCH  22  25
HETATM   25  O   UNL     1       8.707  23.433  56.699  1.00  0.00    -0.356 OA
HETATM   26  C   UNL     1       8.939  24.418  57.701  1.00  0.00     0.210 C 
ENDBRANCH  22  25
ENDBRANCH  18  19
ENDBRANCH  15  18
ENDBRANCH   1  14
BRANCH   1  27
HETATM   27  O   UNL     1       6.246  29.531  51.684  1.00  0.00    -0.359 OA
HETATM   28  H   UNL     1       6.997  28.912  51.649  1.00  0.00     0.213 HD
ENDBRANCH   1  27
BRANCH   2  29
HETATM   29  C   UNL     1       4.249  28.163  49.761  1.00  0.00     0.042 A 
HETATM   30  C   UNL     1       3.491  27.028  49.428  1.00  0.00     0.030 A 
HETATM   31  C   UNL     1       3.628  26.394  48.184  1.00  0.00     0.002 A 
HETATM   32  C   UNL     1       4.525  26.883  47.244  1.00  0.00     0.000 A 
HETATM   33  C   UNL     1       5.281  28.007  47.542  1.00  0.00     0.002 A 
HETATM   34  C   UNL     1       5.139  28.639  48.783  1.00  0.00     0.030 A 
ENDBRANCH   2  29
TORSDOF 6
ENDMDL
MODEL 10
REMARK VINA RESULT:      -8.1      3.351      7.293
REMARK  6 active torsions:
REMARK  status: ('A' for Active; 'I' for Inactive)
REMARK    1  A    between atoms: O_2  and  C_3 
REMARK    2  A    between atoms: C_6  and  C_7 
REMARK    3  A    between atoms: C_7  and  N_8 
REMARK       I    between atoms: N_8  and  C_9 
REMARK    4  A    between atoms: C_9  and  C_10 
REMARK    5  A    between atoms: C_10  and  O_11 
REMARK    6  A    between atoms: N_12  and  C_13 
ROOT
HETATM    1  C   UNL     1       5.947  27.955  53.203  1.00  0.00     0.256 C 
HETATM    2  N   UNL     1       6.041  26.530  53.574  1.00  0.00    -0.254 N 
HETATM    3  C   UNL     1       5.870  25.540  52.615  1.00  0.00     0.330 C 
HETATM    4  O   UNL     1       6.148  24.348  52.755  1.00  0.00    -0.246 OA
HETATM    5  N   UNL     1       5.371  25.898  51.404  1.00  0.00    -0.308 N 
HETATM    6  C   UNL     1       5.028  27.175  51.006  1.00  0.00     0.048 A 
HETATM    7  C   UNL     1       5.297  28.234  51.858  1.00  0.00     0.035 A 
HETATM    8  C   UNL     1       4.440  27.374  49.754  1.00  0.00     0.031 A 
HETATM    9  C   UNL     1       4.104  28.661  49.341  1.00  0.00     0.021 A 
HETATM   10  C   UNL     1       4.380  29.739  50.176  1.00  0.00     0.011 A 
HETATM   11 BR   UNL     1       3.933  31.492  49.628  1.00  0.00    -0.051 Br
HETATM   12  C   UNL     1       4.984  29.536  51.418  1.00  0.00     0.034 A 
HETATM   13  H   UNL     1       5.232  25.118  50.774  1.00  0.00     0.170 HD
ENDROOT
BRANCH   1  14
HETATM   14  C   UNL     1       5.113  28.767  54.295  1.00  0.00     0.279 C 
HETATM   15  N   UNL     1       5.896  29.640  55.039  1.00  0.00    -0.352 N 
HETATM   16  H   UNL     1       6.903  29.573  54.924  1.00  0.00     0.162 HD
HETATM   17  O   UNL     1       3.893  28.687  54.426  1.00  0.00    -0.268 OA
BRANCH  15  18
HETATM   18  C   UNL     1       5.347  30.534  56.025  1.00  0.00     0.161 C 
BRANCH  18  19
HETATM   19  C   UNL     1       6.192  30.600  57.270  1.00  0.00    -0.040 A 
HETATM   20  C   UNL     1       7.123  29.595  57.563  1.00  0.00     0.011 A 
HETATM   21  C   UNL     1       7.942  29.702  58.691  1.00  0.00     0.037 A 
HETATM   22  C   UNL     1       7.849  30.810  59.536  1.00  0.00     0.068 A 
HETATM   23  C   UNL     1       6.892  31.790  59.275  1.00  0.00     0.037 A 
HETATM   24  C   UNL     1       6.071  31.685  58.148  1.00  0.00     0.011 A 
BRANCH  22  25
HETATM   25  O   UNL     1       8.730  30.817  60.583  1.00  0.00    -0.356 OA
HETATM   26  C   UNL     1       9.567  31.964  60.683  1.00  0.00     0.210 C 
ENDBRANCH  22  25
ENDBRANCH  18  19
ENDBRANCH  15  18
ENDBRANCH   1  14
BRANCH   1  27
HETATM   27  O   UNL     1       7.287  28.440  53.068  1.00  0.00    -0.359 OA
HETATM   28  H   UNL     1       7.298  28.822  52.173  1.00  0.00     0.213 HD
ENDBRANCH   1  27
BRANCH   2  29
HETATM   29  C   UNL     1       6.366  26.159  54.942  1.00  0.00     0.042 A 
HETATM   30  C   UNL     1       5.421  25.599  55.818  1.00  0.00     0.030 A 
HETATM   31  C   UNL     1       5.763  25.229  57.127  1.00  0.00     0.002 A 
HETATM   32  C   UNL     1       7.060  25.409  57.589  1.00  0.00     0.000 A 
HETATM   33  C   UNL     1       8.017  25.951  56.744  1.00  0.00     0.002 A 
HETATM   34  C   UNL     1       7.673  26.316  55.438  1.00  0.00     0.030 A 
ENDBRANCH   2  29
TORSDOF 6
ENDMDL
