MODEL 1
REMARK VINA RESULT:      -9.6      0.000      0.000
REMARK  7 active torsions:
REMARK  status: ('A' for Active; 'I' for Inactive)
REMARK    1  A    between atoms: O_2  and  C_3 
REMARK    2  A    between atoms: C_5  and  N_6 
REMARK    3  A    between atoms: C_7  and  C_9 
REMARK    4  A    between atoms: C_7  and  O_8 
REMARK       I    between atoms: C_9  and  N_10 
REMARK    5  A    between atoms: N_10  and  C_11 
REMARK    6  A    between atoms: C_11  and  C_12 
REMARK    7  A    between atoms: C_12  and  C_13 
ROOT
HETATM    1  N   UNL     1       5.913  26.137  55.549  1.00  0.00    -0.254 N 
HETATM    2  C   UNL     1       5.895  27.217  54.529  1.00  0.00     0.256 C 
HETATM    3  C   UNL     1       5.032  28.417  54.854  1.00  0.00     0.034 A 
HETATM    4  C   UNL     1       4.282  28.425  56.015  1.00  0.00     0.048 A 
HETATM    5  N   UNL     1       4.311  27.310  56.829  1.00  0.00    -0.308 N 
HETATM    6  C   UNL     1       5.032  26.177  56.624  1.00  0.00     0.330 C 
HETATM    7  O   UNL     1       4.832  25.271  57.435  1.00  0.00    -0.246 OA
HETATM    8  C   UNL     1       4.950  29.531  53.997  1.00  0.00     0.015 A 
HETATM    9  C   UNL     1       4.154  30.628  54.328  1.00  0.00     0.001 A 
HETATM   10  C   UNL     1       3.425  30.623  55.513  1.00  0.00     0.002 A 
HETATM   11  C   UNL     1       3.481  29.515  56.357  1.00  0.00     0.030 A 
HETATM   12  H   UNL     1       3.707  27.269  57.640  1.00  0.00     0.170 HD
ENDROOT
BRANCH   2  13
HETATM   13  C   UNL     1       7.393  27.769  54.364  1.00  0.00     0.279 C 
HETATM   14  N   UNL     1       7.808  28.646  55.355  1.00  0.00    -0.356 N 
HETATM   15  H   UNL     1       7.153  28.898  56.086  1.00  0.00     0.162 HD
HETATM   16  O   UNL     1       8.109  27.486  53.400  1.00  0.00    -0.268 OA
BRANCH  14  17
HETATM   17  C   UNL     1       9.141  29.216  55.391  1.00  0.00     0.127 C 
BRANCH  17  18
HETATM   18  C   UNL     1       9.895  29.004  56.711  1.00  0.00     0.058 C 
BRANCH  18  19
HETATM   19  C   UNL     1       9.503  29.946  57.826  1.00  0.00    -0.057 A 
HETATM   20  C   UNL     1      10.250  31.101  58.098  1.00  0.00     0.009 A 
HETATM   21  C   UNL     1       9.862  31.971  59.120  1.00  0.00     0.024 A 
HETATM   22  C   UNL     1       8.721  31.695  59.869  1.00  0.00     0.034 A 
HETATM   23 CL   UNL     1       8.243  32.766  61.129  1.00  0.00    -0.084 Cl
HETATM   24  C   UNL     1       7.960  30.561  59.602  1.00  0.00     0.024 A 
HETATM   25  C   UNL     1       8.350  29.690  58.584  1.00  0.00     0.009 A 
ENDBRANCH  18  19
ENDBRANCH  17  18
ENDBRANCH  14  17
ENDBRANCH   2  13
BRANCH   2  26
HETATM   26  O   UNL     1       5.286  26.675  53.366  1.00  0.00    -0.359 OA
HETATM   27  H   UNL     1       5.979  26.146  52.942  1.00  0.00     0.213 HD
ENDBRANCH   2  26
BRANCH   1  28
HETATM   28  C   UNL     1       6.847  25.017  55.385  1.00  0.00     0.045 A 
HETATM   29  C   UNL     1       6.681  24.057  54.366  1.00  0.00     0.066 A 
HETATM   30  C   UNL     1       7.574  22.990  54.189  1.00  0.00     0.070 A 
HETATM   31  C   UNL     1       8.640  22.835  55.067  1.00  0.00     0.037 A 
HETATM   32  C   UNL     1       8.822  23.746  56.099  1.00  0.00     0.005 A 
HETATM   33  C   UNL     1       7.939  24.821  56.253  1.00  0.00     0.030 A 
BRANCH  30  34
HETATM   34  O   UNL     1       7.490  22.029  53.218  1.00  0.00    -0.356 OA
HETATM   35  C   UNL     1       8.436  20.968  53.289  1.00  0.00     0.210 C 
ENDBRANCH  30  34
ENDBRANCH   1  28
TORSDOF 7
ENDMDL
MODEL 2
REMARK VINA RESULT:      -9.5      4.135      7.906
REMARK  7 active torsions:
REMARK  status: ('A' for Active; 'I' for Inactive)
REMARK    1  A    between atoms: O_2  and  C_3 
REMARK    2  A    between atoms: C_5  and  N_6 
REMARK    3  A    between atoms: C_7  and  C_9 
REMARK    4  A    between atoms: C_7  and  O_8 
REMARK       I    between atoms: C_9  and  N_10 
REMARK    5  A    between atoms: N_10  and  C_11 
REMARK    6  A    between atoms: C_11  and  C_12 
REMARK    7  A    between atoms: C_12  and  C_13 
ROOT
HETATM    1  N   UNL     1       7.137  27.308  56.174  1.00  0.00    -0.254 N 
HETATM    2  C   UNL     1       7.208  27.282  54.690  1.00  0.00     0.256 C 
HETATM    3  C   UNL     1       7.504  25.934  54.068  1.00  0.00     0.034 A 
HETATM    4  C   UNL     1       7.744  24.844  54.883  1.00  0.00     0.048 A 
HETATM    5  N   UNL     1       7.749  25.027  56.251  1.00  0.00    -0.308 N 
HETATM    6  C   UNL     1       7.515  26.192  56.912  1.00  0.00     0.330 C 
HETATM    7  O   UNL     1       7.662  26.144  58.134  1.00  0.00    -0.246 OA
HETATM    8  C   UNL     1       7.563  25.752  52.674  1.00  0.00     0.015 A 
HETATM    9  C   UNL     1       7.828  24.495  52.128  1.00  0.00     0.001 A 
HETATM   10  C   UNL     1       8.045  23.407  52.968  1.00  0.00     0.002 A 
HETATM   11  C   UNL     1       8.012  23.582  54.351  1.00  0.00     0.030 A 
HETATM   12  H   UNL     1       8.001  24.257  56.858  1.00  0.00     0.170 HD
ENDROOT
BRANCH   2  13
HETATM   13  C   UNL     1       5.781  27.740  54.116  1.00  0.00     0.279 C 
HETATM   14  N   UNL     1       5.785  28.941  53.422  1.00  0.00    -0.356 N 
HETATM   15  H   UNL     1       6.656  29.454  53.344  1.00  0.00     0.162 HD
HETATM   16  O   UNL     1       4.742  27.109  54.322  1.00  0.00    -0.268 OA
BRANCH  14  17
HETATM   17  C   UNL     1       4.598  29.494  52.800  1.00  0.00     0.127 C 
BRANCH  17  18
HETATM   18  C   UNL     1       4.722  29.752  51.293  1.00  0.00     0.058 C 
BRANCH  18  19
HETATM   19  C   UNL     1       4.302  28.596  50.413  1.00  0.00    -0.057 A 
HETATM   20  C   UNL     1       3.203  28.701  49.550  1.00  0.00     0.009 A 
HETATM   21  C   UNL     1       2.841  27.629  48.731  1.00  0.00     0.024 A 
HETATM   22  C   UNL     1       3.582  26.450  48.764  1.00  0.00     0.034 A 
HETATM   23 CL   UNL     1       3.135  25.129  47.756  1.00  0.00    -0.084 Cl
HETATM   24  C   UNL     1       4.685  26.335  49.605  1.00  0.00     0.024 A 
HETATM   25  C   UNL     1       5.043  27.405  50.426  1.00  0.00     0.009 A 
ENDBRANCH  18  19
ENDBRANCH  17  18
ENDBRANCH  14  17
ENDBRANCH   2  13
BRANCH   2  26
HETATM   26  O   UNL     1       8.326  28.072  54.317  1.00  0.00    -0.359 OA
HETATM   27  H   UNL     1       8.047  28.544  53.517  1.00  0.00     0.213 HD
ENDBRANCH   2  26
BRANCH   1  28
HETATM   28  C   UNL     1       6.696  28.537  56.844  1.00  0.00     0.045 A 
HETATM   29  C   UNL     1       7.617  29.470  57.361  1.00  0.00     0.066 A 
HETATM   30  C   UNL     1       7.210  30.655  57.991  1.00  0.00     0.070 A 
HETATM   31  C   UNL     1       5.854  30.913  58.157  1.00  0.00     0.037 A 
HETATM   32  C   UNL     1       4.916  30.006  57.683  1.00  0.00     0.005 A 
HETATM   33  C   UNL     1       5.333  28.836  57.035  1.00  0.00     0.030 A 
BRANCH  30  34
HETATM   34  O   UNL     1       8.040  31.614  58.505  1.00  0.00    -0.356 OA
HETATM   35  C   UNL     1       9.418  31.272  58.612  1.00  0.00     0.210 C 
ENDBRANCH  30  34
ENDBRANCH   1  28
TORSDOF 7
ENDMDL
MODEL 3
REMARK VINA RESULT:      -9.5      3.433      6.297
REMARK  7 active torsions:
REMARK  status: ('A' for Active; 'I' for Inactive)
REMARK    1  A    between atoms: O_2  and  C_3 
REMARK    2  A    between atoms: C_5  and  N_6 
REMARK    3  A    between atoms: C_7  and  C_9 
REMARK    4  A    between atoms: C_7  and  O_8 
REMARK       I    between atoms: C_9  and  N_10 
REMARK    5  A    between atoms: N_10  and  C_11 
REMARK    6  A    between atoms: C_11  and  C_12 
REMARK    7  A    between atoms: C_12  and  C_13 
ROOT
HETATM    1  N   UNL     1       5.256  29.358  54.847  1.00  0.00    -0.254 N 
HETATM    2  C   UNL     1       4.595  28.657  53.716  1.00  0.00     0.256 C 
HETATM    3  C   UNL     1       3.784  29.531  52.783  1.00  0.00     0.034 A 
HETATM    4  C   UNL     1       3.654  30.880  53.053  1.00  0.00     0.048 A 
HETATM    5  N   UNL     1       4.236  31.387  54.197  1.00  0.00    -0.308 N 
HETATM    6  C   UNL     1       4.966  30.692  55.109  1.00  0.00     0.330 C 
HETATM    7  O   UNL     1       5.313  31.330  56.104  1.00  0.00    -0.246 OA
HETATM    8  C   UNL     1       3.135  29.009  51.649  1.00  0.00     0.015 A 
HETATM    9  C   UNL     1       2.403  29.841  50.800  1.00  0.00     0.001 A 
HETATM   10  C   UNL     1       2.303  31.201  51.079  1.00  0.00     0.002 A 
HETATM   11  C   UNL     1       2.923  31.723  52.214  1.00  0.00     0.030 A 
HETATM   12  H   UNL     1       4.082  32.355  54.449  1.00  0.00     0.170 HD
ENDROOT
BRANCH   2  13
HETATM   13  C   UNL     1       5.738  27.976  52.818  1.00  0.00     0.279 C 
HETATM   14  N   UNL     1       5.683  26.591  52.749  1.00  0.00    -0.356 N 
HETATM   15  H   UNL     1       4.964  26.107  53.274  1.00  0.00     0.162 HD
HETATM   16  O   UNL     1       6.636  28.622  52.275  1.00  0.00    -0.268 OA
BRANCH  14  17
HETATM   17  C   UNL     1       6.609  25.808  51.955  1.00  0.00     0.127 C 
BRANCH  17  18
HETATM   18  C   UNL     1       7.909  25.425  52.675  1.00  0.00     0.058 C 
BRANCH  18  19
HETATM   19  C   UNL     1       7.830  24.163  53.502  1.00  0.00    -0.057 A 
HETATM   20  C   UNL     1       7.906  22.897  52.906  1.00  0.00     0.009 A 
HETATM   21  C   UNL     1       7.849  21.741  53.688  1.00  0.00     0.024 A 
HETATM   22  C   UNL     1       7.726  21.845  55.072  1.00  0.00     0.034 A 
HETATM   23 CL   UNL     1       7.656  20.421  56.035  1.00  0.00    -0.084 Cl
HETATM   24  C   UNL     1       7.665  23.095  55.681  1.00  0.00     0.024 A 
HETATM   25  C   UNL     1       7.717  24.249  54.898  1.00  0.00     0.009 A 
ENDBRANCH  18  19
ENDBRANCH  17  18
ENDBRANCH  14  17
ENDBRANCH   2  13
BRANCH   2  26
HETATM   26  O   UNL     1       3.627  27.786  54.280  1.00  0.00    -0.359 OA
HETATM   27  H   UNL     1       3.903  26.896  54.013  1.00  0.00     0.213 HD
ENDBRANCH   2  26
BRANCH   1  28
HETATM   28  C   UNL     1       6.189  28.611  55.700  1.00  0.00     0.045 A 
HETATM   29  C   UNL     1       7.535  29.002  55.847  1.00  0.00     0.066 A 
HETATM   30  C   UNL     1       8.432  28.306  56.670  1.00  0.00     0.070 A 
HETATM   31  C   UNL     1       8.006  27.163  57.337  1.00  0.00     0.037 A 
HETATM   32  C   UNL     1       6.695  26.731  57.197  1.00  0.00     0.005 A 
HETATM   33  C   UNL     1       5.800  27.447  56.392  1.00  0.00     0.030 A 
BRANCH  30  34
HETATM   34  O   UNL     1       9.746  28.631  56.875  1.00  0.00    -0.356 OA
HETATM   35  C   UNL     1      10.253  29.734  56.132  1.00  0.00     0.210 C 
ENDBRANCH  30  34
ENDBRANCH   1  28
TORSDOF 7
ENDMDL
MODEL 4
REMARK VINA RESULT:      -9.2      4.713      8.596
REMARK  7 active torsions:
REMARK  status: ('A' for Active; 'I' for Inactive)
REMARK    1  A    between atoms: O_2  and  C_3 
REMARK    2  A    between atoms: C_5  and  N_6 
REMARK    3  A    between atoms: C_7  and  C_9 
REMARK    4  A    between atoms: C_7  and  O_8 
REMARK       I    between atoms: C_9  and  N_10 
REMARK    5  A    between atoms: N_10  and  C_11 
REMARK    6  A    between atoms: C_11  and  C_12 
REMARK    7  A    between atoms: C_12  and  C_13 
ROOT
HETATM    1  N   UNL     1       6.953  25.677  55.525  1.00  0.00    -0.254 N 
HETATM    2  C   UNL     1       7.149  25.118  54.163  1.00  0.00     0.256 C 
HETATM    3  C   UNL     1       7.425  23.631  54.093  1.00  0.00     0.034 A 
HETATM    4  C   UNL     1       7.537  22.902  55.262  1.00  0.00     0.048 A 
HETATM    5  N   UNL     1       7.434  23.565  56.469  1.00  0.00    -0.308 N 
HETATM    6  C   UNL     1       7.208  24.893  56.646  1.00  0.00     0.330 C 
HETATM    7  O   UNL     1       7.247  25.284  57.813  1.00  0.00    -0.246 OA
HETATM    8  C   UNL     1       7.593  22.960  52.868  1.00  0.00     0.015 A 
HETATM    9  C   UNL     1       7.836  21.586  52.834  1.00  0.00     0.001 A 
HETATM   10  C   UNL     1       7.922  20.868  54.023  1.00  0.00     0.002 A 
HETATM   11  C   UNL     1       7.781  21.528  55.242  1.00  0.00     0.030 A 
HETATM   12  H   UNL     1       7.593  23.059  57.331  1.00  0.00     0.170 HD
ENDROOT
BRANCH   2  13
HETATM   13  C   UNL     1       5.802  25.367  53.326  1.00  0.00     0.279 C 
HETATM   14  N   UNL     1       5.900  26.325  52.327  1.00  0.00    -0.356 N 
HETATM   15  H   UNL     1       6.780  26.813  52.206  1.00  0.00     0.162 HD
HETATM   16  O   UNL     1       4.739  24.798  53.582  1.00  0.00    -0.268 OA
BRANCH  14  17
HETATM   17  C   UNL     1       4.798  26.656  51.445  1.00  0.00     0.127 C 
BRANCH  17  18
HETATM   18  C   UNL     1       5.121  26.561  49.948  1.00  0.00     0.058 C 
BRANCH  18  19
HETATM   19  C   UNL     1       3.934  26.731  49.029  1.00  0.00    -0.057 A 
HETATM   20  C   UNL     1       3.088  27.844  49.132  1.00  0.00     0.009 A 
HETATM   21  C   UNL     1       2.005  27.994  48.262  1.00  0.00     0.024 A 
HETATM   22  C   UNL     1       1.768  27.037  47.278  1.00  0.00     0.034 A 
HETATM   23 CL   UNL     1       0.435  27.222  46.207  1.00  0.00    -0.084 Cl
HETATM   24  C   UNL     1       2.607  25.934  47.153  1.00  0.00     0.024 A 
HETATM   25  C   UNL     1       3.686  25.782  48.026  1.00  0.00     0.009 A 
ENDBRANCH  18  19
ENDBRANCH  17  18
ENDBRANCH  14  17
ENDBRANCH   2  13
BRANCH   2  26
HETATM   26  O   UNL     1       8.335  25.700  53.645  1.00  0.00    -0.359 OA
HETATM   27  H   UNL     1       8.877  25.903  54.423  1.00  0.00     0.213 HD
ENDBRANCH   2  26
BRANCH   1  28
HETATM   28  C   UNL     1       6.523  27.073  55.668  1.00  0.00     0.045 A 
HETATM   29  C   UNL     1       5.169  27.416  55.851  1.00  0.00     0.066 A 
HETATM   30  C   UNL     1       4.746  28.745  56.003  1.00  0.00     0.070 A 
HETATM   31  C   UNL     1       5.678  29.773  55.928  1.00  0.00     0.037 A 
HETATM   32  C   UNL     1       7.018  29.477  55.723  1.00  0.00     0.005 A 
HETATM   33  C   UNL     1       7.433  28.146  55.596  1.00  0.00     0.030 A 
BRANCH  30  34
HETATM   34  O   UNL     1       3.456  29.156  56.199  1.00  0.00    -0.356 OA
HETATM   35  C   UNL     1       3.271  30.520  56.564  1.00  0.00     0.210 C 
ENDBRANCH  30  34
ENDBRANCH   1  28
TORSDOF 7
ENDMDL
MODEL 5
REMARK VINA RESULT:      -9.2      2.144      5.724
REMARK  7 active torsions:
REMARK  status: ('A' for Active; 'I' for Inactive)
REMARK    1  A    between atoms: O_2  and  C_3 
REMARK    2  A    between atoms: C_5  and  N_6 
REMARK    3  A    between atoms: C_7  and  C_9 
REMARK    4  A    between atoms: C_7  and  O_8 
REMARK       I    between atoms: C_9  and  N_10 
REMARK    5  A    between atoms: N_10  and  C_11 
REMARK    6  A    between atoms: C_11  and  C_12 
REMARK    7  A    between atoms: C_12  and  C_13 
ROOT
HETATM    1  N   UNL     1       5.538  28.274  54.862  1.00  0.00    -0.254 N 
HETATM    2  C   UNL     1       6.048  27.007  55.446  1.00  0.00     0.256 C 
HETATM    3  C   UNL     1       6.723  26.059  54.477  1.00  0.00     0.034 A 
HETATM    4  C   UNL     1       6.778  26.380  53.134  1.00  0.00     0.048 A 
HETATM    5  N   UNL     1       6.174  27.546  52.706  1.00  0.00    -0.308 N 
HETATM    6  C   UNL     1       5.527  28.454  53.483  1.00  0.00     0.330 C 
HETATM    7  O   UNL     1       4.982  29.376  52.874  1.00  0.00    -0.246 OA
HETATM    8  C   UNL     1       7.287  24.840  54.897  1.00  0.00     0.015 A 
HETATM    9  C   UNL     1       7.913  23.991  53.983  1.00  0.00     0.001 A 
HETATM   10  C   UNL     1       7.976  24.346  52.639  1.00  0.00     0.002 A 
HETATM   11  C   UNL     1       7.400  25.540  52.209  1.00  0.00     0.030 A 
HETATM   12  H   UNL     1       6.137  27.754  51.716  1.00  0.00     0.170 HD
ENDROOT
BRANCH   2  13
HETATM   13  C   UNL     1       7.147  27.378  56.555  1.00  0.00     0.279 C 
HETATM   14  N   UNL     1       8.286  28.002  56.068  1.00  0.00    -0.356 N 
HETATM   15  H   UNL     1       8.365  28.157  55.070  1.00  0.00     0.162 HD
HETATM   16  O   UNL     1       7.023  27.082  57.746  1.00  0.00    -0.268 OA
BRANCH  14  17
HETATM   17  C   UNL     1       9.367  28.444  56.926  1.00  0.00     0.127 C 
BRANCH  17  18
HETATM   18  C   UNL     1       9.546  29.966  57.003  1.00  0.00     0.058 C 
BRANCH  18  19
HETATM   19  C   UNL     1       9.283  30.569  58.363  1.00  0.00    -0.057 A 
HETATM   20  C   UNL     1       8.346  30.005  59.240  1.00  0.00     0.009 A 
HETATM   21  C   UNL     1       8.129  30.565  60.501  1.00  0.00     0.024 A 
HETATM   22  C   UNL     1       8.854  31.687  60.896  1.00  0.00     0.034 A 
HETATM   23 CL   UNL     1       8.586  32.378  62.449  1.00  0.00    -0.084 Cl
HETATM   24  C   UNL     1       9.799  32.250  60.043  1.00  0.00     0.024 A 
HETATM   25  C   UNL     1      10.012  31.693  58.782  1.00  0.00     0.009 A 
ENDBRANCH  18  19
ENDBRANCH  17  18
ENDBRANCH  14  17
ENDBRANCH   2  13
BRANCH   2  26
HETATM   26  O   UNL     1       4.917  26.274  55.892  1.00  0.00    -0.359 OA
HETATM   27  H   UNL     1       4.395  26.907  56.409  1.00  0.00     0.213 HD
ENDBRANCH   2  26
BRANCH   1  28
HETATM   28  C   UNL     1       5.017  29.313  55.758  1.00  0.00     0.045 A 
HETATM   29  C   UNL     1       5.857  30.294  56.323  1.00  0.00     0.066 A 
HETATM   30  C   UNL     1       5.370  31.300  57.169  1.00  0.00     0.070 A 
HETATM   31  C   UNL     1       4.022  31.318  57.508  1.00  0.00     0.037 A 
HETATM   32  C   UNL     1       3.168  30.353  56.993  1.00  0.00     0.005 A 
HETATM   33  C   UNL     1       3.660  29.367  56.130  1.00  0.00     0.030 A 
BRANCH  30  34
HETATM   34  O   UNL     1       6.116  32.294  57.743  1.00  0.00    -0.356 OA
HETATM   35  C   UNL     1       5.643  32.811  58.982  1.00  0.00     0.210 C 
ENDBRANCH  30  34
ENDBRANCH   1  28
TORSDOF 7
ENDMDL
MODEL 6
REMARK VINA RESULT:      -9.2      4.128      7.918
REMARK  7 active torsions:
REMARK  status: ('A' for Active; 'I' for Inactive)
REMARK    1  A    between atoms: O_2  and  C_3 
REMARK    2  A    between atoms: C_5  and  N_6 
REMARK    3  A    between atoms: C_7  and  C_9 
REMARK    4  A    between atoms: C_7  and  O_8 
REMARK       I    between atoms: C_9  and  N_10 
REMARK    5  A    between atoms: N_10  and  C_11 
REMARK    6  A    between atoms: C_11  and  C_12 
REMARK    7  A    between atoms: C_12  and  C_13 
ROOT
HETATM    1  N   UNL     1       7.142  27.372  56.111  1.00  0.00    -0.254 N 
HETATM    2  C   UNL     1       7.201  27.326  54.627  1.00  0.00     0.256 C 
HETATM    3  C   UNL     1       7.477  25.967  54.020  1.00  0.00     0.034 A 
HETATM    4  C   UNL     1       7.711  24.885  54.848  1.00  0.00     0.048 A 
HETATM    5  N   UNL     1       7.728  25.086  56.213  1.00  0.00    -0.308 N 
HETATM    6  C   UNL     1       7.514  26.262  56.861  1.00  0.00     0.330 C 
HETATM    7  O   UNL     1       7.669  26.228  58.082  1.00  0.00    -0.246 OA
HETATM    8  C   UNL     1       7.523  25.767  52.628  1.00  0.00     0.015 A 
HETATM    9  C   UNL     1       7.769  24.500  52.097  1.00  0.00     0.001 A 
HETATM   10  C   UNL     1       7.980  23.420  52.949  1.00  0.00     0.002 A 
HETATM   11  C   UNL     1       7.960  23.613  54.329  1.00  0.00     0.030 A 
HETATM   12  H   UNL     1       7.977  24.321  56.828  1.00  0.00     0.170 HD
ENDROOT
BRANCH   2  13
HETATM   13  C   UNL     1       5.775  27.794  54.058  1.00  0.00     0.279 C 
HETATM   14  N   UNL     1       5.785  28.993  53.361  1.00  0.00    -0.356 N 
HETATM   15  H   UNL     1       6.659  29.499  53.278  1.00  0.00     0.162 HD
HETATM   16  O   UNL     1       4.732  27.171  54.270  1.00  0.00    -0.268 OA
BRANCH  14  17
HETATM   17  C   UNL     1       4.598  29.553  52.744  1.00  0.00     0.127 C 
BRANCH  17  18
HETATM   18  C   UNL     1       4.712  29.792  51.232  1.00  0.00     0.058 C 
BRANCH  18  19
HETATM   19  C   UNL     1       4.288  28.625  50.370  1.00  0.00    -0.057 A 
HETATM   20  C   UNL     1       3.171  28.711  49.528  1.00  0.00     0.009 A 
HETATM   21  C   UNL     1       2.804  27.628  48.725  1.00  0.00     0.024 A 
HETATM   22  C   UNL     1       3.558  26.457  48.753  1.00  0.00     0.034 A 
HETATM   23 CL   UNL     1       3.107  25.124  47.763  1.00  0.00    -0.084 Cl
HETATM   24  C   UNL     1       4.679  26.361  49.572  1.00  0.00     0.024 A 
HETATM   25  C   UNL     1       5.042  27.441  50.378  1.00  0.00     0.009 A 
ENDBRANCH  18  19
ENDBRANCH  17  18
ENDBRANCH  14  17
ENDBRANCH   2  13
BRANCH   2  26
HETATM   26  O   UNL     1       8.325  28.099  54.235  1.00  0.00    -0.359 OA
HETATM   27  H   UNL     1       8.203  28.959  54.665  1.00  0.00     0.213 HD
ENDBRANCH   2  26
BRANCH   1  28
HETATM   28  C   UNL     1       6.721  28.615  56.768  1.00  0.00     0.045 A 
HETATM   29  C   UNL     1       5.361  28.912  56.990  1.00  0.00     0.066 A 
HETATM   30  C   UNL     1       4.946  30.089  57.630  1.00  0.00     0.070 A 
HETATM   31  C   UNL     1       5.894  31.026  58.026  1.00  0.00     0.037 A 
HETATM   32  C   UNL     1       7.241  30.781  57.802  1.00  0.00     0.005 A 
HETATM   33  C   UNL     1       7.647  29.592  57.184  1.00  0.00     0.030 A 
BRANCH  30  34
HETATM   34  O   UNL     1       3.650  30.442  57.893  1.00  0.00    -0.356 OA
HETATM   35  C   UNL     1       3.434  31.265  59.035  1.00  0.00     0.210 C 
ENDBRANCH  30  34
ENDBRANCH   1  28
TORSDOF 7
ENDMDL
MODEL 7
REMARK VINA RESULT:      -9.2      4.140      6.439
REMARK  7 active torsions:
REMARK  status: ('A' for Active; 'I' for Inactive)
REMARK    1  A    between atoms: O_2  and  C_3 
REMARK    2  A    between atoms: C_5  and  N_6 
REMARK    3  A    between atoms: C_7  and  C_9 
REMARK    4  A    between atoms: C_7  and  O_8 
REMARK       I    between atoms: C_9  and  N_10 
REMARK    5  A    between atoms: N_10  and  C_11 
REMARK    6  A    between atoms: C_11  and  C_12 
REMARK    7  A    between atoms: C_12  and  C_13 
ROOT
HETATM    1  N   UNL     1       6.902  25.928  55.951  1.00  0.00    -0.254 N 
HETATM    2  C   UNL     1       5.559  26.504  55.682  1.00  0.00     0.256 C 
HETATM    3  C   UNL     1       5.286  27.858  56.302  1.00  0.00     0.034 A 
HETATM    4  C   UNL     1       6.242  28.445  57.109  1.00  0.00     0.048 A 
HETATM    5  N   UNL     1       7.411  27.754  57.361  1.00  0.00    -0.308 N 
HETATM    6  C   UNL     1       7.749  26.531  56.875  1.00  0.00     0.330 C 
HETATM    7  O   UNL     1       8.804  26.065  57.307  1.00  0.00    -0.246 OA
HETATM    8  C   UNL     1       4.072  28.540  56.099  1.00  0.00     0.015 A 
HETATM    9  C   UNL     1       3.852  29.792  56.675  1.00  0.00     0.001 A 
HETATM   10  C   UNL     1       4.838  30.374  57.466  1.00  0.00     0.002 A 
HETATM   11  C   UNL     1       6.035  29.696  57.692  1.00  0.00     0.030 A 
HETATM   12  H   UNL     1       8.085  28.135  58.013  1.00  0.00     0.170 HD
ENDROOT
BRANCH   2  13
HETATM   13  C   UNL     1       5.410  26.695  54.095  1.00  0.00     0.279 C 
HETATM   14  N   UNL     1       6.073  27.796  53.572  1.00  0.00    -0.356 N 
HETATM   15  H   UNL     1       6.573  28.408  54.205  1.00  0.00     0.162 HD
HETATM   16  O   UNL     1       4.713  25.959  53.394  1.00  0.00    -0.268 OA
BRANCH  14  17
HETATM   17  C   UNL     1       6.082  28.107  52.155  1.00  0.00     0.127 C 
BRANCH  17  18
HETATM   18  C   UNL     1       4.814  28.801  51.641  1.00  0.00     0.058 C 
BRANCH  18  19
HETATM   19  C   UNL     1       4.153  28.126  50.462  1.00  0.00    -0.057 A 
HETATM   20  C   UNL     1       2.986  28.647  49.885  1.00  0.00     0.009 A 
HETATM   21  C   UNL     1       2.399  28.019  48.784  1.00  0.00     0.024 A 
HETATM   22  C   UNL     1       2.980  26.872  48.248  1.00  0.00     0.034 A 
HETATM   23 CL   UNL     1       2.257  26.099  46.892  1.00  0.00    -0.084 Cl
HETATM   24  C   UNL     1       4.147  26.351  48.800  1.00  0.00     0.024 A 
HETATM   25  C   UNL     1       4.730  26.976  49.903  1.00  0.00     0.009 A 
ENDBRANCH  18  19
ENDBRANCH  17  18
ENDBRANCH  14  17
ENDBRANCH   2  13
BRANCH   2  26
HETATM   26  O   UNL     1       4.612  25.654  56.311  1.00  0.00    -0.359 OA
HETATM   27  H   UNL     1       5.101  24.843  56.521  1.00  0.00     0.213 HD
ENDBRANCH   2  26
BRANCH   1  28
HETATM   28  C   UNL     1       7.302  24.699  55.256  1.00  0.00     0.045 A 
HETATM   29  C   UNL     1       7.225  23.437  55.879  1.00  0.00     0.066 A 
HETATM   30  C   UNL     1       7.590  22.253  55.221  1.00  0.00     0.070 A 
HETATM   31  C   UNL     1       8.089  22.315  53.925  1.00  0.00     0.037 A 
HETATM   32  C   UNL     1       8.205  23.542  53.287  1.00  0.00     0.005 A 
HETATM   33  C   UNL     1       7.815  24.716  53.944  1.00  0.00     0.030 A 
BRANCH  30  34
HETATM   34  O   UNL     1       7.530  20.993  55.751  1.00  0.00    -0.356 OA
HETATM   35  C   UNL     1       8.754  20.442  56.224  1.00  0.00     0.210 C 
ENDBRANCH  30  34
ENDBRANCH   1  28
TORSDOF 7
ENDMDL
MODEL 8
REMARK VINA RESULT:      -9.1      2.148      5.866
REMARK  7 active torsions:
REMARK  status: ('A' for Active; 'I' for Inactive)
REMARK    1  A    between atoms: O_2  and  C_3 
REMARK    2  A    between atoms: C_5  and  N_6 
REMARK    3  A    between atoms: C_7  and  C_9 
REMARK    4  A    between atoms: C_7  and  O_8 
REMARK       I    between atoms: C_9  and  N_10 
REMARK    5  A    between atoms: N_10  and  C_11 
REMARK    6  A    between atoms: C_11  and  C_12 
REMARK    7  A    between atoms: C_12  and  C_13 
ROOT
HETATM    1  N   UNL     1       4.682  28.108  54.925  1.00  0.00    -0.254 N 
HETATM    2  C   UNL     1       5.469  27.180  55.777  1.00  0.00     0.256 C 
HETATM    3  C   UNL     1       5.935  25.904  55.107  1.00  0.00     0.034 A 
HETATM    4  C   UNL     1       5.567  25.647  53.800  1.00  0.00     0.048 A 
HETATM    5  N   UNL     1       4.745  26.548  53.152  1.00  0.00    -0.308 N 
HETATM    6  C   UNL     1       4.256  27.708  53.663  1.00  0.00     0.330 C 
HETATM    7  O   UNL     1       3.465  28.313  52.938  1.00  0.00    -0.246 OA
HETATM    8  C   UNL     1       6.721  24.952  55.781  1.00  0.00     0.015 A 
HETATM    9  C   UNL     1       7.144  23.789  55.134  1.00  0.00     0.001 A 
HETATM   10  C   UNL     1       6.781  23.562  53.810  1.00  0.00     0.002 A 
HETATM   11  C   UNL     1       5.982  24.488  53.142  1.00  0.00     0.030 A 
HETATM   12  H   UNL     1       4.404  26.334  52.224  1.00  0.00     0.170 HD
ENDROOT
BRANCH   2  13
HETATM   13  C   UNL     1       6.795  27.948  56.256  1.00  0.00     0.279 C 
HETATM   14  N   UNL     1       6.821  28.293  57.600  1.00  0.00    -0.356 N 
HETATM   15  H   UNL     1       6.016  28.069  58.174  1.00  0.00     0.162 HD
HETATM   16  O   UNL     1       7.702  28.264  55.483  1.00  0.00    -0.268 OA
BRANCH  14  17
HETATM   17  C   UNL     1       7.952  28.956  58.218  1.00  0.00     0.127 C 
BRANCH  17  18
HETATM   18  C   UNL     1       7.841  30.486  58.287  1.00  0.00     0.058 C 
BRANCH  18  19
HETATM   19  C   UNL     1       7.904  31.066  59.681  1.00  0.00    -0.057 A 
HETATM   20  C   UNL     1       8.948  30.740  60.557  1.00  0.00     0.009 A 
HETATM   21  C   UNL     1       9.000  31.300  61.836  1.00  0.00     0.024 A 
HETATM   22  C   UNL     1       8.014  32.196  62.242  1.00  0.00     0.034 A 
HETATM   23 CL   UNL     1       8.077  32.885  63.817  1.00  0.00    -0.084 Cl
HETATM   24  C   UNL     1       6.979  32.541  61.378  1.00  0.00     0.024 A 
HETATM   25  C   UNL     1       6.924  31.977  60.102  1.00  0.00     0.009 A 
ENDBRANCH  18  19
ENDBRANCH  17  18
ENDBRANCH  14  17
ENDBRANCH   2  13
BRANCH   2  26
HETATM   26  O   UNL     1       4.598  26.719  56.799  1.00  0.00    -0.359 OA
HETATM   27  H   UNL     1       4.979  27.053  57.625  1.00  0.00     0.213 HD
ENDBRANCH   2  26
BRANCH   1  28
HETATM   28  C   UNL     1       4.334  29.434  55.450  1.00  0.00     0.045 A 
HETATM   29  C   UNL     1       4.868  30.614  54.896  1.00  0.00     0.066 A 
HETATM   30  C   UNL     1       4.532  31.888  55.379  1.00  0.00     0.070 A 
HETATM   31  C   UNL     1       3.678  32.004  56.469  1.00  0.00     0.037 A 
HETATM   32  C   UNL     1       3.152  30.864  57.059  1.00  0.00     0.005 A 
HETATM   33  C   UNL     1       3.475  29.598  56.555  1.00  0.00     0.030 A 
BRANCH  30  34
HETATM   34  O   UNL     1       4.996  33.077  54.886  1.00  0.00    -0.356 OA
HETATM   35  C   UNL     1       4.876  34.210  55.741  1.00  0.00     0.210 C 
ENDBRANCH  30  34
ENDBRANCH   1  28
TORSDOF 7
ENDMDL
MODEL 9
REMARK VINA RESULT:      -8.9      1.816      5.733
REMARK  7 active torsions:
REMARK  status: ('A' for Active; 'I' for Inactive)
REMARK    1  A    between atoms: O_2  and  C_3 
REMARK    2  A    between atoms: C_5  and  N_6 
REMARK    3  A    between atoms: C_7  and  C_9 
REMARK    4  A    between atoms: C_7  and  O_8 
REMARK       I    between atoms: C_9  and  N_10 
REMARK    5  A    between atoms: N_10  and  C_11 
REMARK    6  A    between atoms: C_11  and  C_12 
REMARK    7  A    between atoms: C_12  and  C_13 
ROOT
HETATM    1  N   UNL     1       5.462  27.003  54.972  1.00  0.00    -0.254 N 
HETATM    2  C   UNL     1       6.247  26.559  56.153  1.00  0.00     0.256 C 
HETATM    3  C   UNL     1       7.007  25.260  55.989  1.00  0.00     0.034 A 
HETATM    4  C   UNL     1       6.891  24.545  54.812  1.00  0.00     0.048 A 
HETATM    5  N   UNL     1       6.045  25.019  53.829  1.00  0.00    -0.308 N 
HETATM    6  C   UNL     1       5.304  26.157  53.879  1.00  0.00     0.330 C 
HETATM    7  O   UNL     1       4.548  26.337  52.924  1.00  0.00    -0.246 OA
HETATM    8  C   UNL     1       7.822  24.739  57.011  1.00  0.00     0.015 A 
HETATM    9  C   UNL     1       8.520  23.544  56.827  1.00  0.00     0.001 A 
HETATM   10  C   UNL     1       8.406  22.853  55.625  1.00  0.00     0.002 A 
HETATM   11  C   UNL     1       7.582  23.348  54.616  1.00  0.00     0.030 A 
HETATM   12  H   UNL     1       5.889  24.466  52.996  1.00  0.00     0.170 HD
ENDROOT
BRANCH   2  13
HETATM   13  C   UNL     1       7.343  27.687  56.473  1.00  0.00     0.279 C 
HETATM   14  N   UNL     1       7.257  28.248  57.739  1.00  0.00    -0.356 N 
HETATM   15  H   UNL     1       6.514  27.941  58.356  1.00  0.00     0.162 HD
HETATM   16  O   UNL     1       8.168  28.075  55.642  1.00  0.00    -0.268 OA
BRANCH  14  17
HETATM   17  C   UNL     1       8.185  29.253  58.217  1.00  0.00     0.127 C 
BRANCH  17  18
HETATM   18  C   UNL     1       7.589  30.660  58.367  1.00  0.00     0.058 C 
BRANCH  18  19
HETATM   19  C   UNL     1       7.693  31.250  59.754  1.00  0.00    -0.057 A 
HETATM   20  C   UNL     1       6.761  32.189  60.217  1.00  0.00     0.009 A 
HETATM   21  C   UNL     1       6.862  32.710  61.509  1.00  0.00     0.024 A 
HETATM   22  C   UNL     1       7.891  32.289  62.348  1.00  0.00     0.034 A 
HETATM   23 CL   UNL     1       8.016  32.931  63.940  1.00  0.00    -0.084 Cl
HETATM   24  C   UNL     1       8.816  31.346  61.909  1.00  0.00     0.024 A 
HETATM   25  C   UNL     1       8.717  30.829  60.616  1.00  0.00     0.009 A 
ENDBRANCH  18  19
ENDBRANCH  17  18
ENDBRANCH  14  17
ENDBRANCH   2  13
BRANCH   2  26
HETATM   26  O   UNL     1       5.314  26.270  57.183  1.00  0.00    -0.359 OA
HETATM   27  H   UNL     1       5.204  25.307  57.160  1.00  0.00     0.213 HD
ENDBRANCH   2  26
BRANCH   1  28
HETATM   28  C   UNL     1       4.830  28.327  54.994  1.00  0.00     0.045 A 
HETATM   29  C   UNL     1       4.159  28.809  56.136  1.00  0.00     0.066 A 
HETATM   30  C   UNL     1       3.563  30.079  56.175  1.00  0.00     0.070 A 
HETATM   31  C   UNL     1       3.589  30.884  55.042  1.00  0.00     0.037 A 
HETATM   32  C   UNL     1       4.218  30.434  53.890  1.00  0.00     0.005 A 
HETATM   33  C   UNL     1       4.830  29.174  53.868  1.00  0.00     0.030 A 
BRANCH  30  34
HETATM   34  O   UNL     1       2.908  30.622  57.246  1.00  0.00    -0.356 OA
HETATM   35  C   UNL     1       3.569  31.685  57.924  1.00  0.00     0.210 C 
ENDBRANCH  30  34
ENDBRANCH   1  28
TORSDOF 7
ENDMDL
MODEL 10
REMARK VINA RESULT:      -8.9      1.972      5.407
REMARK  7 active torsions:
REMARK  status: ('A' for Active; 'I' for Inactive)
REMARK    1  A    between atoms: O_2  and  C_3 
REMARK    2  A    between atoms: C_5  and  N_6 
REMARK    3  A    between atoms: C_7  and  C_9 
REMARK    4  A    between atoms: C_7  and  O_8 
REMARK       I    between atoms: C_9  and  N_10 
REMARK    5  A    between atoms: N_10  and  C_11 
REMARK    6  A    between atoms: C_11  and  C_12 
REMARK    7  A    between atoms: C_12  and  C_13 
ROOT
HETATM    1  N   UNL     1       5.562  26.391  53.423  1.00  0.00    -0.254 N 
HETATM    2  C   UNL     1       6.075  26.305  54.814  1.00  0.00     0.256 C 
HETATM    3  C   UNL     1       6.756  25.005  55.187  1.00  0.00     0.034 A 
HETATM    4  C   UNL     1       6.811  23.975  54.266  1.00  0.00     0.048 A 
HETATM    5  N   UNL     1       6.203  24.150  53.039  1.00  0.00    -0.308 N 
HETATM    6  C   UNL     1       5.552  25.263  52.610  1.00  0.00     0.330 C 
HETATM    7  O   UNL     1       5.004  25.163  51.511  1.00  0.00    -0.246 OA
HETATM    8  C   UNL     1       7.323  24.797  56.458  1.00  0.00     0.015 A 
HETATM    9  C   UNL     1       7.953  23.591  56.770  1.00  0.00     0.001 A 
HETATM   10  C   UNL     1       8.017  22.577  55.819  1.00  0.00     0.002 A 
HETATM   11  C   UNL     1       7.437  22.764  54.566  1.00  0.00     0.030 A 
HETATM   12  H   UNL     1       6.166  23.378  52.386  1.00  0.00     0.170 HD
ENDROOT
BRANCH   2  13
HETATM   13  C   UNL     1       7.171  27.461  55.012  1.00  0.00     0.279 C 
HETATM   14  N   UNL     1       6.924  28.332  56.063  1.00  0.00    -0.356 N 
HETATM   15  H   UNL     1       6.079  28.206  56.609  1.00  0.00     0.162 HD
HETATM   16  O   UNL     1       8.134  27.608  54.255  1.00  0.00    -0.268 OA
BRANCH  14  17
HETATM   17  C   UNL     1       7.823  29.413  56.416  1.00  0.00     0.127 C 
BRANCH  17  18
HETATM   18  C   UNL     1       8.502  29.264  57.784  1.00  0.00     0.058 C 
BRANCH  18  19
HETATM   19  C   UNL     1       8.092  30.293  58.812  1.00  0.00    -0.057 A 
HETATM   20  C   UNL     1       8.827  30.476  59.991  1.00  0.00     0.009 A 
HETATM   21  C   UNL     1       8.444  31.446  60.921  1.00  0.00     0.024 A 
HETATM   22  C   UNL     1       7.329  32.243  60.673  1.00  0.00     0.034 A 
HETATM   23 CL   UNL     1       6.857  33.436  61.819  1.00  0.00    -0.084 Cl
HETATM   24  C   UNL     1       6.597  32.084  59.500  1.00  0.00     0.024 A 
HETATM   25  C   UNL     1       6.977  31.112  58.574  1.00  0.00     0.009 A 
ENDBRANCH  18  19
ENDBRANCH  17  18
ENDBRANCH  14  17
ENDBRANCH   2  13
BRANCH   2  26
HETATM   26  O   UNL     1       4.946  26.347  55.674  1.00  0.00    -0.359 OA
HETATM   27  H   UNL     1       4.896  27.265  55.980  1.00  0.00     0.213 HD
ENDBRANCH   2  26
BRANCH   1  28
HETATM   28  C   UNL     1       5.036  27.672  52.936  1.00  0.00     0.045 A 
HETATM   29  C   UNL     1       5.747  28.461  52.010  1.00  0.00     0.066 A 
HETATM   30  C   UNL     1       5.250  29.680  51.526  1.00  0.00     0.070 A 
HETATM   31  C   UNL     1       4.034  30.161  51.999  1.00  0.00     0.037 A 
HETATM   32  C   UNL     1       3.317  29.425  52.931  1.00  0.00     0.005 A 
HETATM   33  C   UNL     1       3.811  28.198  53.390  1.00  0.00     0.030 A 
BRANCH  30  34
HETATM   34  O   UNL     1       5.871  30.493  50.618  1.00  0.00    -0.356 OA
HETATM   35  C   UNL     1       5.196  31.699  50.276  1.00  0.00     0.210 C 
ENDBRANCH  30  34
ENDBRANCH   1  28
TORSDOF 7
ENDMDL
