MODEL 1
REMARK VINA RESULT:     -10.3      0.000      0.000
REMARK  6 active torsions:
REMARK  status: ('A' for Active; 'I' for Inactive)
REMARK    1  A    between atoms: C_4  and  C_5 
REMARK    2  A    between atoms: C_14  and  C_15 
REMARK       I    between atoms: C_15  and  N_16 
REMARK    3  A    between atoms: N_16  and  C_17 
REMARK    4  A    between atoms: C_17  and  C_18 
REMARK    5  A    between atoms: C_18  and  N_19 
REMARK       I    between atoms: N_19  and  C_20 
REMARK    6  A    between atoms: C_20  and  C_21 
ROOT
HETATM    1  C   UNL     1       7.195  23.894  55.263  1.00  0.00     0.069 A 
HETATM    2  N   UNL     1       6.273  24.440  54.427  1.00  0.00    -0.230 NA
HETATM    3  C   UNL     1       5.859  25.666  54.789  1.00  0.00     0.139 A 
HETATM    4  C   UNL     1       6.254  26.410  55.891  1.00  0.00     0.027 A 
HETATM    5  C   UNL     1       7.200  25.817  56.742  1.00  0.00     0.018 A 
HETATM    6  C   UNL     1       7.666  24.540  56.412  1.00  0.00     0.033 A 
HETATM    7  N   UNL     1       4.944  26.401  54.093  1.00  0.00    -0.349 N 
HETATM    8  H   UNL     1       4.506  26.078  53.242  1.00  0.00     0.167 HD
HETATM    9  C   UNL     1       4.732  27.602  54.723  1.00  0.00     0.108 A 
HETATM   10  C   UNL     1       5.532  27.651  55.859  1.00  0.00     0.061 A 
ENDROOT
BRANCH  10  11
HETATM   11  C   UNL     1       5.636  28.734  56.837  1.00  0.00     0.254 C 
HETATM   12  N   UNL     1       6.841  29.403  56.862  1.00  0.00    -0.355 N 
HETATM   13  H   UNL     1       7.585  29.129  56.240  1.00  0.00     0.162 HD
HETATM   14  O   UNL     1       4.713  29.031  57.589  1.00  0.00    -0.268 OA
BRANCH  12  15
HETATM   15  C   UNL     1       7.074  30.510  57.773  1.00  0.00     0.142 C 
BRANCH  15  16
HETATM   16  C   UNL     1       8.006  30.134  58.931  1.00  0.00     0.142 C 
BRANCH  16  17
HETATM   17  N   UNL     1       7.644  30.794  60.173  1.00  0.00    -0.355 N 
HETATM   18  C   UNL     1       8.155  32.026  60.526  1.00  0.00     0.258 C 
HETATM   19  O   UNL     1       8.943  32.619  59.793  1.00  0.00    -0.267 OA
HETATM   20  H   UNL     1       7.034  30.317  60.823  1.00  0.00     0.162 HD
BRANCH  18  21
HETATM   21  C   UNL     1       7.714  32.561  61.807  1.00  0.00     0.072 A 
HETATM   22  S   UNL     1       6.314  33.538  61.966  1.00  0.00    -0.097 SA
HETATM   23  C   UNL     1       6.533  33.701  63.655  1.00  0.00     0.050 A 
HETATM   24  C   UNL     1       7.648  33.027  64.098  1.00  0.00     0.009 A 
HETATM   25  C   UNL     1       8.326  32.369  63.033  1.00  0.00     0.025 A 
ENDBRANCH  18  21
ENDBRANCH  16  17
ENDBRANCH  15  16
ENDBRANCH  12  15
ENDBRANCH  10  11
BRANCH   1  26
HETATM   26  C   UNL     1       7.663  22.540  54.882  1.00  0.00    -0.007 A 
HETATM   27  C   UNL     1       7.808  22.149  53.539  1.00  0.00     0.014 A 
HETATM   28  C   UNL     1       8.260  20.870  53.196  1.00  0.00     0.001 A 
HETATM   29  C   UNL     1       8.574  19.950  54.193  1.00  0.00     0.000 A 
HETATM   30  C   UNL     1       8.431  20.306  55.530  1.00  0.00     0.001 A 
HETATM   31  C   UNL     1       7.979  21.586  55.868  1.00  0.00     0.014 A 
ENDBRANCH   1  26
TORSDOF 6
ENDMDL
MODEL 2
REMARK VINA RESULT:      -9.9      1.886      2.514
REMARK  6 active torsions:
REMARK  status: ('A' for Active; 'I' for Inactive)
REMARK    1  A    between atoms: C_4  and  C_5 
REMARK    2  A    between atoms: C_14  and  C_15 
REMARK       I    between atoms: C_15  and  N_16 
REMARK    3  A    between atoms: N_16  and  C_17 
REMARK    4  A    between atoms: C_17  and  C_18 
REMARK    5  A    between atoms: C_18  and  N_19 
REMARK       I    between atoms: N_19  and  C_20 
REMARK    6  A    between atoms: C_20  and  C_21 
ROOT
HETATM    1  C   UNL     1       6.940  24.599  55.280  1.00  0.00     0.069 A 
HETATM    2  N   UNL     1       7.798  25.182  56.157  1.00  0.00    -0.230 NA
HETATM    3  C   UNL     1       7.399  26.385  56.601  1.00  0.00     0.139 A 
HETATM    4  C   UNL     1       6.244  27.078  56.269  1.00  0.00     0.027 A 
HETATM    5  C   UNL     1       5.380  26.456  55.353  1.00  0.00     0.018 A 
HETATM    6  C   UNL     1       5.748  25.200  54.859  1.00  0.00     0.033 A 
HETATM    7  N   UNL     1       8.102  27.145  57.490  1.00  0.00    -0.349 N 
HETATM    8  H   UNL     1       8.984  26.857  57.889  1.00  0.00     0.167 HD
HETATM    9  C   UNL     1       7.433  28.318  57.737  1.00  0.00     0.108 A 
HETATM   10  C   UNL     1       6.260  28.321  56.989  1.00  0.00     0.061 A 
ENDROOT
BRANCH  10  11
HETATM   11  C   UNL     1       5.236  29.364  56.931  1.00  0.00     0.254 C 
HETATM   12  N   UNL     1       4.602  29.646  58.121  1.00  0.00    -0.355 N 
HETATM   13  H   UNL     1       4.845  29.139  58.957  1.00  0.00     0.162 HD
HETATM   14  O   UNL     1       4.956  29.952  55.891  1.00  0.00    -0.268 OA
BRANCH  12  15
HETATM   15  C   UNL     1       3.577  30.671  58.209  1.00  0.00     0.142 C 
BRANCH  15  16
HETATM   16  C   UNL     1       4.091  31.964  58.854  1.00  0.00     0.142 C 
BRANCH  16  17
HETATM   17  N   UNL     1       5.121  31.719  59.849  1.00  0.00    -0.355 N 
HETATM   18  C   UNL     1       6.464  31.777  59.543  1.00  0.00     0.258 C 
HETATM   19  O   UNL     1       6.845  32.045  58.405  1.00  0.00    -0.267 OA
HETATM   20  H   UNL     1       4.846  31.451  60.784  1.00  0.00     0.162 HD
BRANCH  18  21
HETATM   21  C   UNL     1       7.385  31.496  60.636  1.00  0.00     0.072 A 
HETATM   22  S   UNL     1       8.845  30.624  60.414  1.00  0.00    -0.097 SA
HETATM   23  C   UNL     1       9.256  30.752  62.070  1.00  0.00     0.050 A 
HETATM   24  C   UNL     1       8.306  31.445  62.785  1.00  0.00     0.009 A 
HETATM   25  C   UNL     1       7.230  31.874  61.959  1.00  0.00     0.025 A 
ENDBRANCH  18  21
ENDBRANCH  16  17
ENDBRANCH  15  16
ENDBRANCH  12  15
ENDBRANCH  10  11
BRANCH   1  26
HETATM   26  C   UNL     1       7.364  23.271  54.776  1.00  0.00    -0.007 A 
HETATM   27  C   UNL     1       7.613  23.032  53.412  1.00  0.00     0.014 A 
HETATM   28  C   UNL     1       8.022  21.775  52.955  1.00  0.00     0.001 A 
HETATM   29  C   UNL     1       8.187  20.724  53.853  1.00  0.00     0.000 A 
HETATM   30  C   UNL     1       7.937  20.928  55.206  1.00  0.00     0.001 A 
HETATM   31  C   UNL     1       7.529  22.187  55.660  1.00  0.00     0.014 A 
ENDBRANCH   1  26
TORSDOF 6
ENDMDL
MODEL 3
REMARK VINA RESULT:      -9.7      5.586      8.449
REMARK  6 active torsions:
REMARK  status: ('A' for Active; 'I' for Inactive)
REMARK    1  A    between atoms: C_4  and  C_5 
REMARK    2  A    between atoms: C_14  and  C_15 
REMARK       I    between atoms: C_15  and  N_16 
REMARK    3  A    between atoms: N_16  and  C_17 
REMARK    4  A    between atoms: C_17  and  C_18 
REMARK    5  A    between atoms: C_18  and  N_19 
REMARK       I    between atoms: N_19  and  C_20 
REMARK    6  A    between atoms: C_20  and  C_21 
ROOT
HETATM    1  C   UNL     1       6.646  24.005  54.069  1.00  0.00     0.069 A 
HETATM    2  N   UNL     1       6.568  24.729  55.216  1.00  0.00    -0.230 NA
HETATM    3  C   UNL     1       5.928  25.902  55.085  1.00  0.00     0.139 A 
HETATM    4  C   UNL     1       5.360  26.442  53.940  1.00  0.00     0.027 A 
HETATM    5  C   UNL     1       5.464  25.677  52.768  1.00  0.00     0.018 A 
HETATM    6  C   UNL     1       6.120  24.444  52.849  1.00  0.00     0.033 A 
HETATM    7  N   UNL     1       5.730  26.785  56.107  1.00  0.00    -0.349 N 
HETATM    8  H   UNL     1       6.049  26.620  57.051  1.00  0.00     0.167 HD
HETATM    9  C   UNL     1       5.052  27.887  55.649  1.00  0.00     0.108 A 
HETATM   10  C   UNL     1       4.800  27.717  54.292  1.00  0.00     0.061 A 
ENDROOT
BRANCH  10  11
HETATM   11  C   UNL     1       4.108  28.634  53.386  1.00  0.00     0.254 C 
HETATM   12  N   UNL     1       4.766  29.812  53.109  1.00  0.00    -0.355 N 
HETATM   13  H   UNL     1       5.662  30.003  53.531  1.00  0.00     0.162 HD
HETATM   14  O   UNL     1       3.010  28.374  52.902  1.00  0.00    -0.268 OA
BRANCH  12  15
HETATM   15  C   UNL     1       4.200  30.804  52.212  1.00  0.00     0.142 C 
BRANCH  15  16
HETATM   16  C   UNL     1       4.745  30.685  50.783  1.00  0.00     0.142 C 
BRANCH  16  17
HETATM   17  N   UNL     1       4.054  29.670  50.007  1.00  0.00    -0.355 N 
HETATM   18  C   UNL     1       4.576  28.406  49.823  1.00  0.00     0.258 C 
HETATM   19  O   UNL     1       5.655  28.086  50.316  1.00  0.00    -0.267 OA
HETATM   20  H   UNL     1       3.186  29.909  49.548  1.00  0.00     0.162 HD
BRANCH  18  21
HETATM   21  C   UNL     1       3.780  27.495  49.011  1.00  0.00     0.072 A 
HETATM   22  S   UNL     1       2.199  27.882  48.469  1.00  0.00    -0.097 SA
HETATM   23  C   UNL     1       2.033  26.383  47.661  1.00  0.00     0.050 A 
HETATM   24  C   UNL     1       3.155  25.597  47.795  1.00  0.00     0.009 A 
HETATM   25  C   UNL     1       4.161  26.239  48.571  1.00  0.00     0.025 A 
ENDBRANCH  18  21
ENDBRANCH  16  17
ENDBRANCH  15  16
ENDBRANCH  12  15
ENDBRANCH  10  11
BRANCH   1  26
HETATM   26  C   UNL     1       7.350  22.706  54.193  1.00  0.00    -0.007 A 
HETATM   27  C   UNL     1       7.586  22.099  55.440  1.00  0.00     0.014 A 
HETATM   28  C   UNL     1       8.244  20.869  55.539  1.00  0.00     0.001 A 
HETATM   29  C   UNL     1       8.686  20.218  54.390  1.00  0.00     0.000 A 
HETATM   30  C   UNL     1       8.475  20.800  53.144  1.00  0.00     0.001 A 
HETATM   31  C   UNL     1       7.816  22.030  53.050  1.00  0.00     0.014 A 
ENDBRANCH   1  26
TORSDOF 6
ENDMDL
MODEL 4
REMARK VINA RESULT:      -9.6      3.290      3.909
REMARK  6 active torsions:
REMARK  status: ('A' for Active; 'I' for Inactive)
REMARK    1  A    between atoms: C_4  and  C_5 
REMARK    2  A    between atoms: C_14  and  C_15 
REMARK       I    between atoms: C_15  and  N_16 
REMARK    3  A    between atoms: N_16  and  C_17 
REMARK    4  A    between atoms: C_17  and  C_18 
REMARK    5  A    between atoms: C_18  and  N_19 
REMARK       I    between atoms: N_19  and  C_20 
REMARK    6  A    between atoms: C_20  and  C_21 
ROOT
HETATM    1  C   UNL     1       7.001  23.754  54.264  1.00  0.00     0.069 A 
HETATM    2  N   UNL     1       6.202  24.030  53.200  1.00  0.00    -0.230 NA
HETATM    3  C   UNL     1       5.645  25.252  53.230  1.00  0.00     0.139 A 
HETATM    4  C   UNL     1       5.788  26.232  54.203  1.00  0.00     0.027 A 
HETATM    5  C   UNL     1       6.612  25.916  55.295  1.00  0.00     0.018 A 
HETATM    6  C   UNL     1       7.217  24.655  55.313  1.00  0.00     0.033 A 
HETATM    7  N   UNL     1       4.814  25.739  52.264  1.00  0.00    -0.349 N 
HETATM    8  H   UNL     1       4.555  25.214  51.441  1.00  0.00     0.167 HD
HETATM    9  C   UNL     1       4.410  27.010  52.590  1.00  0.00     0.108 A 
HETATM   10  C   UNL     1       4.995  27.360  53.802  1.00  0.00     0.061 A 
ENDROOT
BRANCH  10  11
HETATM   11  C   UNL     1       4.851  28.616  54.538  1.00  0.00     0.254 C 
HETATM   12  N   UNL     1       3.982  28.586  55.607  1.00  0.00    -0.355 N 
HETATM   13  H   UNL     1       3.485  27.738  55.832  1.00  0.00     0.162 HD
HETATM   14  O   UNL     1       5.462  29.634  54.226  1.00  0.00    -0.268 OA
BRANCH  12  15
HETATM   15  C   UNL     1       3.757  29.759  56.434  1.00  0.00     0.142 C 
BRANCH  15  16
HETATM   16  C   UNL     1       4.601  29.746  57.715  1.00  0.00     0.142 C 
BRANCH  16  17
HETATM   17  N   UNL     1       5.999  30.053  57.464  1.00  0.00    -0.355 N 
HETATM   18  C   UNL     1       6.988  29.097  57.561  1.00  0.00     0.258 C 
HETATM   19  O   UNL     1       6.722  27.936  57.865  1.00  0.00    -0.267 OA
HETATM   20  H   UNL     1       6.262  31.006  57.255  1.00  0.00     0.162 HD
BRANCH  18  21
HETATM   21  C   UNL     1       8.347  29.550  57.294  1.00  0.00     0.072 A 
HETATM   22  S   UNL     1       9.223  30.539  58.386  1.00  0.00    -0.097 SA
HETATM   23  C   UNL     1      10.593  30.580  57.363  1.00  0.00     0.050 A 
HETATM   24  C   UNL     1      10.396  29.856  56.209  1.00  0.00     0.009 A 
HETATM   25  C   UNL     1       9.103  29.261  56.171  1.00  0.00     0.025 A 
ENDBRANCH  18  21
ENDBRANCH  16  17
ENDBRANCH  15  16
ENDBRANCH  12  15
ENDBRANCH  10  11
BRANCH   1  26
HETATM   26  C   UNL     1       7.623  22.409  54.250  1.00  0.00    -0.007 A 
HETATM   27  C   UNL     1       8.033  21.762  55.430  1.00  0.00     0.014 A 
HETATM   28  C   UNL     1       8.610  20.488  55.399  1.00  0.00     0.001 A 
HETATM   29  C   UNL     1       8.795  19.833  54.184  1.00  0.00     0.000 A 
HETATM   30  C   UNL     1       8.409  20.454  53.001  1.00  0.00     0.001 A 
HETATM   31  C   UNL     1       7.831  21.728  53.036  1.00  0.00     0.014 A 
ENDBRANCH   1  26
TORSDOF 6
ENDMDL
MODEL 5
REMARK VINA RESULT:      -9.2      6.870      9.917
REMARK  6 active torsions:
REMARK  status: ('A' for Active; 'I' for Inactive)
REMARK    1  A    between atoms: C_4  and  C_5 
REMARK    2  A    between atoms: C_14  and  C_15 
REMARK       I    between atoms: C_15  and  N_16 
REMARK    3  A    between atoms: N_16  and  C_17 
REMARK    4  A    between atoms: C_17  and  C_18 
REMARK    5  A    between atoms: C_18  and  N_19 
REMARK       I    between atoms: N_19  and  C_20 
REMARK    6  A    between atoms: C_20  and  C_21 
ROOT
HETATM    1  C   UNL     1       7.152  23.690  53.604  1.00  0.00     0.069 A 
HETATM    2  N   UNL     1       6.106  24.294  54.227  1.00  0.00    -0.230 NA
HETATM    3  C   UNL     1       5.680  25.417  53.625  1.00  0.00     0.139 A 
HETATM    4  C   UNL     1       6.180  26.012  52.475  1.00  0.00     0.027 A 
HETATM    5  C   UNL     1       7.266  25.372  51.858  1.00  0.00     0.018 A 
HETATM    6  C   UNL     1       7.749  24.197  52.444  1.00  0.00     0.033 A 
HETATM    7  N   UNL     1       4.642  26.180  54.074  1.00  0.00    -0.349 N 
HETATM    8  H   UNL     1       4.106  25.955  54.900  1.00  0.00     0.167 HD
HETATM    9  C   UNL     1       4.461  27.259  53.246  1.00  0.00     0.108 A 
HETATM   10  C   UNL     1       5.406  27.197  52.228  1.00  0.00     0.061 A 
ENDROOT
BRANCH  10  11
HETATM   11  C   UNL     1       5.594  28.133  51.119  1.00  0.00     0.254 C 
HETATM   12  N   UNL     1       5.326  27.634  49.864  1.00  0.00    -0.355 N 
HETATM   13  H   UNL     1       5.031  26.676  49.751  1.00  0.00     0.162 HD
HETATM   14  O   UNL     1       5.968  29.289  51.293  1.00  0.00    -0.268 OA
BRANCH  12  15
HETATM   15  C   UNL     1       5.455  28.460  48.676  1.00  0.00     0.142 C 
BRANCH  15  16
HETATM   16  C   UNL     1       4.373  29.544  48.593  1.00  0.00     0.142 C 
BRANCH  16  17
HETATM   17  N   UNL     1       3.286  29.178  47.700  1.00  0.00    -0.355 N 
HETATM   18  C   UNL     1       1.991  29.022  48.147  1.00  0.00     0.258 C 
HETATM   19  O   UNL     1       1.703  29.191  49.330  1.00  0.00    -0.267 OA
HETATM   20  H   UNL     1       3.493  28.986  46.729  1.00  0.00     0.162 HD
BRANCH  18  21
HETATM   21  C   UNL     1       1.007  28.641  47.143  1.00  0.00     0.072 A 
HETATM   22  S   UNL     1      -0.109  29.756  46.473  1.00  0.00    -0.097 SA
HETATM   23  C   UNL     1      -0.814  28.561  45.473  1.00  0.00     0.050 A 
HETATM   24  C   UNL     1      -0.216  27.332  45.639  1.00  0.00     0.009 A 
HETATM   25  C   UNL     1       0.834  27.379  46.599  1.00  0.00     0.025 A 
ENDBRANCH  18  21
ENDBRANCH  16  17
ENDBRANCH  15  16
ENDBRANCH  12  15
ENDBRANCH  10  11
BRANCH   1  26
HETATM   26  C   UNL     1       7.638  22.450  54.254  1.00  0.00    -0.007 A 
HETATM   27  C   UNL     1       7.692  22.310  55.653  1.00  0.00     0.014 A 
HETATM   28  C   UNL     1       8.144  21.129  56.251  1.00  0.00     0.001 A 
HETATM   29  C   UNL     1       8.558  20.060  55.460  1.00  0.00     0.000 A 
HETATM   30  C   UNL     1       8.526  20.174  54.075  1.00  0.00     0.001 A 
HETATM   31  C   UNL     1       8.072  21.357  53.481  1.00  0.00     0.014 A 
ENDBRANCH   1  26
TORSDOF 6
ENDMDL
MODEL 6
REMARK VINA RESULT:      -9.1      3.391     10.732
REMARK  6 active torsions:
REMARK  status: ('A' for Active; 'I' for Inactive)
REMARK    1  A    between atoms: C_4  and  C_5 
REMARK    2  A    between atoms: C_14  and  C_15 
REMARK       I    between atoms: C_15  and  N_16 
REMARK    3  A    between atoms: N_16  and  C_17 
REMARK    4  A    between atoms: C_17  and  C_18 
REMARK    5  A    between atoms: C_18  and  N_19 
REMARK       I    between atoms: N_19  and  C_20 
REMARK    6  A    between atoms: C_20  and  C_21 
ROOT
HETATM    1  C   UNL     1       7.045  31.977  60.612  1.00  0.00     0.069 A 
HETATM    2  N   UNL     1       6.089  32.331  59.713  1.00  0.00    -0.230 NA
HETATM    3  C   UNL     1       6.132  31.640  58.562  1.00  0.00     0.139 A 
HETATM    4  C   UNL     1       7.022  30.639  58.199  1.00  0.00     0.027 A 
HETATM    5  C   UNL     1       8.004  30.301  59.142  1.00  0.00     0.018 A 
HETATM    6  C   UNL     1       8.004  30.990  60.360  1.00  0.00     0.033 A 
HETATM    7  N   UNL     1       5.265  31.827  57.524  1.00  0.00    -0.349 N 
HETATM    8  H   UNL     1       4.515  32.503  57.544  1.00  0.00     0.167 HD
HETATM    9  C   UNL     1       5.577  30.975  56.495  1.00  0.00     0.108 A 
HETATM   10  C   UNL     1       6.675  30.210  56.872  1.00  0.00     0.061 A 
ENDROOT
BRANCH  10  11
HETATM   11  C   UNL     1       7.357  29.174  56.097  1.00  0.00     0.254 C 
HETATM   12  N   UNL     1       6.607  28.057  55.803  1.00  0.00    -0.355 N 
HETATM   13  H   UNL     1       5.655  27.985  56.128  1.00  0.00     0.162 HD
HETATM   14  O   UNL     1       8.523  29.289  55.730  1.00  0.00    -0.268 OA
BRANCH  12  15
HETATM   15  C   UNL     1       7.155  26.959  55.025  1.00  0.00     0.142 C 
BRANCH  15  16
HETATM   16  C   UNL     1       7.663  25.810  55.904  1.00  0.00     0.142 C 
BRANCH  16  17
HETATM   17  N   UNL     1       7.803  24.565  55.167  1.00  0.00    -0.355 N 
HETATM   18  C   UNL     1       8.185  23.390  55.779  1.00  0.00     0.258 C 
HETATM   19  O   UNL     1       8.422  23.349  56.985  1.00  0.00    -0.267 OA
HETATM   20  H   UNL     1       7.661  24.569  54.167  1.00  0.00     0.162 HD
BRANCH  18  21
HETATM   21  C   UNL     1       8.297  22.223  54.914  1.00  0.00     0.072 A 
HETATM   22  S   UNL     1       8.979  20.742  55.444  1.00  0.00    -0.097 SA
HETATM   23  C   UNL     1       8.727  19.999  53.924  1.00  0.00     0.050 A 
HETATM   24  C   UNL     1       8.135  20.856  53.023  1.00  0.00     0.009 A 
HETATM   25  C   UNL     1       7.885  22.135  53.595  1.00  0.00     0.025 A 
ENDBRANCH  18  21
ENDBRANCH  16  17
ENDBRANCH  15  16
ENDBRANCH  12  15
ENDBRANCH  10  11
BRANCH   1  26
HETATM   26  C   UNL     1       7.015  32.729  61.888  1.00  0.00    -0.007 A 
HETATM   27  C   UNL     1       6.183  33.848  62.079  1.00  0.00     0.014 A 
HETATM   28  C   UNL     1       6.160  34.541  63.294  1.00  0.00     0.001 A 
HETATM   29  C   UNL     1       6.974  34.132  64.347  1.00  0.00     0.000 A 
HETATM   30  C   UNL     1       7.815  33.037  64.183  1.00  0.00     0.001 A 
HETATM   31  C   UNL     1       7.835  32.346  62.967  1.00  0.00     0.014 A 
ENDBRANCH   1  26
TORSDOF 6
ENDMDL
MODEL 7
REMARK VINA RESULT:      -9.1      3.567      4.493
REMARK  6 active torsions:
REMARK  status: ('A' for Active; 'I' for Inactive)
REMARK    1  A    between atoms: C_4  and  C_5 
REMARK    2  A    between atoms: C_14  and  C_15 
REMARK       I    between atoms: C_15  and  N_16 
REMARK    3  A    between atoms: N_16  and  C_17 
REMARK    4  A    between atoms: C_17  and  C_18 
REMARK    5  A    between atoms: C_18  and  N_19 
REMARK       I    between atoms: N_19  and  C_20 
REMARK    6  A    between atoms: C_20  and  C_21 
ROOT
HETATM    1  C   UNL     1       6.785  23.897  53.891  1.00  0.00     0.069 A 
HETATM    2  N   UNL     1       6.896  24.272  52.589  1.00  0.00    -0.230 NA
HETATM    3  C   UNL     1       6.290  25.435  52.297  1.00  0.00     0.139 A 
HETATM    4  C   UNL     1       5.582  26.268  53.152  1.00  0.00     0.027 A 
HETATM    5  C   UNL     1       5.475  25.851  54.488  1.00  0.00     0.018 A 
HETATM    6  C   UNL     1       6.089  24.646  54.846  1.00  0.00     0.033 A 
HETATM    7  N   UNL     1       6.280  26.002  51.056  1.00  0.00    -0.349 N 
HETATM    8  H   UNL     1       6.734  25.589  50.254  1.00  0.00     0.167 HD
HETATM    9  C   UNL     1       5.576  27.180  51.085  1.00  0.00     0.108 A 
HETATM   10  C   UNL     1       5.115  27.386  52.381  1.00  0.00     0.061 A 
ENDROOT
BRANCH  10  11
HETATM   11  C   UNL     1       4.319  28.506  52.883  1.00  0.00     0.254 C 
HETATM   12  N   UNL     1       4.786  29.763  52.563  1.00  0.00    -0.355 N 
HETATM   13  H   UNL     1       5.633  29.867  52.025  1.00  0.00     0.162 HD
HETATM   14  O   UNL     1       3.301  28.342  53.547  1.00  0.00    -0.268 OA
BRANCH  12  15
HETATM   15  C   UNL     1       4.083  30.962  52.983  1.00  0.00     0.142 C 
BRANCH  15  16
HETATM   16  C   UNL     1       4.076  31.137  54.507  1.00  0.00     0.142 C 
BRANCH  16  17
HETATM   17  N   UNL     1       5.344  30.774  55.115  1.00  0.00    -0.355 N 
HETATM   18  C   UNL     1       5.438  29.811  56.098  1.00  0.00     0.258 C 
HETATM   19  O   UNL     1       4.440  29.214  56.499  1.00  0.00    -0.267 OA
HETATM   20  H   UNL     1       6.179  31.274  54.843  1.00  0.00     0.162 HD
BRANCH  18  21
HETATM   21  C   UNL     1       6.772  29.559  56.625  1.00  0.00     0.072 A 
HETATM   22  S   UNL     1       7.995  28.780  55.710  1.00  0.00    -0.097 SA
HETATM   23  C   UNL     1       9.125  28.894  56.989  1.00  0.00     0.050 A 
HETATM   24  C   UNL     1       8.590  29.514  58.096  1.00  0.00     0.009 A 
HETATM   25  C   UNL     1       7.236  29.899  57.884  1.00  0.00     0.025 A 
ENDBRANCH  18  21
ENDBRANCH  16  17
ENDBRANCH  15  16
ENDBRANCH  12  15
ENDBRANCH  10  11
BRANCH   1  26
HETATM   26  C   UNL     1       7.445  22.615  54.233  1.00  0.00    -0.007 A 
HETATM   27  C   UNL     1       7.862  21.702  53.247  1.00  0.00     0.014 A 
HETATM   28  C   UNL     1       8.493  20.500  53.586  1.00  0.00     0.001 A 
HETATM   29  C   UNL     1       8.717  20.182  54.923  1.00  0.00     0.000 A 
HETATM   30  C   UNL     1       8.305  21.061  55.919  1.00  0.00     0.001 A 
HETATM   31  C   UNL     1       7.675  22.262  55.576  1.00  0.00     0.014 A 
ENDBRANCH   1  26
TORSDOF 6
ENDMDL
MODEL 8
REMARK VINA RESULT:      -9.0      3.259     11.690
REMARK  6 active torsions:
REMARK  status: ('A' for Active; 'I' for Inactive)
REMARK    1  A    between atoms: C_4  and  C_5 
REMARK    2  A    between atoms: C_14  and  C_15 
REMARK       I    between atoms: C_15  and  N_16 
REMARK    3  A    between atoms: N_16  and  C_17 
REMARK    4  A    between atoms: C_17  and  C_18 
REMARK    5  A    between atoms: C_18  and  N_19 
REMARK       I    between atoms: N_19  and  C_20 
REMARK    6  A    between atoms: C_20  and  C_21 
ROOT
HETATM    1  C   UNL     1       6.282  32.997  63.874  1.00  0.00     0.069 A 
HETATM    2  N   UNL     1       7.614  32.789  63.709  1.00  0.00    -0.230 NA
HETATM    3  C   UNL     1       7.949  32.283  62.510  1.00  0.00     0.139 A 
HETATM    4  C   UNL     1       7.107  31.954  61.457  1.00  0.00     0.027 A 
HETATM    5  C   UNL     1       5.735  32.171  61.660  1.00  0.00     0.018 A 
HETATM    6  C   UNL     1       5.332  32.698  62.891  1.00  0.00     0.033 A 
HETATM    7  N   UNL     1       9.228  32.001  62.128  1.00  0.00    -0.349 N 
HETATM    8  H   UNL     1      10.030  32.156  62.721  1.00  0.00     0.167 HD
HETATM    9  C   UNL     1       9.234  31.491  60.854  1.00  0.00     0.108 A 
HETATM   10  C   UNL     1       7.923  31.441  60.392  1.00  0.00     0.061 A 
ENDROOT
BRANCH  10  11
HETATM   11  C   UNL     1       7.447  30.969  59.092  1.00  0.00     0.254 C 
HETATM   12  N   UNL     1       7.633  29.627  58.839  1.00  0.00    -0.355 N 
HETATM   13  H   UNL     1       8.083  29.040  59.523  1.00  0.00     0.162 HD
HETATM   14  O   UNL     1       6.915  31.716  58.277  1.00  0.00    -0.268 OA
BRANCH  12  15
HETATM   15  C   UNL     1       7.191  29.023  57.594  1.00  0.00     0.142 C 
BRANCH  15  16
HETATM   16  C   UNL     1       7.300  27.493  57.611  1.00  0.00     0.142 C 
BRANCH  16  17
HETATM   17  N   UNL     1       7.381  26.926  56.276  1.00  0.00    -0.355 N 
HETATM   18  C   UNL     1       7.573  25.577  56.062  1.00  0.00     0.258 C 
HETATM   19  O   UNL     1       7.680  24.794  57.003  1.00  0.00    -0.267 OA
HETATM   20  H   UNL     1       7.342  27.545  55.477  1.00  0.00     0.162 HD
BRANCH  18  21
HETATM   21  C   UNL     1       7.646  25.152  54.670  1.00  0.00     0.072 A 
HETATM   22  S   UNL     1       7.468  26.244  53.360  1.00  0.00    -0.097 SA
HETATM   23  C   UNL     1       7.678  25.002  52.203  1.00  0.00     0.050 A 
HETATM   24  C   UNL     1       7.882  23.775  52.794  1.00  0.00     0.009 A 
HETATM   25  C   UNL     1       7.866  23.863  54.215  1.00  0.00     0.025 A 
ENDBRANCH  18  21
ENDBRANCH  16  17
ENDBRANCH  15  16
ENDBRANCH  12  15
ENDBRANCH  10  11
BRANCH   1  26
HETATM   26  C   UNL     1       5.893  33.554  65.192  1.00  0.00    -0.007 A 
HETATM   27  C   UNL     1       6.840  33.850  66.188  1.00  0.00     0.014 A 
HETATM   28  C   UNL     1       6.457  34.385  67.423  1.00  0.00     0.001 A 
HETATM   29  C   UNL     1       5.113  34.631  67.691  1.00  0.00     0.000 A 
HETATM   30  C   UNL     1       4.153  34.338  66.728  1.00  0.00     0.001 A 
HETATM   31  C   UNL     1       4.541  33.804  65.494  1.00  0.00     0.014 A 
ENDBRANCH   1  26
TORSDOF 6
ENDMDL
MODEL 9
REMARK VINA RESULT:      -9.0      2.950     10.599
REMARK  6 active torsions:
REMARK  status: ('A' for Active; 'I' for Inactive)
REMARK    1  A    between atoms: C_4  and  C_5 
REMARK    2  A    between atoms: C_14  and  C_15 
REMARK       I    between atoms: C_15  and  N_16 
REMARK    3  A    between atoms: N_16  and  C_17 
REMARK    4  A    between atoms: C_17  and  C_18 
REMARK    5  A    between atoms: C_18  and  N_19 
REMARK       I    between atoms: N_19  and  C_20 
REMARK    6  A    between atoms: C_20  and  C_21 
ROOT
HETATM    1  C   UNL     1       6.833  32.235  60.832  1.00  0.00     0.069 A 
HETATM    2  N   UNL     1       7.924  31.467  60.573  1.00  0.00    -0.230 NA
HETATM    3  C   UNL     1       7.882  30.830  59.391  1.00  0.00     0.139 A 
HETATM    4  C   UNL     1       6.875  30.866  58.437  1.00  0.00     0.027 A 
HETATM    5  C   UNL     1       5.756  31.660  58.735  1.00  0.00     0.018 A 
HETATM    6  C   UNL     1       5.749  32.346  59.954  1.00  0.00     0.033 A 
HETATM    7  N   UNL     1       8.870  30.012  58.926  1.00  0.00    -0.349 N 
HETATM    8  H   UNL     1       9.720  29.824  59.439  1.00  0.00     0.167 HD
HETATM    9  C   UNL     1       8.525  29.511  57.696  1.00  0.00     0.108 A 
HETATM   10  C   UNL     1       7.277  30.018  57.349  1.00  0.00     0.061 A 
ENDROOT
BRANCH  10  11
HETATM   11  C   UNL     1       6.510  29.759  56.130  1.00  0.00     0.254 C 
HETATM   12  N   UNL     1       6.939  28.694  55.369  1.00  0.00    -0.355 N 
HETATM   13  H   UNL     1       7.741  28.155  55.658  1.00  0.00     0.162 HD
HETATM   14  O   UNL     1       5.547  30.446  55.802  1.00  0.00    -0.268 OA
BRANCH  12  15
HETATM   15  C   UNL     1       6.258  28.315  54.143  1.00  0.00     0.142 C 
BRANCH  15  16
HETATM   16  C   UNL     1       5.269  27.161  54.351  1.00  0.00     0.142 C 
BRANCH  16  17
HETATM   17  N   UNL     1       5.846  25.869  54.022  1.00  0.00    -0.355 N 
HETATM   18  C   UNL     1       6.607  25.154  54.923  1.00  0.00     0.258 C 
HETATM   19  O   UNL     1       6.827  25.587  56.052  1.00  0.00    -0.267 OA
HETATM   20  H   UNL     1       5.724  25.501  53.088  1.00  0.00     0.162 HD
BRANCH  18  21
HETATM   21  C   UNL     1       7.131  23.879  54.452  1.00  0.00     0.072 A 
HETATM   22  S   UNL     1       7.582  22.615  55.518  1.00  0.00    -0.097 SA
HETATM   23  C   UNL     1       8.043  21.593  54.227  1.00  0.00     0.050 A 
HETATM   24  C   UNL     1       7.859  22.194  53.002  1.00  0.00     0.009 A 
HETATM   25  C   UNL     1       7.332  23.510  53.133  1.00  0.00     0.025 A 
ENDBRANCH  18  21
ENDBRANCH  16  17
ENDBRANCH  15  16
ENDBRANCH  12  15
ENDBRANCH  10  11
BRANCH   1  26
HETATM   26  C   UNL     1       6.860  32.944  62.132  1.00  0.00    -0.007 A 
HETATM   27  C   UNL     1       7.658  32.509  63.206  1.00  0.00     0.014 A 
HETATM   28  C   UNL     1       7.679  33.196  64.424  1.00  0.00     0.001 A 
HETATM   29  C   UNL     1       6.897  34.335  64.598  1.00  0.00     0.000 A 
HETATM   30  C   UNL     1       6.090  34.782  63.557  1.00  0.00     0.001 A 
HETATM   31  C   UNL     1       6.072  34.092  62.340  1.00  0.00     0.014 A 
ENDBRANCH   1  26
TORSDOF 6
ENDMDL
MODEL 10
REMARK VINA RESULT:      -8.8      4.465     11.032
REMARK  6 active torsions:
REMARK  status: ('A' for Active; 'I' for Inactive)
REMARK    1  A    between atoms: C_4  and  C_5 
REMARK    2  A    between atoms: C_14  and  C_15 
REMARK       I    between atoms: C_15  and  N_16 
REMARK    3  A    between atoms: N_16  and  C_17 
REMARK    4  A    between atoms: C_17  and  C_18 
REMARK    5  A    between atoms: C_18  and  N_19 
REMARK       I    between atoms: N_19  and  C_20 
REMARK    6  A    between atoms: C_20  and  C_21 
ROOT
HETATM    1  C   UNL     1       6.487  33.633  63.912  1.00  0.00     0.069 A 
HETATM    2  N   UNL     1       5.769  33.708  62.760  1.00  0.00    -0.230 NA
HETATM    3  C   UNL     1       6.327  33.068  61.720  1.00  0.00     0.139 A 
HETATM    4  C   UNL     1       7.523  32.364  61.692  1.00  0.00     0.027 A 
HETATM    5  C   UNL     1       8.247  32.311  62.893  1.00  0.00     0.018 A 
HETATM    6  C   UNL     1       7.710  32.962  64.009  1.00  0.00     0.033 A 
HETATM    7  N   UNL     1       5.777  33.009  60.473  1.00  0.00    -0.349 N 
HETATM    8  H   UNL     1       4.897  33.444  60.234  1.00  0.00     0.167 HD
HETATM    9  C   UNL     1       6.592  32.289  59.635  1.00  0.00     0.108 A 
HETATM   10  C   UNL     1       7.702  31.866  60.357  1.00  0.00     0.061 A 
ENDROOT
BRANCH  10  11
HETATM   11  C   UNL     1       8.835  31.073  59.879  1.00  0.00     0.254 C 
HETATM   12  N   UNL     1       9.264  31.354  58.600  1.00  0.00    -0.355 N 
HETATM   13  H   UNL     1       8.796  32.059  58.052  1.00  0.00     0.162 HD
HETATM   14  O   UNL     1       9.371  30.211  60.569  1.00  0.00    -0.268 OA
BRANCH  12  15
HETATM   15  C   UNL     1      10.389  30.652  58.007  1.00  0.00     0.142 C 
BRANCH  15  16
HETATM   16  C   UNL     1       9.953  29.462  57.143  1.00  0.00     0.142 C 
BRANCH  16  17
HETATM   17  N   UNL     1       8.556  29.541  56.753  1.00  0.00    -0.355 N 
HETATM   18  C   UNL     1       7.587  28.747  57.331  1.00  0.00     0.258 C 
HETATM   19  O   UNL     1       7.872  27.936  58.210  1.00  0.00    -0.267 OA
HETATM   20  H   UNL     1       8.291  30.163  56.002  1.00  0.00     0.162 HD
BRANCH  18  21
HETATM   21  C   UNL     1       6.230  28.924  56.832  1.00  0.00     0.072 A 
HETATM   22  S   UNL     1       5.590  30.462  56.424  1.00  0.00    -0.097 SA
HETATM   23  C   UNL     1       4.082  29.793  55.972  1.00  0.00     0.050 A 
HETATM   24  C   UNL     1       4.058  28.425  56.124  1.00  0.00     0.009 A 
HETATM   25  C   UNL     1       5.296  27.926  56.617  1.00  0.00     0.025 A 
ENDBRANCH  18  21
ENDBRANCH  16  17
ENDBRANCH  15  16
ENDBRANCH  12  15
ENDBRANCH  10  11
BRANCH   1  26
HETATM   26  C   UNL     1       5.887  34.336  65.072  1.00  0.00    -0.007 A 
HETATM   27  C   UNL     1       6.315  34.100  66.391  1.00  0.00     0.014 A 
HETATM   28  C   UNL     1       5.745  34.779  67.474  1.00  0.00     0.001 A 
HETATM   29  C   UNL     1       4.730  35.707  67.261  1.00  0.00     0.000 A 
HETATM   30  C   UNL     1       4.280  35.953  65.967  1.00  0.00     0.001 A 
HETATM   31  C   UNL     1       4.853  35.272  64.887  1.00  0.00     0.014 A 
ENDBRANCH   1  26
TORSDOF 6
ENDMDL
