MODEL 1
REMARK VINA RESULT:      -9.1      0.000      0.000
REMARK  4 active torsions:
REMARK  status: ('A' for Active; 'I' for Inactive)
REMARK    1  A    between atoms: C_9  and  C_10 
REMARK       I    between atoms: C_10  and  N_11 
REMARK    2  A    between atoms: N_11  and  C_12 
REMARK    3  A    between atoms: C_12  and  C_13 
REMARK    4  A    between atoms: C_14  and  O_15 
ROOT
HETATM    1  C   UNL     1       7.254  27.785  56.497  1.00  0.00     0.273 C 
HETATM    2  N   UNL     1       7.063  28.617  57.578  1.00  0.00    -0.347 N 
HETATM    3  O   UNL     1       7.122  28.137  55.330  1.00  0.00    -0.266 OA
HETATM    4  H   UNL     1       7.378  28.227  58.463  1.00  0.00     0.163 HD
ENDROOT
BRANCH   1   5
HETATM    5  C   UNL     1       7.636  26.418  56.891  1.00  0.00     0.157 A 
HETATM    6  C   UNL     1       7.792  25.284  56.038  1.00  0.00     0.029 A 
HETATM    7  C   UNL     1       7.661  25.024  54.659  1.00  0.00     0.023 A 
HETATM    8  C   UNL     1       8.149  24.242  56.884  1.00  0.00     0.063 A 
HETATM    9  C   UNL     1       7.890  23.725  54.174  1.00  0.00    -0.061 A 
HETATM   10  C   UNL     1       7.741  23.423  52.711  1.00  0.00     0.048 C 
HETATM   11  C   UNL     1       8.249  22.704  55.063  1.00  0.00     0.009 A 
HETATM   12  C   UNL     1       8.388  22.941  56.435  1.00  0.00     0.032 A 
HETATM   13  N   UNL     1       8.191  24.792  58.135  1.00  0.00    -0.277 N 
HETATM   14  H   UNL     1       8.422  24.321  59.003  1.00  0.00     0.189 HD
HETATM   15  N   UNL     1       7.878  26.098  58.182  1.00  0.00    -0.168 NA
ENDBRANCH   1   5
BRANCH   2  16
HETATM   16  C   UNL     1       6.822  30.047  57.467  1.00  0.00     0.116 C 
HETATM   17  C   UNL     1       5.344  30.401  57.657  1.00  0.00     0.037 C 
BRANCH  16  18
HETATM   18  C   UNL     1       7.658  30.818  58.485  1.00  0.00    -0.002 A 
HETATM   19  C   UNL     1       9.062  30.858  58.395  1.00  0.00     0.076 A 
HETATM   20  C   UNL     1       9.793  31.594  59.335  1.00  0.00     0.038 A 
HETATM   21  C   UNL     1       9.143  32.303  60.349  1.00  0.00     0.009 A 
HETATM   22  C   UNL     1       7.751  32.297  60.438  1.00  0.00    -0.061 A 
HETATM   23  C   UNL     1       7.039  33.058  61.516  1.00  0.00     0.048 C 
HETATM   24  C   UNL     1       7.019  31.557  59.504  1.00  0.00     0.018 A 
BRANCH  19  25
HETATM   25  O   UNL     1       9.623  30.157  57.359  1.00  0.00    -0.355 OA
HETATM   26  C   UNL     1      11.041  30.092  57.299  1.00  0.00     0.210 C 
ENDBRANCH  19  25
ENDBRANCH  16  18
ENDBRANCH   2  16
TORSDOF 4
ENDMDL
MODEL 2
REMARK VINA RESULT:      -9.0      1.488      2.238
REMARK  4 active torsions:
REMARK  status: ('A' for Active; 'I' for Inactive)
REMARK    1  A    between atoms: C_9  and  C_10 
REMARK       I    between atoms: C_10  and  N_11 
REMARK    2  A    between atoms: N_11  and  C_12 
REMARK    3  A    between atoms: C_12  and  C_13 
REMARK    4  A    between atoms: C_14  and  O_15 
ROOT
HETATM    1  C   UNL     1       7.642  25.959  55.352  1.00  0.00     0.273 C 
HETATM    2  N   UNL     1       7.358  27.035  56.164  1.00  0.00    -0.347 N 
HETATM    3  O   UNL     1       7.655  26.010  54.127  1.00  0.00    -0.266 OA
HETATM    4  H   UNL     1       7.559  26.877  57.148  1.00  0.00     0.163 HD
ENDROOT
BRANCH   1   5
HETATM    5  C   UNL     1       7.932  24.732  56.113  1.00  0.00     0.157 A 
HETATM    6  C   UNL     1       8.013  23.400  55.607  1.00  0.00     0.029 A 
HETATM    7  C   UNL     1       7.865  22.779  54.351  1.00  0.00     0.023 A 
HETATM    8  C   UNL     1       8.300  22.610  56.713  1.00  0.00     0.063 A 
HETATM    9  C   UNL     1       8.008  21.385  54.245  1.00  0.00    -0.061 A 
HETATM   10  C   UNL     1       7.839  20.702  52.918  1.00  0.00     0.048 C 
HETATM   11  C   UNL     1       8.298  20.627  55.387  1.00  0.00     0.009 A 
HETATM   12  C   UNL     1       8.452  21.223  56.643  1.00  0.00     0.032 A 
HETATM   13  N   UNL     1       8.377  23.479  57.766  1.00  0.00    -0.277 N 
HETATM   14  H   UNL     1       8.576  23.252  58.734  1.00  0.00     0.189 HD
HETATM   15  N   UNL     1       8.153  24.765  57.447  1.00  0.00    -0.168 NA
ENDBRANCH   1   5
BRANCH   2  16
HETATM   16  C   UNL     1       7.179  28.393  55.676  1.00  0.00     0.116 C 
HETATM   17  C   UNL     1       5.813  28.593  55.010  1.00  0.00     0.037 C 
BRANCH  16  18
HETATM   18  C   UNL     1       7.338  29.402  56.809  1.00  0.00    -0.002 A 
HETATM   19  C   UNL     1       8.578  29.593  57.448  1.00  0.00     0.076 A 
HETATM   20  C   UNL     1       8.689  30.543  58.469  1.00  0.00     0.038 A 
HETATM   21  C   UNL     1       7.588  31.316  58.849  1.00  0.00     0.009 A 
HETATM   22  C   UNL     1       6.359  31.160  58.210  1.00  0.00    -0.061 A 
HETATM   23  C   UNL     1       5.170  31.986  58.601  1.00  0.00     0.048 C 
HETATM   24  C   UNL     1       6.243  30.207  57.193  1.00  0.00     0.018 A 
BRANCH  19  25
HETATM   25  O   UNL     1       9.614  28.815  57.002  1.00  0.00    -0.355 OA
HETATM   26  C   UNL     1      10.853  29.458  56.733  1.00  0.00     0.210 C 
ENDBRANCH  19  25
ENDBRANCH  16  18
ENDBRANCH   2  16
TORSDOF 4
ENDMDL
MODEL 3
REMARK VINA RESULT:      -8.9      2.370      7.671
REMARK  4 active torsions:
REMARK  status: ('A' for Active; 'I' for Inactive)
REMARK    1  A    between atoms: C_9  and  C_10 
REMARK       I    between atoms: C_10  and  N_11 
REMARK    2  A    between atoms: N_11  and  C_12 
REMARK    3  A    between atoms: C_12  and  C_13 
REMARK    4  A    between atoms: C_14  and  O_15 
ROOT
HETATM    1  C   UNL     1       6.145  27.266  54.668  1.00  0.00     0.273 C 
HETATM    2  N   UNL     1       6.963  26.159  54.698  1.00  0.00    -0.347 N 
HETATM    3  O   UNL     1       5.452  27.581  53.706  1.00  0.00    -0.266 OA
HETATM    4  H   UNL     1       7.333  25.941  55.619  1.00  0.00     0.163 HD
ENDROOT
BRANCH   1   5
HETATM    5  C   UNL     1       6.188  28.040  55.921  1.00  0.00     0.157 A 
HETATM    6  C   UNL     1       7.330  28.647  56.523  1.00  0.00     0.029 A 
HETATM    7  C   UNL     1       8.704  28.748  56.225  1.00  0.00     0.023 A 
HETATM    8  C   UNL     1       6.852  29.246  57.683  1.00  0.00     0.063 A 
HETATM    9  C   UNL     1       9.555  29.442  57.102  1.00  0.00    -0.061 A 
HETATM   10  C   UNL     1      11.024  29.548  56.811  1.00  0.00     0.048 C 
HETATM   11  C   UNL     1       9.031  30.031  58.260  1.00  0.00     0.009 A 
HETATM   12  C   UNL     1       7.669  29.947  58.573  1.00  0.00     0.032 A 
HETATM   13  N   UNL     1       5.512  28.978  57.700  1.00  0.00    -0.277 N 
HETATM   14  H   UNL     1       4.840  29.265  58.402  1.00  0.00     0.189 HD
HETATM   15  N   UNL     1       5.075  28.246  56.660  1.00  0.00    -0.168 NA
ENDBRANCH   1   5
BRANCH   2  16
HETATM   16  C   UNL     1       6.999  25.150  53.651  1.00  0.00     0.116 C 
HETATM   17  C   UNL     1       7.894  25.564  52.478  1.00  0.00     0.037 C 
BRANCH  16  18
HETATM   18  C   UNL     1       7.482  23.812  54.203  1.00  0.00    -0.002 A 
HETATM   19  C   UNL     1       7.674  23.619  55.585  1.00  0.00     0.076 A 
HETATM   20  C   UNL     1       8.098  22.371  56.055  1.00  0.00     0.038 A 
HETATM   21  C   UNL     1       8.315  21.311  55.170  1.00  0.00     0.009 A 
HETATM   22  C   UNL     1       8.105  21.475  53.802  1.00  0.00    -0.061 A 
HETATM   23  C   UNL     1       8.327  20.346  52.841  1.00  0.00     0.048 C 
HETATM   24  C   UNL     1       7.687  22.723  53.329  1.00  0.00     0.018 A 
BRANCH  19  25
HETATM   25  O   UNL     1       7.416  24.700  56.388  1.00  0.00    -0.355 OA
HETATM   26  C   UNL     1       8.326  24.965  57.446  1.00  0.00     0.210 C 
ENDBRANCH  19  25
ENDBRANCH  16  18
ENDBRANCH   2  16
TORSDOF 4
ENDMDL
MODEL 4
REMARK VINA RESULT:      -8.5      2.321      8.179
REMARK  4 active torsions:
REMARK  status: ('A' for Active; 'I' for Inactive)
REMARK    1  A    between atoms: C_9  and  C_10 
REMARK       I    between atoms: C_10  and  N_11 
REMARK    2  A    between atoms: N_11  and  C_12 
REMARK    3  A    between atoms: C_12  and  C_13 
REMARK    4  A    between atoms: C_14  and  O_15 
ROOT
HETATM    1  C   UNL     1       7.765  30.879  59.070  1.00  0.00     0.273 C 
HETATM    2  N   UNL     1       8.267  29.710  58.544  1.00  0.00    -0.347 N 
HETATM    3  O   UNL     1       7.168  31.725  58.412  1.00  0.00    -0.266 OA
HETATM    4  H   UNL     1       8.577  29.039  59.243  1.00  0.00     0.163 HD
ENDROOT
BRANCH   1   5
HETATM    5  C   UNL     1       8.020  31.010  60.515  1.00  0.00     0.157 A 
HETATM    6  C   UNL     1       7.522  32.018  61.393  1.00  0.00     0.029 A 
HETATM    7  C   UNL     1       6.698  33.155  61.271  1.00  0.00     0.023 A 
HETATM    8  C   UNL     1       8.051  31.706  62.639  1.00  0.00     0.063 A 
HETATM    9  C   UNL     1       6.434  33.944  62.403  1.00  0.00    -0.061 A 
HETATM   10  C   UNL     1       5.571  35.169  62.293  1.00  0.00     0.048 C 
HETATM   11  C   UNL     1       6.988  33.593  63.641  1.00  0.00     0.009 A 
HETATM   12  C   UNL     1       7.806  32.467  63.785  1.00  0.00     0.032 A 
HETATM   13  N   UNL     1       8.796  30.577  62.441  1.00  0.00    -0.277 N 
HETATM   14  H   UNL     1       9.325  30.064  63.137  1.00  0.00     0.189 HD
HETATM   15  N   UNL     1       8.810  30.132  61.173  1.00  0.00    -0.168 NA
ENDBRANCH   1   5
BRANCH   2  16
HETATM   16  C   UNL     1       8.028  29.267  57.179  1.00  0.00     0.116 C 
HETATM   17  C   UNL     1       9.300  29.313  56.325  1.00  0.00     0.037 C 
BRANCH  16  18
HETATM   18  C   UNL     1       7.462  27.850  57.160  1.00  0.00    -0.002 A 
HETATM   19  C   UNL     1       6.073  27.619  57.152  1.00  0.00     0.076 A 
HETATM   20  C   UNL     1       5.592  26.306  57.112  1.00  0.00     0.038 A 
HETATM   21  C   UNL     1       6.475  25.223  57.063  1.00  0.00     0.009 A 
HETATM   22  C   UNL     1       7.853  25.432  57.042  1.00  0.00    -0.061 A 
HETATM   23  C   UNL     1       8.813  24.282  56.982  1.00  0.00     0.048 C 
HETATM   24  C   UNL     1       8.336  26.744  57.088  1.00  0.00     0.018 A 
BRANCH  19  25
HETATM   25  O   UNL     1       5.275  28.733  57.178  1.00  0.00    -0.355 OA
HETATM   26  C   UNL     1       4.405  28.946  56.074  1.00  0.00     0.210 C 
ENDBRANCH  19  25
ENDBRANCH  16  18
ENDBRANCH   2  16
TORSDOF 4
ENDMDL
MODEL 5
REMARK VINA RESULT:      -8.5      1.840      2.969
REMARK  4 active torsions:
REMARK  status: ('A' for Active; 'I' for Inactive)
REMARK    1  A    between atoms: C_9  and  C_10 
REMARK       I    between atoms: C_10  and  N_11 
REMARK    2  A    between atoms: N_11  and  C_12 
REMARK    3  A    between atoms: C_12  and  C_13 
REMARK    4  A    between atoms: C_14  and  O_15 
ROOT
HETATM    1  C   UNL     1       7.610  27.281  57.071  1.00  0.00     0.273 C 
HETATM    2  N   UNL     1       8.097  28.551  56.856  1.00  0.00    -0.347 N 
HETATM    3  O   UNL     1       8.001  26.541  57.968  1.00  0.00    -0.266 OA
HETATM    4  H   UNL     1       7.554  29.096  56.191  1.00  0.00     0.163 HD
ENDROOT
BRANCH   1   5
HETATM    5  C   UNL     1       6.564  26.899  56.107  1.00  0.00     0.157 A 
HETATM    6  C   UNL     1       6.633  25.873  55.118  1.00  0.00     0.029 A 
HETATM    7  C   UNL     1       7.591  24.928  54.698  1.00  0.00     0.023 A 
HETATM    8  C   UNL     1       5.407  25.916  54.466  1.00  0.00     0.063 A 
HETATM    9  C   UNL     1       7.289  24.058  53.637  1.00  0.00    -0.061 A 
HETATM   10  C   UNL     1       8.300  23.055  53.164  1.00  0.00     0.048 C 
HETATM   11  C   UNL     1       6.040  24.137  53.007  1.00  0.00     0.009 A 
HETATM   12  C   UNL     1       5.073  25.065  53.410  1.00  0.00     0.032 A 
HETATM   13  N   UNL     1       4.707  26.917  55.081  1.00  0.00    -0.277 N 
HETATM   14  H   UNL     1       3.767  27.227  54.866  1.00  0.00     0.189 HD
HETATM   15  N   UNL     1       5.374  27.540  56.068  1.00  0.00    -0.168 NA
ENDBRANCH   1   5
BRANCH   2  16
HETATM   16  C   UNL     1       9.027  29.224  57.747  1.00  0.00     0.116 C 
HETATM   17  C   UNL     1      10.134  29.958  56.981  1.00  0.00     0.037 C 
BRANCH  16  18
HETATM   18  C   UNL     1       8.296  30.217  58.646  1.00  0.00    -0.002 A 
HETATM   19  C   UNL     1       7.129  30.872  58.211  1.00  0.00     0.076 A 
HETATM   20  C   UNL     1       6.474  31.760  59.074  1.00  0.00     0.038 A 
HETATM   21  C   UNL     1       6.957  31.988  60.366  1.00  0.00     0.009 A 
HETATM   22  C   UNL     1       8.097  31.327  60.823  1.00  0.00    -0.061 A 
HETATM   23  C   UNL     1       8.623  31.556  62.208  1.00  0.00     0.048 C 
HETATM   24  C   UNL     1       8.756  30.445  59.961  1.00  0.00     0.018 A 
BRANCH  19  25
HETATM   25  O   UNL     1       6.706  30.577  56.942  1.00  0.00    -0.355 OA
HETATM   26  C   UNL     1       5.471  31.133  56.513  1.00  0.00     0.210 C 
ENDBRANCH  19  25
ENDBRANCH  16  18
ENDBRANCH   2  16
TORSDOF 4
ENDMDL
MODEL 6
REMARK VINA RESULT:      -8.5      1.932      2.999
REMARK  4 active torsions:
REMARK  status: ('A' for Active; 'I' for Inactive)
REMARK    1  A    between atoms: C_9  and  C_10 
REMARK       I    between atoms: C_10  and  N_11 
REMARK    2  A    between atoms: N_11  and  C_12 
REMARK    3  A    between atoms: C_12  and  C_13 
REMARK    4  A    between atoms: C_14  and  O_15 
ROOT
HETATM    1  C   UNL     1       7.482  27.251  57.128  1.00  0.00     0.273 C 
HETATM    2  N   UNL     1       7.850  28.574  57.033  1.00  0.00    -0.347 N 
HETATM    3  O   UNL     1       7.878  26.491  58.005  1.00  0.00    -0.266 OA
HETATM    4  H   UNL     1       7.306  29.110  56.361  1.00  0.00     0.163 HD
ENDROOT
BRANCH   1   5
HETATM    5  C   UNL     1       6.555  26.839  56.059  1.00  0.00     0.157 A 
HETATM    6  C   UNL     1       6.710  25.747  55.154  1.00  0.00     0.029 A 
HETATM    7  C   UNL     1       7.675  24.745  54.925  1.00  0.00     0.023 A 
HETATM    8  C   UNL     1       5.582  25.785  54.344  1.00  0.00     0.063 A 
HETATM    9  C   UNL     1       7.478  23.816  53.890  1.00  0.00    -0.061 A 
HETATM   10  C   UNL     1       8.501  22.751  53.618  1.00  0.00     0.048 C 
HETATM   11  C   UNL     1       6.326  23.892  53.097  1.00  0.00     0.009 A 
HETATM   12  C   UNL     1       5.353  24.876  53.309  1.00  0.00     0.032 A 
HETATM   13  N   UNL     1       4.850  26.847  54.797  1.00  0.00    -0.277 N 
HETATM   14  H   UNL     1       3.959  27.172  54.441  1.00  0.00     0.189 HD
HETATM   15  N   UNL     1       5.407  27.513  55.823  1.00  0.00    -0.168 NA
ENDBRANCH   1   5
BRANCH   2  16
HETATM   16  C   UNL     1       8.638  29.270  58.038  1.00  0.00     0.116 C 
HETATM   17  C   UNL     1       9.914  29.884  57.450  1.00  0.00     0.037 C 
BRANCH  16  18
HETATM   18  C   UNL     1       7.816  30.367  58.708  1.00  0.00    -0.002 A 
HETATM   19  C   UNL     1       8.092  30.784  60.024  1.00  0.00     0.076 A 
HETATM   20  C   UNL     1       7.329  31.808  60.597  1.00  0.00     0.038 A 
HETATM   21  C   UNL     1       6.309  32.431  59.872  1.00  0.00     0.009 A 
HETATM   22  C   UNL     1       6.039  32.049  58.559  1.00  0.00    -0.061 A 
HETATM   23  C   UNL     1       4.953  32.712  57.765  1.00  0.00     0.048 C 
HETATM   24  C   UNL     1       6.796  31.022  57.986  1.00  0.00     0.018 A 
BRANCH  19  25
HETATM   25  O   UNL     1       9.123  30.142  60.659  1.00  0.00    -0.355 OA
HETATM   26  C   UNL     1       9.259  30.339  62.060  1.00  0.00     0.210 C 
ENDBRANCH  19  25
ENDBRANCH  16  18
ENDBRANCH   2  16
TORSDOF 4
ENDMDL
MODEL 7
REMARK VINA RESULT:      -8.4      2.081      8.117
REMARK  4 active torsions:
REMARK  status: ('A' for Active; 'I' for Inactive)
REMARK    1  A    between atoms: C_9  and  C_10 
REMARK       I    between atoms: C_10  and  N_11 
REMARK    2  A    between atoms: N_11  and  C_12 
REMARK    3  A    between atoms: C_12  and  C_13 
REMARK    4  A    between atoms: C_14  and  O_15 
ROOT
HETATM    1  C   UNL     1       7.309  27.149  56.799  1.00  0.00     0.273 C 
HETATM    2  N   UNL     1       7.242  25.838  56.383  1.00  0.00    -0.347 N 
HETATM    3  O   UNL     1       8.335  27.688  57.203  1.00  0.00    -0.266 OA
HETATM    4  H   UNL     1       6.372  25.594  55.917  1.00  0.00     0.163 HD
ENDROOT
BRANCH   1   5
HETATM    5  C   UNL     1       6.014  27.843  56.706  1.00  0.00     0.157 A 
HETATM    6  C   UNL     1       5.683  29.129  57.229  1.00  0.00     0.029 A 
HETATM    7  C   UNL     1       6.353  30.135  57.955  1.00  0.00     0.023 A 
HETATM    8  C   UNL     1       4.351  29.326  56.889  1.00  0.00     0.063 A 
HETATM    9  C   UNL     1       5.664  31.304  58.319  1.00  0.00    -0.061 A 
HETATM   10  C   UNL     1       6.354  32.380  59.106  1.00  0.00     0.048 C 
HETATM   11  C   UNL     1       4.320  31.461  57.954  1.00  0.00     0.009 A 
HETATM   12  C   UNL     1       3.637  30.477  57.230  1.00  0.00     0.032 A 
HETATM   13  N   UNL     1       3.983  28.200  56.207  1.00  0.00    -0.277 N 
HETATM   14  H   UNL     1       3.075  27.998  55.804  1.00  0.00     0.189 HD
HETATM   15  N   UNL     1       4.954  27.278  56.085  1.00  0.00    -0.168 NA
ENDBRANCH   1   5
BRANCH   2  16
HETATM   16  C   UNL     1       8.402  24.973  56.237  1.00  0.00     0.116 C 
HETATM   17  C   UNL     1       8.722  24.211  57.528  1.00  0.00     0.037 C 
BRANCH  16  18
HETATM   18  C   UNL     1       8.196  23.975  55.102  1.00  0.00    -0.002 A 
HETATM   19  C   UNL     1       7.880  24.406  53.800  1.00  0.00     0.076 A 
HETATM   20  C   UNL     1       7.720  23.461  52.780  1.00  0.00     0.038 A 
HETATM   21  C   UNL     1       7.886  22.097  53.038  1.00  0.00     0.009 A 
HETATM   22  C   UNL     1       8.225  21.653  54.315  1.00  0.00    -0.061 A 
HETATM   23  C   UNL     1       8.414  20.194  54.606  1.00  0.00     0.048 C 
HETATM   24  C   UNL     1       8.380  22.595  55.337  1.00  0.00     0.018 A 
BRANCH  19  25
HETATM   25  O   UNL     1       7.758  25.760  53.623  1.00  0.00    -0.355 OA
HETATM   26  C   UNL     1       6.729  26.221  52.759  1.00  0.00     0.210 C 
ENDBRANCH  19  25
ENDBRANCH  16  18
ENDBRANCH   2  16
TORSDOF 4
ENDMDL
MODEL 8
REMARK VINA RESULT:      -8.3      1.817      7.909
REMARK  4 active torsions:
REMARK  status: ('A' for Active; 'I' for Inactive)
REMARK    1  A    between atoms: C_9  and  C_10 
REMARK       I    between atoms: C_10  and  N_11 
REMARK    2  A    between atoms: N_11  and  C_12 
REMARK    3  A    between atoms: C_12  and  C_13 
REMARK    4  A    between atoms: C_14  and  O_15 
ROOT
HETATM    1  C   UNL     1       7.381  27.745  57.021  1.00  0.00     0.273 C 
HETATM    2  N   UNL     1       7.756  26.558  56.432  1.00  0.00    -0.347 N 
HETATM    3  O   UNL     1       6.275  27.947  57.513  1.00  0.00    -0.266 OA
HETATM    4  H   UNL     1       8.750  26.490  56.231  1.00  0.00     0.163 HD
ENDROOT
BRANCH   1   5
HETATM    5  C   UNL     1       8.453  28.755  57.000  1.00  0.00     0.157 A 
HETATM    6  C   UNL     1       8.758  29.713  58.013  1.00  0.00     0.029 A 
HETATM    7  C   UNL     1       8.239  30.056  59.277  1.00  0.00     0.023 A 
HETATM    8  C   UNL     1       9.838  30.432  57.517  1.00  0.00     0.063 A 
HETATM    9  C   UNL     1       8.818  31.110  60.003  1.00  0.00    -0.061 A 
HETATM   10  C   UNL     1       8.271  31.502  61.345  1.00  0.00     0.048 C 
HETATM   11  C   UNL     1       9.907  31.809  59.465  1.00  0.00     0.009 A 
HETATM   12  C   UNL     1      10.441  31.483  58.213  1.00  0.00     0.032 A 
HETATM   13  N   UNL     1      10.107  29.881  56.295  1.00  0.00    -0.277 N 
HETATM   14  H   UNL     1      10.837  30.155  55.648  1.00  0.00     0.189 HD
HETATM   15  N   UNL     1       9.288  28.875  55.943  1.00  0.00    -0.168 NA
ENDBRANCH   1   5
BRANCH   2  16
HETATM   16  C   UNL     1       6.941  25.353  56.446  1.00  0.00     0.116 C 
HETATM   17  C   UNL     1       5.442  25.667  56.387  1.00  0.00     0.037 C 
BRANCH  16  18
HETATM   18  C   UNL     1       7.309  24.436  55.284  1.00  0.00    -0.002 A 
HETATM   19  C   UNL     1       7.567  24.952  54.000  1.00  0.00     0.076 A 
HETATM   20  C   UNL     1       7.922  24.080  52.965  1.00  0.00     0.038 A 
HETATM   21  C   UNL     1       8.040  22.707  53.196  1.00  0.00     0.009 A 
HETATM   22  C   UNL     1       7.814  22.180  54.467  1.00  0.00    -0.061 A 
HETATM   23  C   UNL     1       7.943  20.710  54.733  1.00  0.00     0.048 C 
HETATM   24  C   UNL     1       7.453  23.049  55.502  1.00  0.00     0.018 A 
BRANCH  19  25
HETATM   25  O   UNL     1       7.454  26.311  53.860  1.00  0.00    -0.355 OA
HETATM   26  C   UNL     1       6.486  26.800  52.943  1.00  0.00     0.210 C 
ENDBRANCH  19  25
ENDBRANCH  16  18
ENDBRANCH   2  16
TORSDOF 4
ENDMDL
MODEL 9
REMARK VINA RESULT:      -8.2      1.945      7.937
REMARK  4 active torsions:
REMARK  status: ('A' for Active; 'I' for Inactive)
REMARK    1  A    between atoms: C_9  and  C_10 
REMARK       I    between atoms: C_10  and  N_11 
REMARK    2  A    between atoms: N_11  and  C_12 
REMARK    3  A    between atoms: C_12  and  C_13 
REMARK    4  A    between atoms: C_14  and  O_15 
ROOT
HETATM    1  C   UNL     1       7.764  27.588  57.297  1.00  0.00     0.273 C 
HETATM    2  N   UNL     1       8.349  26.369  57.035  1.00  0.00    -0.347 N 
HETATM    3  O   UNL     1       6.552  27.763  57.377  1.00  0.00    -0.266 OA
HETATM    4  H   UNL     1       9.356  26.354  57.175  1.00  0.00     0.163 HD
ENDROOT
BRANCH   1   5
HETATM    5  C   UNL     1       8.750  28.668  57.475  1.00  0.00     0.157 A 
HETATM    6  C   UNL     1       8.645  29.801  58.336  1.00  0.00     0.029 A 
HETATM    7  C   UNL     1       7.693  30.301  59.247  1.00  0.00     0.023 A 
HETATM    8  C   UNL     1       9.819  30.517  58.135  1.00  0.00     0.063 A 
HETATM    9  C   UNL     1       7.948  31.505  59.924  1.00  0.00    -0.061 A 
HETATM   10  C   UNL     1       6.940  32.064  60.887  1.00  0.00     0.048 C 
HETATM   11  C   UNL     1       9.144  32.196  59.691  1.00  0.00     0.009 A 
HETATM   12  C   UNL     1      10.105  31.715  58.794  1.00  0.00     0.032 A 
HETATM   13  N   UNL     1      10.526  29.798  57.212  1.00  0.00    -0.277 N 
HETATM   14  H   UNL     1      11.437  30.023  56.829  1.00  0.00     0.189 HD
HETATM   15  N   UNL     1       9.911  28.682  56.782  1.00  0.00    -0.168 NA
ENDBRANCH   1   5
BRANCH   2  16
HETATM   16  C   UNL     1       7.615  25.116  56.962  1.00  0.00     0.116 C 
HETATM   17  C   UNL     1       6.112  25.312  57.189  1.00  0.00     0.037 C 
BRANCH  16  18
HETATM   18  C   UNL     1       7.834  24.437  55.614  1.00  0.00    -0.002 A 
HETATM   19  C   UNL     1       8.360  23.133  55.530  1.00  0.00     0.076 A 
HETATM   20  C   UNL     1       8.527  22.536  54.276  1.00  0.00     0.038 A 
HETATM   21  C   UNL     1       8.162  23.212  53.108  1.00  0.00     0.009 A 
HETATM   22  C   UNL     1       7.615  24.493  53.172  1.00  0.00    -0.061 A 
HETATM   23  C   UNL     1       7.211  25.228  51.929  1.00  0.00     0.048 C 
HETATM   24  C   UNL     1       7.453  25.095  54.424  1.00  0.00     0.018 A 
BRANCH  19  25
HETATM   25  O   UNL     1       8.670  22.529  56.720  1.00  0.00    -0.355 OA
HETATM   26  C   UNL     1       8.289  21.170  56.888  1.00  0.00     0.210 C 
ENDBRANCH  19  25
ENDBRANCH  16  18
ENDBRANCH   2  16
TORSDOF 4
ENDMDL
MODEL 10
REMARK VINA RESULT:      -8.2      3.240      4.969
REMARK  4 active torsions:
REMARK  status: ('A' for Active; 'I' for Inactive)
REMARK    1  A    between atoms: C_9  and  C_10 
REMARK       I    between atoms: C_10  and  N_11 
REMARK    2  A    between atoms: N_11  and  C_12 
REMARK    3  A    between atoms: C_12  and  C_13 
REMARK    4  A    between atoms: C_14  and  O_15 
ROOT
HETATM    1  C   UNL     1       5.495  32.018  58.375  1.00  0.00     0.273 C 
HETATM    2  N   UNL     1       5.454  32.121  59.747  1.00  0.00    -0.347 N 
HETATM    3  O   UNL     1       5.498  32.982  57.616  1.00  0.00    -0.266 OA
HETATM    4  H   UNL     1       5.634  31.247  60.235  1.00  0.00     0.163 HD
ENDROOT
BRANCH   1   5
HETATM    5  C   UNL     1       5.537  30.622  57.909  1.00  0.00     0.157 A 
HETATM    6  C   UNL     1       6.694  29.857  57.571  1.00  0.00     0.029 A 
HETATM    7  C   UNL     1       8.085  30.079  57.539  1.00  0.00     0.023 A 
HETATM    8  C   UNL     1       6.206  28.614  57.186  1.00  0.00     0.063 A 
HETATM    9  C   UNL     1       8.942  29.048  57.119  1.00  0.00    -0.061 A 
HETATM   10  C   UNL     1      10.427  29.269  57.062  1.00  0.00     0.048 C 
HETATM   11  C   UNL     1       8.408  27.810  56.738  1.00  0.00     0.009 A 
HETATM   12  C   UNL     1       7.030  27.567  56.767  1.00  0.00     0.032 A 
HETATM   13  N   UNL     1       4.848  28.704  57.317  1.00  0.00    -0.277 N 
HETATM   14  H   UNL     1       4.166  27.980  57.125  1.00  0.00     0.189 HD
HETATM   15  N   UNL     1       4.406  29.901  57.740  1.00  0.00    -0.168 NA
ENDBRANCH   1   5
BRANCH   2  16
HETATM   16  C   UNL     1       5.552  33.380  60.469  1.00  0.00     0.116 C 
HETATM   17  C   UNL     1       4.179  34.012  60.720  1.00  0.00     0.037 C 
BRANCH  16  18
HETATM   18  C   UNL     1       6.267  33.186  61.803  1.00  0.00    -0.002 A 
HETATM   19  C   UNL     1       7.583  32.689  61.861  1.00  0.00     0.076 A 
HETATM   20  C   UNL     1       8.212  32.545  63.103  1.00  0.00     0.038 A 
HETATM   21  C   UNL     1       7.555  32.905  64.283  1.00  0.00     0.009 A 
HETATM   22  C   UNL     1       6.261  33.424  64.244  1.00  0.00    -0.061 A 
HETATM   23  C   UNL     1       5.545  33.821  65.500  1.00  0.00     0.048 C 
HETATM   24  C   UNL     1       5.627  33.563  63.004  1.00  0.00     0.018 A 
BRANCH  19  25
HETATM   25  O   UNL     1       8.167  32.382  60.660  1.00  0.00    -0.355 OA
HETATM   26  C   UNL     1       9.555  32.082  60.660  1.00  0.00     0.210 C 
ENDBRANCH  19  25
ENDBRANCH  16  18
ENDBRANCH   2  16
TORSDOF 4
ENDMDL
