MODEL 1
REMARK VINA RESULT:      -7.7      0.000      0.000
REMARK  11 active torsions:
REMARK  status: ('A' for Active; 'I' for Inactive)
REMARK    1  A    between atoms: C_2  and  O_3 
REMARK    2  A    between atoms: O_3  and  C_4 
REMARK    3  A    between atoms: C_5  and  C_6 
REMARK       I    between atoms: C_6  and  N_7 
REMARK    4  A    between atoms: N_7  and  C_8 
REMARK    5  A    between atoms: C_8  and  N_9 
REMARK    6  A    between atoms: N_9  and  C_10 
REMARK    7  A    between atoms: C_11  and  C_12 
REMARK       I    between atoms: C_12  and  N_13 
REMARK    8  A    between atoms: N_13  and  C_14 
REMARK    9  A    between atoms: C_14  and  C_15 
REMARK   10  A    between atoms: C_15  and  C_16 
REMARK   11  A    between atoms: C_16  and  O_17 
ROOT
HETATM    1  N   UNL     1       6.615  28.244  53.332  1.00  0.00    -0.332 N 
HETATM    2  H   UNL     1       7.296  28.949  53.038  1.00  0.00     0.168 HD
ENDROOT
BRANCH   1   3
HETATM    3  C   UNL     1       6.263  27.334  52.370  1.00  0.00     0.179 C 
HETATM    4  S   UNL     1       5.209  27.599  51.098  1.00  0.00    -0.040 SA
BRANCH   3   5
HETATM    5  N   UNL     1       6.815  26.081  52.490  1.00  0.00    -0.299 N 
HETATM    6  C   UNL     1       6.258  24.978  53.135  1.00  0.00     0.260 C 
HETATM    7  O   UNL     1       5.049  24.793  53.207  1.00  0.00    -0.267 OA
HETATM    8  H   UNL     1       7.809  26.071  52.310  1.00  0.00     0.171 HD
BRANCH   6   9
HETATM    9  C   UNL     1       7.252  24.011  53.705  1.00  0.00     0.065 A 
HETATM   10  C   UNL     1       7.954  24.282  54.887  1.00  0.00     0.084 A 
HETATM   11  C   UNL     1       8.852  23.342  55.408  1.00  0.00     0.038 A 
HETATM   12  C   UNL     1       9.101  22.151  54.728  1.00  0.00     0.003 A 
HETATM   13  C   UNL     1       8.451  21.894  53.525  1.00  0.00     0.001 A 
HETATM   14  C   UNL     1       7.535  22.818  53.013  1.00  0.00     0.020 A 
BRANCH  10  15
HETATM   15  O   UNL     1       7.745  25.423  55.613  1.00  0.00    -0.350 OA
BRANCH  15  16
HETATM   16  C   UNL     1       7.234  25.114  56.919  1.00  0.00     0.171 C 
HETATM   17  C   UNL     1       5.719  25.228  56.894  1.00  0.00     0.034 C 
ENDBRANCH  15  16
ENDBRANCH  10  15
ENDBRANCH   6   9
ENDBRANCH   3   5
ENDBRANCH   1   3
BRANCH   1  18
HETATM   18  C   UNL     1       6.096  28.400  54.639  1.00  0.00     0.050 A 
HETATM   19  C   UNL     1       6.912  28.872  55.684  1.00  0.00     0.058 A 
HETATM   20  C   UNL     1       6.355  29.210  56.925  1.00  0.00     0.019 A 
HETATM   21  C   UNL     1       4.988  29.058  57.144  1.00  0.00     0.001 A 
HETATM   22  C   UNL     1       4.177  28.558  56.128  1.00  0.00     0.002 A 
HETATM   23  C   UNL     1       4.725  28.237  54.884  1.00  0.00     0.030 A 
BRANCH  19  24
HETATM   24  C   UNL     1       8.398  28.879  55.610  1.00  0.00     0.253 C 
HETATM   25  N   UNL     1       9.041  28.959  56.830  1.00  0.00    -0.357 N 
HETATM   26  H   UNL     1       8.468  29.020  57.664  1.00  0.00     0.162 HD
HETATM   27  O   UNL     1       8.967  28.922  54.528  1.00  0.00    -0.268 OA
BRANCH  25  28
HETATM   28  C   UNL     1      10.438  29.325  56.930  1.00  0.00     0.125 C 
BRANCH  28  29
HETATM   29  C   UNL     1      10.673  30.616  57.700  1.00  0.00     0.046 C 
BRANCH  29  30
HETATM   30  C   UNL     1       9.437  31.065  58.464  1.00  0.00     0.165 C 
BRANCH  30  31
HETATM   31  O   UNL     1       9.129  30.122  59.482  1.00  0.00    -0.401 OA
HETATM   32  H   UNL     1       8.254  30.357  59.838  1.00  0.00     0.209 HD
ENDBRANCH  30  31
ENDBRANCH  29  30
ENDBRANCH  28  29
ENDBRANCH  25  28
ENDBRANCH  19  24
ENDBRANCH   1  18
TORSDOF 11
ENDMDL
MODEL 2
REMARK VINA RESULT:      -7.6      2.226      7.138
REMARK  11 active torsions:
REMARK  status: ('A' for Active; 'I' for Inactive)
REMARK    1  A    between atoms: C_2  and  O_3 
REMARK    2  A    between atoms: O_3  and  C_4 
REMARK    3  A    between atoms: C_5  and  C_6 
REMARK       I    between atoms: C_6  and  N_7 
REMARK    4  A    between atoms: N_7  and  C_8 
REMARK    5  A    between atoms: C_8  and  N_9 
REMARK    6  A    between atoms: N_9  and  C_10 
REMARK    7  A    between atoms: C_11  and  C_12 
REMARK       I    between atoms: C_12  and  N_13 
REMARK    8  A    between atoms: N_13  and  C_14 
REMARK    9  A    between atoms: C_14  and  C_15 
REMARK   10  A    between atoms: C_15  and  C_16 
REMARK   11  A    between atoms: C_16  and  O_17 
ROOT
HETATM    1  N   UNL     1       6.072  25.743  55.431  1.00  0.00    -0.332 N 
HETATM    2  H   UNL     1       5.270  25.439  55.990  1.00  0.00     0.168 HD
ENDROOT
BRANCH   1   3
HETATM    3  C   UNL     1       6.221  27.100  55.313  1.00  0.00     0.179 C 
HETATM    4  S   UNL     1       5.092  28.169  54.695  1.00  0.00    -0.040 SA
BRANCH   3   5
HETATM    5  N   UNL     1       7.430  27.615  55.721  1.00  0.00    -0.299 N 
HETATM    6  C   UNL     1       7.927  27.655  57.022  1.00  0.00     0.260 C 
HETATM    7  O   UNL     1       7.648  26.810  57.865  1.00  0.00    -0.267 OA
HETATM    8  H   UNL     1       7.845  28.231  55.037  1.00  0.00     0.171 HD
BRANCH   6   9
HETATM    9  C   UNL     1       8.860  28.792  57.307  1.00  0.00     0.065 A 
HETATM   10  C   UNL     1       8.462  29.905  58.060  1.00  0.00     0.084 A 
HETATM   11  C   UNL     1       9.371  30.936  58.333  1.00  0.00     0.038 A 
HETATM   12  C   UNL     1      10.663  30.894  57.814  1.00  0.00     0.003 A 
HETATM   13  C   UNL     1      11.054  29.820  57.020  1.00  0.00     0.001 A 
HETATM   14  C   UNL     1      10.159  28.777  56.764  1.00  0.00     0.020 A 
BRANCH  10  15
HETATM   15  O   UNL     1       7.214  30.003  58.613  1.00  0.00    -0.350 OA
BRANCH  15  16
HETATM   16  C   UNL     1       6.468  31.071  58.009  1.00  0.00     0.171 C 
HETATM   17  C   UNL     1       5.077  30.565  57.664  1.00  0.00     0.034 C 
ENDBRANCH  15  16
ENDBRANCH  10  15
ENDBRANCH   6   9
ENDBRANCH   3   5
ENDBRANCH   1   3
BRANCH   1  18
HETATM   18  C   UNL     1       6.813  24.711  54.809  1.00  0.00     0.050 A 
HETATM   19  C   UNL     1       6.763  24.531  53.415  1.00  0.00     0.058 A 
HETATM   20  C   UNL     1       7.640  23.640  52.780  1.00  0.00     0.019 A 
HETATM   21  C   UNL     1       8.556  22.905  53.529  1.00  0.00     0.001 A 
HETATM   22  C   UNL     1       8.589  23.050  54.914  1.00  0.00     0.002 A 
HETATM   23  C   UNL     1       7.729  23.949  55.549  1.00  0.00     0.030 A 
BRANCH  19  24
HETATM   24  C   UNL     1       5.695  25.117  52.561  1.00  0.00     0.253 C 
HETATM   25  N   UNL     1       6.150  25.870  51.496  1.00  0.00    -0.357 N 
HETATM   26  H   UNL     1       7.151  25.977  51.384  1.00  0.00     0.162 HD
HETATM   27  O   UNL     1       4.518  25.011  52.876  1.00  0.00    -0.268 OA
BRANCH  25  28
HETATM   28  C   UNL     1       5.280  26.783  50.785  1.00  0.00     0.125 C 
BRANCH  28  29
HETATM   29  C   UNL     1       4.640  26.173  49.548  1.00  0.00     0.046 C 
BRANCH  29  30
HETATM   30  C   UNL     1       4.696  27.106  48.349  1.00  0.00     0.165 C 
BRANCH  30  31
HETATM   31  O   UNL     1       5.539  26.553  47.346  1.00  0.00    -0.401 OA
HETATM   32  H   UNL     1       5.455  27.115  46.556  1.00  0.00     0.209 HD
ENDBRANCH  30  31
ENDBRANCH  29  30
ENDBRANCH  28  29
ENDBRANCH  25  28
ENDBRANCH  19  24
ENDBRANCH   1  18
TORSDOF 11
ENDMDL
MODEL 3
REMARK VINA RESULT:      -7.6      2.695      4.576
REMARK  11 active torsions:
REMARK  status: ('A' for Active; 'I' for Inactive)
REMARK    1  A    between atoms: C_2  and  O_3 
REMARK    2  A    between atoms: O_3  and  C_4 
REMARK    3  A    between atoms: C_5  and  C_6 
REMARK       I    between atoms: C_6  and  N_7 
REMARK    4  A    between atoms: N_7  and  C_8 
REMARK    5  A    between atoms: C_8  and  N_9 
REMARK    6  A    between atoms: N_9  and  C_10 
REMARK    7  A    between atoms: C_11  and  C_12 
REMARK       I    between atoms: C_12  and  N_13 
REMARK    8  A    between atoms: N_13  and  C_14 
REMARK    9  A    between atoms: C_14  and  C_15 
REMARK   10  A    between atoms: C_15  and  C_16 
REMARK   11  A    between atoms: C_16  and  O_17 
ROOT
HETATM    1  N   UNL     1       7.350  28.573  58.114  1.00  0.00    -0.332 N 
HETATM    2  H   UNL     1       7.356  28.167  59.054  1.00  0.00     0.168 HD
ENDROOT
BRANCH   1   3
HETATM    3  C   UNL     1       6.278  28.225  57.334  1.00  0.00     0.179 C 
HETATM    4  S   UNL     1       4.961  29.192  56.976  1.00  0.00    -0.040 SA
BRANCH   3   5
HETATM    5  N   UNL     1       6.288  26.947  56.827  1.00  0.00    -0.299 N 
HETATM    6  C   UNL     1       7.227  25.950  57.086  1.00  0.00     0.260 C 
HETATM    7  O   UNL     1       7.829  25.866  58.150  1.00  0.00    -0.267 OA
HETATM    8  H   UNL     1       5.703  26.844  56.010  1.00  0.00     0.171 HD
BRANCH   6   9
HETATM    9  C   UNL     1       7.420  24.960  55.977  1.00  0.00     0.065 A 
HETATM   10  C   UNL     1       7.508  25.359  54.636  1.00  0.00     0.084 A 
HETATM   11  C   UNL     1       7.720  24.410  53.628  1.00  0.00     0.038 A 
HETATM   12  C   UNL     1       7.790  23.053  53.939  1.00  0.00     0.003 A 
HETATM   13  C   UNL     1       7.650  22.639  55.260  1.00  0.00     0.001 A 
HETATM   14  C   UNL     1       7.462  23.584  56.273  1.00  0.00     0.020 A 
BRANCH  10  15
HETATM   15  O   UNL     1       7.464  26.675  54.263  1.00  0.00    -0.350 OA
BRANCH  15  16
HETATM   16  C   UNL     1       6.540  26.871  53.182  1.00  0.00     0.171 C 
HETATM   17  C   UNL     1       6.032  28.302  53.222  1.00  0.00     0.034 C 
ENDBRANCH  15  16
ENDBRANCH  10  15
ENDBRANCH   6   9
ENDBRANCH   3   5
ENDBRANCH   1   3
BRANCH   1  18
HETATM   18  C   UNL     1       8.491  29.334  57.767  1.00  0.00     0.050 A 
HETATM   19  C   UNL     1       9.071  30.221  58.692  1.00  0.00     0.058 A 
HETATM   20  C   UNL     1      10.307  30.825  58.420  1.00  0.00     0.019 A 
HETATM   21  C   UNL     1      10.961  30.572  57.218  1.00  0.00     0.001 A 
HETATM   22  C   UNL     1      10.378  29.723  56.280  1.00  0.00     0.002 A 
HETATM   23  C   UNL     1       9.156  29.104  56.554  1.00  0.00     0.030 A 
BRANCH  19  24
HETATM   24  C   UNL     1       8.359  30.705  59.905  1.00  0.00     0.253 C 
HETATM   25  N   UNL     1       9.095  30.650  61.073  1.00  0.00    -0.357 N 
HETATM   26  H   UNL     1      10.038  30.282  61.022  1.00  0.00     0.162 HD
HETATM   27  O   UNL     1       7.176  31.013  59.851  1.00  0.00    -0.268 OA
BRANCH  25  28
HETATM   28  C   UNL     1       8.466  30.743  62.373  1.00  0.00     0.125 C 
BRANCH  28  29
HETATM   29  C   UNL     1       8.209  32.174  62.821  1.00  0.00     0.046 C 
BRANCH  29  30
HETATM   30  C   UNL     1       6.732  32.448  63.061  1.00  0.00     0.165 C 
BRANCH  30  31
HETATM   31  O   UNL     1       5.956  31.355  62.586  1.00  0.00    -0.401 OA
HETATM   32  H   UNL     1       5.043  31.494  62.895  1.00  0.00     0.209 HD
ENDBRANCH  30  31
ENDBRANCH  29  30
ENDBRANCH  28  29
ENDBRANCH  25  28
ENDBRANCH  19  24
ENDBRANCH   1  18
TORSDOF 11
ENDMDL
MODEL 4
REMARK VINA RESULT:      -7.6      4.654      9.433
REMARK  11 active torsions:
REMARK  status: ('A' for Active; 'I' for Inactive)
REMARK    1  A    between atoms: C_2  and  O_3 
REMARK    2  A    between atoms: O_3  and  C_4 
REMARK    3  A    between atoms: C_5  and  C_6 
REMARK       I    between atoms: C_6  and  N_7 
REMARK    4  A    between atoms: N_7  and  C_8 
REMARK    5  A    between atoms: C_8  and  N_9 
REMARK    6  A    between atoms: N_9  and  C_10 
REMARK    7  A    between atoms: C_11  and  C_12 
REMARK       I    between atoms: C_12  and  N_13 
REMARK    8  A    between atoms: N_13  and  C_14 
REMARK    9  A    between atoms: C_14  and  C_15 
REMARK   10  A    between atoms: C_15  and  C_16 
REMARK   11  A    between atoms: C_16  and  O_17 
ROOT
HETATM    1  N   UNL     1       7.635  30.378  59.514  1.00  0.00    -0.332 N 
HETATM    2  H   UNL     1       7.357  29.620  60.144  1.00  0.00     0.168 HD
ENDROOT
BRANCH   1   3
HETATM    3  C   UNL     1       6.877  31.516  59.601  1.00  0.00     0.179 C 
HETATM    4  S   UNL     1       5.849  32.112  58.424  1.00  0.00    -0.040 SA
BRANCH   3   5
HETATM    5  N   UNL     1       7.005  32.242  60.763  1.00  0.00    -0.299 N 
HETATM    6  C   UNL     1       7.442  31.773  62.000  1.00  0.00     0.260 C 
HETATM    7  O   UNL     1       8.249  30.858  62.115  1.00  0.00    -0.267 OA
HETATM    8  H   UNL     1       6.490  33.111  60.741  1.00  0.00     0.171 HD
BRANCH   6   9
HETATM    9  C   UNL     1       6.879  32.497  63.185  1.00  0.00     0.065 A 
HETATM   10  C   UNL     1       5.500  32.678  63.355  1.00  0.00     0.084 A 
HETATM   11  C   UNL     1       5.006  33.332  64.490  1.00  0.00     0.038 A 
HETATM   12  C   UNL     1       5.882  33.860  65.437  1.00  0.00     0.003 A 
HETATM   13  C   UNL     1       7.255  33.735  65.254  1.00  0.00     0.001 A 
HETATM   14  C   UNL     1       7.752  33.062  64.134  1.00  0.00     0.020 A 
BRANCH  10  15
HETATM   15  O   UNL     1       4.584  32.171  62.472  1.00  0.00    -0.350 OA
BRANCH  15  16
HETATM   16  C   UNL     1       3.512  33.101  62.255  1.00  0.00     0.171 C 
HETATM   17  C   UNL     1       3.144  33.091  60.781  1.00  0.00     0.034 C 
ENDBRANCH  15  16
ENDBRANCH  10  15
ENDBRANCH   6   9
ENDBRANCH   3   5
ENDBRANCH   1   3
BRANCH   1  18
HETATM   18  C   UNL     1       8.680  30.074  58.611  1.00  0.00     0.050 A 
HETATM   19  C   UNL     1       8.505  29.099  57.613  1.00  0.00     0.058 A 
HETATM   20  C   UNL     1       9.463  28.935  56.602  1.00  0.00     0.019 A 
HETATM   21  C   UNL     1      10.613  29.721  56.592  1.00  0.00     0.001 A 
HETATM   22  C   UNL     1      10.812  30.664  57.597  1.00  0.00     0.002 A 
HETATM   23  C   UNL     1       9.852  30.844  58.596  1.00  0.00     0.030 A 
BRANCH  19  24
HETATM   24  C   UNL     1       7.416  28.086  57.653  1.00  0.00     0.253 C 
HETATM   25  N   UNL     1       7.844  26.772  57.652  1.00  0.00    -0.357 N 
HETATM   26  H   UNL     1       8.842  26.598  57.611  1.00  0.00     0.162 HD
HETATM   27  O   UNL     1       6.244  28.428  57.578  1.00  0.00    -0.268 OA
BRANCH  25  28
HETATM   28  C   UNL     1       6.946  25.681  57.339  1.00  0.00     0.125 C 
BRANCH  28  29
HETATM   29  C   UNL     1       6.960  25.286  55.870  1.00  0.00     0.046 C 
BRANCH  29  30
HETATM   30  C   UNL     1       5.583  25.387  55.232  1.00  0.00     0.165 C 
BRANCH  30  31
HETATM   31  O   UNL     1       4.920  26.556  55.697  1.00  0.00    -0.401 OA
HETATM   32  H   UNL     1       5.484  26.953  56.384  1.00  0.00     0.209 HD
ENDBRANCH  30  31
ENDBRANCH  29  30
ENDBRANCH  28  29
ENDBRANCH  25  28
ENDBRANCH  19  24
ENDBRANCH   1  18
TORSDOF 11
ENDMDL
MODEL 5
REMARK VINA RESULT:      -7.6      2.013      6.724
REMARK  11 active torsions:
REMARK  status: ('A' for Active; 'I' for Inactive)
REMARK    1  A    between atoms: C_2  and  O_3 
REMARK    2  A    between atoms: O_3  and  C_4 
REMARK    3  A    between atoms: C_5  and  C_6 
REMARK       I    between atoms: C_6  and  N_7 
REMARK    4  A    between atoms: N_7  and  C_8 
REMARK    5  A    between atoms: C_8  and  N_9 
REMARK    6  A    between atoms: N_9  and  C_10 
REMARK    7  A    between atoms: C_11  and  C_12 
REMARK       I    between atoms: C_12  and  N_13 
REMARK    8  A    between atoms: N_13  and  C_14 
REMARK    9  A    between atoms: C_14  and  C_15 
REMARK   10  A    between atoms: C_15  and  C_16 
REMARK   11  A    between atoms: C_16  and  O_17 
ROOT
HETATM    1  N   UNL     1       7.852  25.189  55.625  1.00  0.00    -0.332 N 
HETATM    2  H   UNL     1       8.791  25.597  55.655  1.00  0.00     0.168 HD
ENDROOT
BRANCH   1   3
HETATM    3  C   UNL     1       6.881  25.910  56.268  1.00  0.00     0.179 C 
HETATM    4  S   UNL     1       5.333  25.386  56.624  1.00  0.00    -0.040 SA
BRANCH   3   5
HETATM    5  N   UNL     1       7.217  27.196  56.625  1.00  0.00    -0.299 N 
HETATM    6  C   UNL     1       7.964  28.104  55.877  1.00  0.00     0.260 C 
HETATM    7  O   UNL     1       7.967  28.111  54.651  1.00  0.00    -0.267 OA
HETATM    8  H   UNL     1       7.118  27.367  57.615  1.00  0.00     0.171 HD
BRANCH   6   9
HETATM    9  C   UNL     1       8.738  29.101  56.684  1.00  0.00     0.065 A 
HETATM   10  C   UNL     1       8.128  29.893  57.666  1.00  0.00     0.084 A 
HETATM   11  C   UNL     1       8.888  30.792  58.424  1.00  0.00     0.038 A 
HETATM   12  C   UNL     1      10.250  30.952  58.173  1.00  0.00     0.003 A 
HETATM   13  C   UNL     1      10.858  30.211  57.164  1.00  0.00     0.001 A 
HETATM   14  C   UNL     1      10.108  29.294  56.421  1.00  0.00     0.020 A 
BRANCH  10  15
HETATM   15  O   UNL     1       6.800  29.775  57.975  1.00  0.00    -0.350 OA
BRANCH  15  16
HETATM   16  C   UNL     1       6.085  30.972  57.630  1.00  0.00     0.171 C 
HETATM   17  C   UNL     1       5.384  30.759  56.299  1.00  0.00     0.034 C 
ENDBRANCH  15  16
ENDBRANCH  10  15
ENDBRANCH   6   9
ENDBRANCH   3   5
ENDBRANCH   1   3
BRANCH   1  18
HETATM   18  C   UNL     1       7.756  23.917  55.013  1.00  0.00     0.050 A 
HETATM   19  C   UNL     1       7.729  23.795  53.612  1.00  0.00     0.058 A 
HETATM   20  C   UNL     1       7.830  22.534  53.006  1.00  0.00     0.019 A 
HETATM   21  C   UNL     1       7.931  21.386  53.788  1.00  0.00     0.001 A 
HETATM   22  C   UNL     1       7.922  21.494  55.177  1.00  0.00     0.002 A 
HETATM   23  C   UNL     1       7.840  22.749  55.785  1.00  0.00     0.030 A 
BRANCH  19  24
HETATM   24  C   UNL     1       7.426  24.934  52.705  1.00  0.00     0.253 C 
HETATM   25  N   UNL     1       6.081  25.170  52.497  1.00  0.00    -0.357 N 
HETATM   26  H   UNL     1       5.416  24.557  52.954  1.00  0.00     0.162 HD
HETATM   27  O   UNL     1       8.327  25.521  52.121  1.00  0.00    -0.268 OA
BRANCH  25  28
HETATM   28  C   UNL     1       5.615  25.988  51.398  1.00  0.00     0.125 C 
BRANCH  28  29
HETATM   29  C   UNL     1       5.428  27.452  51.768  1.00  0.00     0.046 C 
BRANCH  29  30
HETATM   30  C   UNL     1       4.782  27.624  53.134  1.00  0.00     0.165 C 
BRANCH  30  31
HETATM   31  O   UNL     1       3.689  26.723  53.268  1.00  0.00    -0.401 OA
HETATM   32  H   UNL     1       2.883  27.211  53.025  1.00  0.00     0.209 HD
ENDBRANCH  30  31
ENDBRANCH  29  30
ENDBRANCH  28  29
ENDBRANCH  25  28
ENDBRANCH  19  24
ENDBRANCH   1  18
TORSDOF 11
ENDMDL
MODEL 6
REMARK VINA RESULT:      -7.3      2.049      2.774
REMARK  11 active torsions:
REMARK  status: ('A' for Active; 'I' for Inactive)
REMARK    1  A    between atoms: C_2  and  O_3 
REMARK    2  A    between atoms: O_3  and  C_4 
REMARK    3  A    between atoms: C_5  and  C_6 
REMARK       I    between atoms: C_6  and  N_7 
REMARK    4  A    between atoms: N_7  and  C_8 
REMARK    5  A    between atoms: C_8  and  N_9 
REMARK    6  A    between atoms: N_9  and  C_10 
REMARK    7  A    between atoms: C_11  and  C_12 
REMARK       I    between atoms: C_12  and  N_13 
REMARK    8  A    between atoms: N_13  and  C_14 
REMARK    9  A    between atoms: C_14  and  C_15 
REMARK   10  A    between atoms: C_15  and  C_16 
REMARK   11  A    between atoms: C_16  and  O_17 
ROOT
HETATM    1  N   UNL     1       4.102  26.491  53.484  1.00  0.00    -0.332 N 
HETATM    2  H   UNL     1       3.443  25.928  54.029  1.00  0.00     0.168 HD
ENDROOT
BRANCH   1   3
HETATM    3  C   UNL     1       5.042  25.778  52.787  1.00  0.00     0.179 C 
HETATM    4  S   UNL     1       5.326  25.863  51.141  1.00  0.00    -0.040 SA
BRANCH   3   5
HETATM    5  N   UNL     1       5.797  24.893  53.520  1.00  0.00    -0.299 N 
HETATM    6  C   UNL     1       7.106  24.491  53.259  1.00  0.00     0.260 C 
HETATM    7  O   UNL     1       7.925  25.218  52.709  1.00  0.00    -0.267 OA
HETATM    8  H   UNL     1       5.240  24.318  54.136  1.00  0.00     0.171 HD
BRANCH   6   9
HETATM    9  C   UNL     1       7.450  23.112  53.734  1.00  0.00     0.065 A 
HETATM   10  C   UNL     1       7.466  22.781  55.095  1.00  0.00     0.084 A 
HETATM   11  C   UNL     1       7.761  21.474  55.503  1.00  0.00     0.038 A 
HETATM   12  C   UNL     1       8.098  20.501  54.563  1.00  0.00     0.003 A 
HETATM   13  C   UNL     1       8.139  20.831  53.212  1.00  0.00     0.001 A 
HETATM   14  C   UNL     1       7.821  22.128  52.798  1.00  0.00     0.020 A 
BRANCH  10  15
HETATM   15  O   UNL     1       7.129  23.683  56.069  1.00  0.00    -0.350 OA
BRANCH  15  16
HETATM   16  C   UNL     1       8.204  24.604  56.308  1.00  0.00     0.171 C 
HETATM   17  C   UNL     1       8.801  24.319  57.676  1.00  0.00     0.034 C 
ENDBRANCH  15  16
ENDBRANCH  10  15
ENDBRANCH   6   9
ENDBRANCH   3   5
ENDBRANCH   1   3
BRANCH   1  18
HETATM   18  C   UNL     1       3.979  27.893  53.632  1.00  0.00     0.050 A 
HETATM   19  C   UNL     1       4.695  28.575  54.633  1.00  0.00     0.058 A 
HETATM   20  C   UNL     1       4.725  29.977  54.656  1.00  0.00     0.019 A 
HETATM   21  C   UNL     1       4.025  30.709  53.700  1.00  0.00     0.001 A 
HETATM   22  C   UNL     1       3.285  30.043  52.726  1.00  0.00     0.002 A 
HETATM   23  C   UNL     1       3.266  28.647  52.688  1.00  0.00     0.030 A 
BRANCH  19  24
HETATM   24  C   UNL     1       5.304  27.888  55.803  1.00  0.00     0.253 C 
HETATM   25  N   UNL     1       6.121  28.682  56.584  1.00  0.00    -0.357 N 
HETATM   26  H   UNL     1       6.254  29.647  56.302  1.00  0.00     0.162 HD
HETATM   27  O   UNL     1       5.157  26.684  55.963  1.00  0.00    -0.268 OA
BRANCH  25  28
HETATM   28  C   UNL     1       7.053  28.111  57.532  1.00  0.00     0.125 C 
BRANCH  28  29
HETATM   29  C   UNL     1       8.493  28.109  57.042  1.00  0.00     0.046 C 
BRANCH  29  30
HETATM   30  C   UNL     1       8.795  29.292  56.135  1.00  0.00     0.165 C 
BRANCH  30  31
HETATM   31  O   UNL     1       8.525  28.944  54.783  1.00  0.00    -0.401 OA
HETATM   32  H   UNL     1       8.115  29.721  54.362  1.00  0.00     0.209 HD
ENDBRANCH  30  31
ENDBRANCH  29  30
ENDBRANCH  28  29
ENDBRANCH  25  28
ENDBRANCH  19  24
ENDBRANCH   1  18
TORSDOF 11
ENDMDL
MODEL 7
REMARK VINA RESULT:      -7.2      2.419      6.953
REMARK  11 active torsions:
REMARK  status: ('A' for Active; 'I' for Inactive)
REMARK    1  A    between atoms: C_2  and  O_3 
REMARK    2  A    between atoms: O_3  and  C_4 
REMARK    3  A    between atoms: C_5  and  C_6 
REMARK       I    between atoms: C_6  and  N_7 
REMARK    4  A    between atoms: N_7  and  C_8 
REMARK    5  A    between atoms: C_8  and  N_9 
REMARK    6  A    between atoms: N_9  and  C_10 
REMARK    7  A    between atoms: C_11  and  C_12 
REMARK       I    between atoms: C_12  and  N_13 
REMARK    8  A    between atoms: N_13  and  C_14 
REMARK    9  A    between atoms: C_14  and  C_15 
REMARK   10  A    between atoms: C_15  and  C_16 
REMARK   11  A    between atoms: C_16  and  O_17 
ROOT
HETATM    1  N   UNL     1       5.156  26.952  55.649  1.00  0.00    -0.332 N 
HETATM    2  H   UNL     1       4.720  26.287  56.293  1.00  0.00     0.168 HD
ENDROOT
BRANCH   1   3
HETATM    3  C   UNL     1       5.437  28.183  56.182  1.00  0.00     0.179 C 
HETATM    4  S   UNL     1       4.318  29.325  56.676  1.00  0.00    -0.040 SA
BRANCH   3   5
HETATM    5  N   UNL     1       6.769  28.507  56.290  1.00  0.00    -0.299 N 
HETATM    6  C   UNL     1       7.630  28.173  57.334  1.00  0.00     0.260 C 
HETATM    7  O   UNL     1       7.504  27.150  57.997  1.00  0.00    -0.267 OA
HETATM    8  H   UNL     1       7.041  29.260  55.675  1.00  0.00     0.171 HD
BRANCH   6   9
HETATM    9  C   UNL     1       8.749  29.144  57.564  1.00  0.00     0.065 A 
HETATM   10  C   UNL     1       8.621  30.224  58.447  1.00  0.00     0.084 A 
HETATM   11  C   UNL     1       9.698  31.094  58.662  1.00  0.00     0.038 A 
HETATM   12  C   UNL     1      10.890  30.928  57.959  1.00  0.00     0.003 A 
HETATM   13  C   UNL     1      11.011  29.891  57.039  1.00  0.00     0.001 A 
HETATM   14  C   UNL     1       9.948  29.006  56.839  1.00  0.00     0.020 A 
BRANCH  10  15
HETATM   15  O   UNL     1       7.485  30.435  59.181  1.00  0.00    -0.350 OA
BRANCH  15  16
HETATM   16  C   UNL     1       6.760  31.572  58.687  1.00  0.00     0.171 C 
HETATM   17  C   UNL     1       6.373  32.456  59.860  1.00  0.00     0.034 C 
ENDBRANCH  15  16
ENDBRANCH  10  15
ENDBRANCH   6   9
ENDBRANCH   3   5
ENDBRANCH   1   3
BRANCH   1  18
HETATM   18  C   UNL     1       5.295  26.510  54.312  1.00  0.00     0.050 A 
HETATM   19  C   UNL     1       5.750  25.210  54.030  1.00  0.00     0.058 A 
HETATM   20  C   UNL     1       5.704  24.708  52.721  1.00  0.00     0.019 A 
HETATM   21  C   UNL     1       5.229  25.504  51.682  1.00  0.00     0.001 A 
HETATM   22  C   UNL     1       4.809  26.805  51.946  1.00  0.00     0.002 A 
HETATM   23  C   UNL     1       4.837  27.304  53.251  1.00  0.00     0.030 A 
BRANCH  19  24
HETATM   24  C   UNL     1       6.454  24.363  55.031  1.00  0.00     0.253 C 
HETATM   25  N   UNL     1       7.137  23.285  54.503  1.00  0.00    -0.357 N 
HETATM   26  H   UNL     1       7.099  23.144  53.500  1.00  0.00     0.162 HD
HETATM   27  O   UNL     1       6.321  24.575  56.228  1.00  0.00    -0.268 OA
BRANCH  25  28
HETATM   28  C   UNL     1       7.572  22.182  55.333  1.00  0.00     0.125 C 
BRANCH  28  29
HETATM   29  C   UNL     1       8.428  21.166  54.591  1.00  0.00     0.046 C 
BRANCH  29  30
HETATM   30  C   UNL     1       8.189  21.196  53.090  1.00  0.00     0.165 C 
BRANCH  30  31
HETATM   31  O   UNL     1       8.253  19.877  52.564  1.00  0.00    -0.401 OA
HETATM   32  H   UNL     1       8.784  19.345  53.183  1.00  0.00     0.209 HD
ENDBRANCH  30  31
ENDBRANCH  29  30
ENDBRANCH  28  29
ENDBRANCH  25  28
ENDBRANCH  19  24
ENDBRANCH   1  18
TORSDOF 11
ENDMDL
MODEL 8
REMARK VINA RESULT:      -7.2      2.450      6.851
REMARK  11 active torsions:
REMARK  status: ('A' for Active; 'I' for Inactive)
REMARK    1  A    between atoms: C_2  and  O_3 
REMARK    2  A    between atoms: O_3  and  C_4 
REMARK    3  A    between atoms: C_5  and  C_6 
REMARK       I    between atoms: C_6  and  N_7 
REMARK    4  A    between atoms: N_7  and  C_8 
REMARK    5  A    between atoms: C_8  and  N_9 
REMARK    6  A    between atoms: N_9  and  C_10 
REMARK    7  A    between atoms: C_11  and  C_12 
REMARK       I    between atoms: C_12  and  N_13 
REMARK    8  A    between atoms: N_13  and  C_14 
REMARK    9  A    between atoms: C_14  and  C_15 
REMARK   10  A    between atoms: C_15  and  C_16 
REMARK   11  A    between atoms: C_16  and  O_17 
ROOT
HETATM    1  N   UNL     1       6.857  24.226  55.621  1.00  0.00    -0.332 N 
HETATM    2  H   UNL     1       5.935  24.621  55.412  1.00  0.00     0.168 HD
ENDROOT
BRANCH   1   3
HETATM    3  C   UNL     1       7.585  24.908  56.560  1.00  0.00     0.179 C 
HETATM    4  S   UNL     1       9.003  24.389  57.281  1.00  0.00    -0.040 SA
BRANCH   3   5
HETATM    5  N   UNL     1       7.075  26.123  56.957  1.00  0.00    -0.299 N 
HETATM    6  C   UNL     1       5.733  26.493  57.002  1.00  0.00     0.260 C 
HETATM    7  O   UNL     1       4.830  25.692  57.216  1.00  0.00    -0.267 OA
HETATM    8  H   UNL     1       7.769  26.857  56.962  1.00  0.00     0.171 HD
BRANCH   6   9
HETATM    9  C   UNL     1       5.474  27.956  56.805  1.00  0.00     0.065 A 
HETATM   10  C   UNL     1       6.276  28.937  57.404  1.00  0.00     0.084 A 
HETATM   11  C   UNL     1       6.024  30.295  57.173  1.00  0.00     0.038 A 
HETATM   12  C   UNL     1       4.941  30.689  56.389  1.00  0.00     0.003 A 
HETATM   13  C   UNL     1       4.105  29.726  55.832  1.00  0.00     0.001 A 
HETATM   14  C   UNL     1       4.366  28.369  56.041  1.00  0.00     0.020 A 
BRANCH  10  15
HETATM   15  O   UNL     1       7.364  28.619  58.171  1.00  0.00    -0.350 OA
BRANCH  15  16
HETATM   16  C   UNL     1       8.437  29.548  57.947  1.00  0.00     0.171 C 
HETATM   17  C   UNL     1       9.462  28.904  57.031  1.00  0.00     0.034 C 
ENDBRANCH  15  16
ENDBRANCH  10  15
ENDBRANCH   6   9
ENDBRANCH   3   5
ENDBRANCH   1   3
BRANCH   1  18
HETATM   18  C   UNL     1       7.241  23.115  54.834  1.00  0.00     0.050 A 
HETATM   19  C   UNL     1       7.659  23.289  53.502  1.00  0.00     0.058 A 
HETATM   20  C   UNL     1       8.221  22.221  52.787  1.00  0.00     0.019 A 
HETATM   21  C   UNL     1       8.348  20.969  53.383  1.00  0.00     0.001 A 
HETATM   22  C   UNL     1       7.905  20.778  54.690  1.00  0.00     0.002 A 
HETATM   23  C   UNL     1       7.360  21.843  55.412  1.00  0.00     0.030 A 
BRANCH  19  24
HETATM   24  C   UNL     1       7.383  24.525  52.722  1.00  0.00     0.253 C 
HETATM   25  N   UNL     1       6.047  24.767  52.468  1.00  0.00    -0.357 N 
HETATM   26  H   UNL     1       5.370  24.095  52.811  1.00  0.00     0.162 HD
HETATM   27  O   UNL     1       8.302  25.189  52.263  1.00  0.00    -0.268 OA
BRANCH  25  28
HETATM   28  C   UNL     1       5.625  25.705  51.449  1.00  0.00     0.125 C 
BRANCH  28  29
HETATM   29  C   UNL     1       5.679  27.156  51.902  1.00  0.00     0.046 C 
BRANCH  29  30
HETATM   30  C   UNL     1       4.350  27.634  52.467  1.00  0.00     0.165 C 
BRANCH  30  31
HETATM   31  O   UNL     1       3.710  26.570  53.160  1.00  0.00    -0.401 OA
HETATM   32  H   UNL     1       3.312  26.948  53.964  1.00  0.00     0.209 HD
ENDBRANCH  30  31
ENDBRANCH  29  30
ENDBRANCH  28  29
ENDBRANCH  25  28
ENDBRANCH  19  24
ENDBRANCH   1  18
TORSDOF 11
ENDMDL
MODEL 9
REMARK VINA RESULT:      -7.0      3.211      5.970
REMARK  11 active torsions:
REMARK  status: ('A' for Active; 'I' for Inactive)
REMARK    1  A    between atoms: C_2  and  O_3 
REMARK    2  A    between atoms: O_3  and  C_4 
REMARK    3  A    between atoms: C_5  and  C_6 
REMARK       I    between atoms: C_6  and  N_7 
REMARK    4  A    between atoms: N_7  and  C_8 
REMARK    5  A    between atoms: C_8  and  N_9 
REMARK    6  A    between atoms: N_9  and  C_10 
REMARK    7  A    between atoms: C_11  and  C_12 
REMARK       I    between atoms: C_12  and  N_13 
REMARK    8  A    between atoms: N_13  and  C_14 
REMARK    9  A    between atoms: C_14  and  C_15 
REMARK   10  A    between atoms: C_15  and  C_16 
REMARK   11  A    between atoms: C_16  and  O_17 
ROOT
HETATM    1  N   UNL     1       5.334  27.068  53.306  1.00  0.00    -0.332 N 
HETATM    2  H   UNL     1       4.705  26.300  53.559  1.00  0.00     0.168 HD
ENDROOT
BRANCH   1   3
HETATM    3  C   UNL     1       6.648  26.883  53.649  1.00  0.00     0.179 C 
HETATM    4  S   UNL     1       7.688  28.052  54.241  1.00  0.00    -0.040 SA
BRANCH   3   5
HETATM    5  N   UNL     1       7.153  25.618  53.456  1.00  0.00    -0.299 N 
HETATM    6  C   UNL     1       6.458  24.415  53.560  1.00  0.00     0.260 C 
HETATM    7  O   UNL     1       5.263  24.314  53.307  1.00  0.00    -0.267 OA
HETATM    8  H   UNL     1       8.161  25.588  53.498  1.00  0.00     0.171 HD
BRANCH   6   9
HETATM    9  C   UNL     1       7.291  23.238  53.970  1.00  0.00     0.065 A 
HETATM   10  C   UNL     1       7.670  23.028  55.302  1.00  0.00     0.084 A 
HETATM   11  C   UNL     1       8.423  21.901  55.655  1.00  0.00     0.038 A 
HETATM   12  C   UNL     1       8.852  21.004  54.677  1.00  0.00     0.003 A 
HETATM   13  C   UNL     1       8.528  21.230  53.343  1.00  0.00     0.001 A 
HETATM   14  C   UNL     1       7.757  22.341  52.989  1.00  0.00     0.020 A 
BRANCH  10  15
HETATM   15  O   UNL     1       7.270  23.859  56.313  1.00  0.00    -0.350 OA
BRANCH  15  16
HETATM   16  C   UNL     1       8.392  24.551  56.883  1.00  0.00     0.171 C 
HETATM   17  C   UNL     1       7.921  25.888  57.427  1.00  0.00     0.034 C 
ENDBRANCH  15  16
ENDBRANCH  10  15
ENDBRANCH   6   9
ENDBRANCH   3   5
ENDBRANCH   1   3
BRANCH   1  18
HETATM   18  C   UNL     1       4.715  28.207  52.741  1.00  0.00     0.050 A 
HETATM   19  C   UNL     1       4.307  28.210  51.395  1.00  0.00     0.058 A 
HETATM   20  C   UNL     1       3.523  29.258  50.891  1.00  0.00     0.019 A 
HETATM   21  C   UNL     1       3.162  30.321  51.714  1.00  0.00     0.001 A 
HETATM   22  C   UNL     1       3.591  30.345  53.039  1.00  0.00     0.002 A 
HETATM   23  C   UNL     1       4.357  29.295  53.551  1.00  0.00     0.030 A 
BRANCH  19  24
HETATM   24  C   UNL     1       4.806  27.227  50.396  1.00  0.00     0.253 C 
HETATM   25  N   UNL     1       4.496  27.523  49.083  1.00  0.00    -0.357 N 
HETATM   26  H   UNL     1       3.953  28.360  48.901  1.00  0.00     0.162 HD
HETATM   27  O   UNL     1       5.347  26.191  50.759  1.00  0.00    -0.268 OA
BRANCH  25  28
HETATM   28  C   UNL     1       4.589  26.527  48.037  1.00  0.00     0.125 C 
BRANCH  28  29
HETATM   29  C   UNL     1       3.345  25.661  47.912  1.00  0.00     0.046 C 
BRANCH  29  30
HETATM   30  C   UNL     1       2.107  26.474  47.567  1.00  0.00     0.165 C 
BRANCH  30  31
HETATM   31  O   UNL     1       1.557  27.040  48.750  1.00  0.00    -0.401 OA
HETATM   32  H   UNL     1       2.168  27.737  49.048  1.00  0.00     0.209 HD
ENDBRANCH  30  31
ENDBRANCH  29  30
ENDBRANCH  28  29
ENDBRANCH  25  28
ENDBRANCH  19  24
ENDBRANCH   1  18
TORSDOF 11
ENDMDL
MODEL 10
REMARK VINA RESULT:      -6.9      2.755      4.181
REMARK  11 active torsions:
REMARK  status: ('A' for Active; 'I' for Inactive)
REMARK    1  A    between atoms: C_2  and  O_3 
REMARK    2  A    between atoms: O_3  and  C_4 
REMARK    3  A    between atoms: C_5  and  C_6 
REMARK       I    between atoms: C_6  and  N_7 
REMARK    4  A    between atoms: N_7  and  C_8 
REMARK    5  A    between atoms: C_8  and  N_9 
REMARK    6  A    between atoms: N_9  and  C_10 
REMARK    7  A    between atoms: C_11  and  C_12 
REMARK       I    between atoms: C_12  and  N_13 
REMARK    8  A    between atoms: N_13  and  C_14 
REMARK    9  A    between atoms: C_14  and  C_15 
REMARK   10  A    between atoms: C_15  and  C_16 
REMARK   11  A    between atoms: C_16  and  O_17 
ROOT
HETATM    1  N   UNL     1       6.117  29.571  54.898  1.00  0.00    -0.332 N 
HETATM    2  H   UNL     1       5.952  30.466  54.429  1.00  0.00     0.168 HD
ENDROOT
BRANCH   1   3
HETATM    3  C   UNL     1       5.320  28.538  54.482  1.00  0.00     0.179 C 
HETATM    4  S   UNL     1       3.834  28.679  53.726  1.00  0.00    -0.040 SA
BRANCH   3   5
HETATM    5  N   UNL     1       5.786  27.270  54.741  1.00  0.00    -0.299 N 
HETATM    6  C   UNL     1       5.707  26.580  55.949  1.00  0.00     0.260 C 
HETATM    7  O   UNL     1       4.794  26.745  56.750  1.00  0.00    -0.267 OA
HETATM    8  H   UNL     1       6.456  26.951  54.057  1.00  0.00     0.171 HD
BRANCH   6   9
HETATM    9  C   UNL     1       6.807  25.589  56.183  1.00  0.00     0.065 A 
HETATM   10  C   UNL     1       7.039  24.520  55.307  1.00  0.00     0.084 A 
HETATM   11  C   UNL     1       8.096  23.631  55.539  1.00  0.00     0.038 A 
HETATM   12  C   UNL     1       8.895  23.765  56.674  1.00  0.00     0.003 A 
HETATM   13  C   UNL     1       8.641  24.790  57.580  1.00  0.00     0.001 A 
HETATM   14  C   UNL     1       7.602  25.694  57.341  1.00  0.00     0.020 A 
BRANCH  10  15
HETATM   15  O   UNL     1       6.304  24.341  54.167  1.00  0.00    -0.350 OA
BRANCH  15  16
HETATM   16  C   UNL     1       7.112  23.783  53.119  1.00  0.00     0.171 C 
HETATM   17  C   UNL     1       7.549  24.900  52.186  1.00  0.00     0.034 C 
ENDBRANCH  15  16
ENDBRANCH  10  15
ENDBRANCH   6   9
ENDBRANCH   3   5
ENDBRANCH   1   3
BRANCH   1  18
HETATM   18  C   UNL     1       7.064  29.595  55.949  1.00  0.00     0.050 A 
HETATM   19  C   UNL     1       6.676  29.938  57.257  1.00  0.00     0.058 A 
HETATM   20  C   UNL     1       7.565  29.775  58.329  1.00  0.00     0.019 A 
HETATM   21  C   UNL     1       8.852  29.293  58.105  1.00  0.00     0.001 A 
HETATM   22  C   UNL     1       9.257  28.985  56.809  1.00  0.00     0.002 A 
HETATM   23  C   UNL     1       8.370  29.129  55.740  1.00  0.00     0.030 A 
BRANCH  19  24
HETATM   24  C   UNL     1       5.401  30.641  57.565  1.00  0.00     0.253 C 
HETATM   25  N   UNL     1       5.533  31.987  57.848  1.00  0.00    -0.357 N 
HETATM   26  H   UNL     1       6.466  32.385  57.839  1.00  0.00     0.162 HD
HETATM   27  O   UNL     1       4.354  30.017  57.661  1.00  0.00    -0.268 OA
BRANCH  25  28
HETATM   28  C   UNL     1       4.477  32.733  58.499  1.00  0.00     0.125 C 
BRANCH  28  29
HETATM   29  C   UNL     1       4.665  32.863  60.003  1.00  0.00     0.046 C 
BRANCH  29  30
HETATM   30  C   UNL     1       3.588  32.125  60.784  1.00  0.00     0.165 C 
BRANCH  30  31
HETATM   31  O   UNL     1       2.834  31.300  59.905  1.00  0.00    -0.401 OA
HETATM   32  H   UNL     1       3.314  30.457  59.818  1.00  0.00     0.209 HD
ENDBRANCH  30  31
ENDBRANCH  29  30
ENDBRANCH  28  29
ENDBRANCH  25  28
ENDBRANCH  19  24
ENDBRANCH   1  18
TORSDOF 11
ENDMDL
