MODEL 1
REMARK VINA RESULT:      -9.1      0.000      0.000
REMARK  4 active torsions:
REMARK  status: ('A' for Active; 'I' for Inactive)
REMARK    1  A    between atoms: C_8  and  N_9 
REMARK       I    between atoms: N_9  and  C_10 
REMARK       I    between atoms: C_10  and  N_11 
REMARK    2  A    between atoms: N_11  and  C_12 
REMARK    3  A    between atoms: C_14  and  C_15 
REMARK       I    between atoms: C_15  and  N_16 
REMARK    4  A    between atoms: N_16  and  C_17 
ROOT
HETATM    1  C   UNL     1       6.682  26.783  55.627  1.00  0.00     0.037 A 
HETATM    2  C   UNL     1       7.382  25.750  55.004  1.00  0.00     0.048 A 
HETATM    3  C   UNL     1       6.814  25.036  53.931  1.00  0.00     0.055 A 
HETATM    4  C   UNL     1       5.551  25.387  53.451  1.00  0.00     0.049 A 
HETATM    5 CL   UNL     1       4.745  24.534  52.187  1.00  0.00    -0.083 Cl
HETATM    6  C   UNL     1       4.863  26.448  54.049  1.00  0.00     0.027 A 
HETATM    7  C   UNL     1       5.425  27.140  55.129  1.00  0.00     0.031 A 
ENDROOT
BRANCH   1   8
HETATM    8  N   UNL     1       7.163  27.494  56.749  1.00  0.00    -0.309 N 
HETATM    9  C   UNL     1       7.678  28.786  56.761  1.00  0.00     0.325 C 
HETATM   10  N   UNL     1       8.080  29.142  58.035  1.00  0.00    -0.305 N 
HETATM   11  O   UNL     1       7.781  29.491  55.768  1.00  0.00    -0.247 OA
HETATM   12  H   UNL     1       7.869  28.504  58.785  1.00  0.00     0.171 HD
HETATM   13  H   UNL     1       7.255  26.965  57.603  1.00  0.00     0.170 HD
BRANCH  10  14
HETATM   14  C   UNL     1       8.713  30.315  58.422  1.00  0.00     0.086 A 
HETATM   15  C   UNL     1      10.023  30.579  58.059  1.00  0.00     0.052 A 
HETATM   16  C   UNL     1      11.017  29.826  57.261  1.00  0.00     0.072 C 
HETATM   17  N   UNL     1      10.320  31.801  58.589  1.00  0.00    -0.280 N 
HETATM   18  H   UNL     1      11.189  32.319  58.525  1.00  0.00     0.189 HD
HETATM   19  N   UNL     1       9.313  32.356  59.265  1.00  0.00    -0.177 NA
HETATM   20  C   UNL     1       8.316  31.462  59.175  1.00  0.00     0.079 A 
HETATM   21  C   UNL     1       7.030  31.799  59.838  1.00  0.00     0.075 C 
ENDBRANCH  10  14
ENDBRANCH   1   8
BRANCH   3  22
HETATM   22  C   UNL     1       7.605  23.931  53.338  1.00  0.00     0.253 C 
HETATM   23  N   UNL     1       7.709  22.804  54.134  1.00  0.00    -0.352 N 
HETATM   24  H   UNL     1       7.228  22.775  55.026  1.00  0.00     0.163 HD
HETATM   25  O   UNL     1       8.129  24.058  52.239  1.00  0.00    -0.268 OA
BRANCH  23  26
HETATM   26  C   UNL     1       8.500  21.677  53.761  1.00  0.00     0.084 A 
HETATM   27  C   UNL     1       8.311  20.354  54.452  1.00  0.00     0.027 A 
HETATM   28  C   UNL     1       7.879  20.520  53.024  1.00  0.00     0.027 A 
ENDBRANCH  23  26
ENDBRANCH   3  22
TORSDOF 4
ENDMDL
MODEL 2
REMARK VINA RESULT:      -8.9      5.920     10.865
REMARK  4 active torsions:
REMARK  status: ('A' for Active; 'I' for Inactive)
REMARK    1  A    between atoms: C_8  and  N_9 
REMARK       I    between atoms: N_9  and  C_10 
REMARK       I    between atoms: C_10  and  N_11 
REMARK    2  A    between atoms: N_11  and  C_12 
REMARK    3  A    between atoms: C_14  and  C_15 
REMARK       I    between atoms: C_15  and  N_16 
REMARK    4  A    between atoms: N_16  and  C_17 
ROOT
HETATM    1  C   UNL     1       7.359  31.602  61.705  1.00  0.00     0.037 A 
HETATM    2  C   UNL     1       6.144  32.286  61.738  1.00  0.00     0.048 A 
HETATM    3  C   UNL     1       5.838  33.166  62.794  1.00  0.00     0.055 A 
HETATM    4  C   UNL     1       6.774  33.394  63.805  1.00  0.00     0.049 A 
HETATM    5 CL   UNL     1       6.467  34.402  65.171  1.00  0.00    -0.083 Cl
HETATM    6  C   UNL     1       8.008  32.740  63.754  1.00  0.00     0.027 A 
HETATM    7  C   UNL     1       8.298  31.850  62.712  1.00  0.00     0.031 A 
ENDROOT
BRANCH   1   8
HETATM    8  N   UNL     1       7.702  30.656  60.714  1.00  0.00    -0.309 N 
HETATM    9  C   UNL     1       8.170  30.922  59.431  1.00  0.00     0.325 C 
HETATM   10  N   UNL     1       8.372  29.748  58.730  1.00  0.00    -0.305 N 
HETATM   11  O   UNL     1       8.349  32.047  58.988  1.00  0.00    -0.247 OA
HETATM   12  H   UNL     1       8.265  28.882  59.231  1.00  0.00     0.171 HD
HETATM   13  H   UNL     1       7.467  29.696  60.916  1.00  0.00     0.170 HD
BRANCH  10  14
HETATM   14  C   UNL     1       8.754  29.617  57.401  1.00  0.00     0.086 A 
HETATM   15  C   UNL     1       7.824  29.359  56.408  1.00  0.00     0.052 A 
HETATM   16  C   UNL     1       6.354  29.179  56.427  1.00  0.00     0.072 C 
HETATM   17  N   UNL     1       8.529  29.301  55.240  1.00  0.00    -0.280 N 
HETATM   18  H   UNL     1       8.180  29.134  54.303  1.00  0.00     0.189 HD
HETATM   19  N   UNL     1       9.839  29.502  55.390  1.00  0.00    -0.177 NA
HETATM   20  C   UNL     1      10.000  29.698  56.708  1.00  0.00     0.079 A 
HETATM   21  C   UNL     1      11.377  29.956  57.201  1.00  0.00     0.075 C 
ENDBRANCH  10  14
ENDBRANCH   1   8
BRANCH   3  22
HETATM   22  C   UNL     1       4.515  33.835  62.776  1.00  0.00     0.253 C 
HETATM   23  N   UNL     1       4.517  35.104  62.226  1.00  0.00    -0.352 N 
HETATM   24  H   UNL     1       5.376  35.482  61.844  1.00  0.00     0.163 HD
HETATM   25  O   UNL     1       3.529  33.281  63.245  1.00  0.00    -0.268 OA
BRANCH  23  26
HETATM   26  C   UNL     1       3.352  35.928  62.203  1.00  0.00     0.084 A 
HETATM   27  C   UNL     1       3.451  37.392  62.533  1.00  0.00     0.027 A 
HETATM   28  C   UNL     1       3.172  36.961  61.123  1.00  0.00     0.027 A 
ENDBRANCH  23  26
ENDBRANCH   3  22
TORSDOF 4
ENDMDL
MODEL 3
REMARK VINA RESULT:      -8.8      4.655      7.504
REMARK  4 active torsions:
REMARK  status: ('A' for Active; 'I' for Inactive)
REMARK    1  A    between atoms: C_8  and  N_9 
REMARK       I    between atoms: N_9  and  C_10 
REMARK       I    between atoms: C_10  and  N_11 
REMARK    2  A    between atoms: N_11  and  C_12 
REMARK    3  A    between atoms: C_14  and  C_15 
REMARK       I    between atoms: C_15  and  N_16 
REMARK    4  A    between atoms: N_16  and  C_17 
ROOT
HETATM    1  C   UNL     1       5.503  26.080  53.998  1.00  0.00     0.037 A 
HETATM    2  C   UNL     1       6.218  24.893  54.165  1.00  0.00     0.048 A 
HETATM    3  C   UNL     1       7.000  24.675  55.315  1.00  0.00     0.055 A 
HETATM    4  C   UNL     1       7.036  25.638  56.327  1.00  0.00     0.049 A 
HETATM    5 CL   UNL     1       8.013  25.492  57.741  1.00  0.00    -0.083 Cl
HETATM    6  C   UNL     1       6.290  26.811  56.180  1.00  0.00     0.027 A 
HETATM    7  C   UNL     1       5.530  27.030  55.024  1.00  0.00     0.031 A 
ENDROOT
BRANCH   1   8
HETATM    8  N   UNL     1       4.755  26.390  52.842  1.00  0.00    -0.309 N 
HETATM    9  C   UNL     1       5.185  26.310  51.521  1.00  0.00     0.325 C 
HETATM   10  N   UNL     1       4.189  26.723  50.656  1.00  0.00    -0.305 N 
HETATM   11  O   UNL     1       6.303  25.948  51.187  1.00  0.00    -0.247 OA
HETATM   12  H   UNL     1       3.284  26.922  51.048  1.00  0.00     0.171 HD
HETATM   13  H   UNL     1       3.861  26.831  52.997  1.00  0.00     0.170 HD
BRANCH  10  14
HETATM   14  C   UNL     1       4.276  26.858  49.277  1.00  0.00     0.086 A 
HETATM   15  C   UNL     1       4.922  27.937  48.698  1.00  0.00     0.052 A 
HETATM   16  C   UNL     1       5.629  29.109  49.265  1.00  0.00     0.072 C 
HETATM   17  N   UNL     1       4.829  27.752  47.350  1.00  0.00    -0.280 N 
HETATM   18  H   UNL     1       5.191  28.341  46.608  1.00  0.00     0.189 HD
HETATM   19  N   UNL     1       4.178  26.641  47.001  1.00  0.00    -0.177 NA
HETATM   20  C   UNL     1       3.830  26.076  48.167  1.00  0.00     0.079 A 
HETATM   21  C   UNL     1       3.078  24.796  48.113  1.00  0.00     0.075 C 
ENDBRANCH  10  14
ENDBRANCH   1   8
BRANCH   3  22
HETATM   22  C   UNL     1       7.755  23.403  55.409  1.00  0.00     0.253 C 
HETATM   23  N   UNL     1       8.119  22.857  54.191  1.00  0.00    -0.352 N 
HETATM   24  H   UNL     1       7.896  23.351  53.334  1.00  0.00     0.163 HD
HETATM   25  O   UNL     1       7.995  22.898  56.498  1.00  0.00    -0.268 OA
BRANCH  23  26
HETATM   26  C   UNL     1       8.777  21.595  54.086  1.00  0.00     0.084 A 
HETATM   27  C   UNL     1       8.023  20.321  54.354  1.00  0.00     0.027 A 
HETATM   28  C   UNL     1       8.450  20.657  52.955  1.00  0.00     0.027 A 
ENDBRANCH  23  26
ENDBRANCH   3  22
TORSDOF 4
ENDMDL
MODEL 4
REMARK VINA RESULT:      -8.7      2.736      8.557
REMARK  4 active torsions:
REMARK  status: ('A' for Active; 'I' for Inactive)
REMARK    1  A    between atoms: C_8  and  N_9 
REMARK       I    between atoms: N_9  and  C_10 
REMARK       I    between atoms: C_10  and  N_11 
REMARK    2  A    between atoms: N_11  and  C_12 
REMARK    3  A    between atoms: C_14  and  C_15 
REMARK       I    between atoms: C_15  and  N_16 
REMARK    4  A    between atoms: N_16  and  C_17 
ROOT
HETATM    1  C   UNL     1       6.379  26.889  57.065  1.00  0.00     0.037 A 
HETATM    2  C   UNL     1       7.376  27.624  57.708  1.00  0.00     0.048 A 
HETATM    3  C   UNL     1       7.243  29.013  57.897  1.00  0.00     0.055 A 
HETATM    4  C   UNL     1       6.083  29.666  57.475  1.00  0.00     0.049 A 
HETATM    5 CL   UNL     1       5.855  31.371  57.603  1.00  0.00    -0.083 Cl
HETATM    6  C   UNL     1       5.066  28.927  56.865  1.00  0.00     0.027 A 
HETATM    7  C   UNL     1       5.214  27.549  56.661  1.00  0.00     0.031 A 
ENDROOT
BRANCH   1   8
HETATM    8  N   UNL     1       6.478  25.510  56.784  1.00  0.00    -0.309 N 
HETATM    9  C   UNL     1       7.214  24.916  55.763  1.00  0.00     0.325 C 
HETATM   10  N   UNL     1       7.048  23.543  55.774  1.00  0.00    -0.305 N 
HETATM   11  O   UNL     1       7.890  25.537  54.956  1.00  0.00    -0.247 OA
HETATM   12  H   UNL     1       6.530  23.143  56.538  1.00  0.00     0.171 HD
HETATM   13  H   UNL     1       5.855  24.906  57.298  1.00  0.00     0.170 HD
BRANCH  10  14
HETATM   14  C   UNL     1       7.557  22.627  54.864  1.00  0.00     0.086 A 
HETATM   15  C   UNL     1       8.041  21.397  55.276  1.00  0.00     0.052 A 
HETATM   16  C   UNL     1       8.149  20.751  56.604  1.00  0.00     0.072 C 
HETATM   17  N   UNL     1       8.447  20.754  54.142  1.00  0.00    -0.280 N 
HETATM   18  H   UNL     1       8.852  19.828  54.055  1.00  0.00     0.189 HD
HETATM   19  N   UNL     1       8.266  21.462  53.026  1.00  0.00    -0.177 NA
HETATM   20  C   UNL     1       7.720  22.614  53.445  1.00  0.00     0.079 A 
HETATM   21  C   UNL     1       7.393  23.633  52.414  1.00  0.00     0.075 C 
ENDBRANCH  10  14
ENDBRANCH   1   8
BRANCH   3  22
HETATM   22  C   UNL     1       8.357  29.731  58.562  1.00  0.00     0.253 C 
HETATM   23  N   UNL     1       8.084  30.150  59.852  1.00  0.00    -0.352 N 
HETATM   24  H   UNL     1       7.191  29.922  60.274  1.00  0.00     0.163 HD
HETATM   25  O   UNL     1       9.409  29.937  57.971  1.00  0.00    -0.268 OA
BRANCH  23  26
HETATM   26  C   UNL     1       9.007  30.928  60.613  1.00  0.00     0.084 A 
HETATM   27  C   UNL     1       8.570  31.588  61.893  1.00  0.00     0.027 A 
HETATM   28  C   UNL     1       9.518  30.425  61.936  1.00  0.00     0.027 A 
ENDBRANCH  23  26
ENDBRANCH   3  22
TORSDOF 4
ENDMDL
MODEL 5
REMARK VINA RESULT:      -8.6      4.237      8.082
REMARK  4 active torsions:
REMARK  status: ('A' for Active; 'I' for Inactive)
REMARK    1  A    between atoms: C_8  and  N_9 
REMARK       I    between atoms: N_9  and  C_10 
REMARK       I    between atoms: C_10  and  N_11 
REMARK    2  A    between atoms: N_11  and  C_12 
REMARK    3  A    between atoms: C_14  and  C_15 
REMARK       I    between atoms: C_15  and  N_16 
REMARK    4  A    between atoms: N_16  and  C_17 
ROOT
HETATM    1  C   UNL     1       7.366  24.552  52.876  1.00  0.00     0.037 A 
HETATM    2  C   UNL     1       7.581  25.193  54.097  1.00  0.00     0.048 A 
HETATM    3  C   UNL     1       7.897  24.457  55.255  1.00  0.00     0.055 A 
HETATM    4  C   UNL     1       8.040  23.070  55.182  1.00  0.00     0.049 A 
HETATM    5 CL   UNL     1       8.361  22.076  56.555  1.00  0.00    -0.083 Cl
HETATM    6  C   UNL     1       7.863  22.428  53.953  1.00  0.00     0.027 A 
HETATM    7  C   UNL     1       7.528  23.164  52.809  1.00  0.00     0.031 A 
ENDROOT
BRANCH   1   8
HETATM    8  N   UNL     1       6.981  25.220  51.694  1.00  0.00    -0.309 N 
HETATM    9  C   UNL     1       5.749  25.811  51.432  1.00  0.00     0.325 C 
HETATM   10  N   UNL     1       5.723  26.346  50.158  1.00  0.00    -0.305 N 
HETATM   11  O   UNL     1       4.815  25.825  52.220  1.00  0.00    -0.247 OA
HETATM   12  H   UNL     1       6.582  26.342  49.634  1.00  0.00     0.171 HD
HETATM   13  H   UNL     1       7.622  25.156  50.919  1.00  0.00     0.170 HD
BRANCH  10  14
HETATM   14  C   UNL     1       4.644  26.940  49.516  1.00  0.00     0.086 A 
HETATM   15  C   UNL     1       4.425  28.305  49.591  1.00  0.00     0.052 A 
HETATM   16  C   UNL     1       5.154  29.406  50.261  1.00  0.00     0.072 C 
HETATM   17  N   UNL     1       3.305  28.546  48.850  1.00  0.00    -0.280 N 
HETATM   18  H   UNL     1       2.847  29.434  48.674  1.00  0.00     0.189 HD
HETATM   19  N   UNL     1       2.777  27.453  48.297  1.00  0.00    -0.177 NA
HETATM   20  C   UNL     1       3.583  26.455  48.692  1.00  0.00     0.079 A 
HETATM   21  C   UNL     1       3.255  25.083  48.228  1.00  0.00     0.075 C 
ENDBRANCH  10  14
ENDBRANCH   1   8
BRANCH   3  22
HETATM   22  C   UNL     1       8.082  25.205  56.522  1.00  0.00     0.253 C 
HETATM   23  N   UNL     1       7.429  26.423  56.573  1.00  0.00    -0.352 N 
HETATM   24  H   UNL     1       6.851  26.715  55.794  1.00  0.00     0.163 HD
HETATM   25  O   UNL     1       8.786  24.753  57.416  1.00  0.00    -0.268 OA
BRANCH  23  26
HETATM   26  C   UNL     1       7.562  27.314  57.680  1.00  0.00     0.084 A 
HETATM   27  C   UNL     1       8.411  28.550  57.562  1.00  0.00     0.027 A 
HETATM   28  C   UNL     1       6.917  28.674  57.645  1.00  0.00     0.027 A 
ENDBRANCH  23  26
ENDBRANCH   3  22
TORSDOF 4
ENDMDL
MODEL 6
REMARK VINA RESULT:      -8.2      5.716     10.673
REMARK  4 active torsions:
REMARK  status: ('A' for Active; 'I' for Inactive)
REMARK    1  A    between atoms: C_8  and  N_9 
REMARK       I    between atoms: N_9  and  C_10 
REMARK       I    between atoms: C_10  and  N_11 
REMARK    2  A    between atoms: N_11  and  C_12 
REMARK    3  A    between atoms: C_14  and  C_15 
REMARK       I    between atoms: C_15  and  N_16 
REMARK    4  A    between atoms: N_16  and  C_17 
ROOT
HETATM    1  C   UNL     1       7.269  31.709  62.011  1.00  0.00     0.037 A 
HETATM    2  C   UNL     1       6.014  32.318  61.980  1.00  0.00     0.048 A 
HETATM    3  C   UNL     1       5.625  33.226  62.983  1.00  0.00     0.055 A 
HETATM    4  C   UNL     1       6.517  33.560  64.004  1.00  0.00     0.049 A 
HETATM    5 CL   UNL     1       6.111  34.611  65.311  1.00  0.00    -0.083 Cl
HETATM    6  C   UNL     1       7.789  32.982  64.017  1.00  0.00     0.027 A 
HETATM    7  C   UNL     1       8.162  32.063  63.028  1.00  0.00     0.031 A 
ENDROOT
BRANCH   1   8
HETATM    8  N   UNL     1       7.697  30.741  61.077  1.00  0.00    -0.309 N 
HETATM    9  C   UNL     1       7.860  30.916  59.706  1.00  0.00     0.325 C 
HETATM   10  N   UNL     1       8.263  29.738  59.106  1.00  0.00    -0.305 N 
HETATM   11  O   UNL     1       7.645  31.967  59.121  1.00  0.00    -0.247 OA
HETATM   12  H   UNL     1       8.483  28.961  59.706  1.00  0.00     0.171 HD
HETATM   13  H   UNL     1       7.773  29.796  61.421  1.00  0.00     0.170 HD
BRANCH  10  14
HETATM   14  C   UNL     1       8.447  29.505  57.750  1.00  0.00     0.086 A 
HETATM   15  C   UNL     1       9.624  29.859  57.112  1.00  0.00     0.052 A 
HETATM   16  C   UNL     1      10.877  30.490  57.588  1.00  0.00     0.072 C 
HETATM   17  N   UNL     1       9.473  29.484  55.809  1.00  0.00    -0.280 N 
HETATM   18  H   UNL     1      10.133  29.582  55.046  1.00  0.00     0.189 HD
HETATM   19  N   UNL     1       8.296  28.913  55.544  1.00  0.00    -0.177 NA
HETATM   20  C   UNL     1       7.651  28.915  56.721  1.00  0.00     0.079 A 
HETATM   21  C   UNL     1       6.285  28.332  56.756  1.00  0.00     0.075 C 
ENDBRANCH  10  14
ENDBRANCH   1   8
BRANCH   3  22
HETATM   22  C   UNL     1       4.265  33.810  62.899  1.00  0.00     0.253 C 
HETATM   23  N   UNL     1       4.100  34.748  61.897  1.00  0.00    -0.352 N 
HETATM   24  H   UNL     1       4.872  34.954  61.272  1.00  0.00     0.163 HD
HETATM   25  O   UNL     1       3.393  33.476  63.691  1.00  0.00    -0.268 OA
BRANCH  23  26
HETATM   26  C   UNL     1       2.884  35.474  61.722  1.00  0.00     0.084 A 
HETATM   27  C   UNL     1       2.800  36.584  60.712  1.00  0.00     0.027 A 
HETATM   28  C   UNL     1       2.065  35.298  60.472  1.00  0.00     0.027 A 
ENDBRANCH  23  26
ENDBRANCH   3  22
TORSDOF 4
ENDMDL
MODEL 7
REMARK VINA RESULT:      -8.2      4.723      7.386
REMARK  4 active torsions:
REMARK  status: ('A' for Active; 'I' for Inactive)
REMARK    1  A    between atoms: C_8  and  N_9 
REMARK       I    between atoms: N_9  and  C_10 
REMARK       I    between atoms: C_10  and  N_11 
REMARK    2  A    between atoms: N_11  and  C_12 
REMARK    3  A    between atoms: C_14  and  C_15 
REMARK       I    between atoms: C_15  and  N_16 
REMARK    4  A    between atoms: N_16  and  C_17 
ROOT
HETATM    1  C   UNL     1       5.423  26.043  53.779  1.00  0.00     0.037 A 
HETATM    2  C   UNL     1       6.107  24.842  53.975  1.00  0.00     0.048 A 
HETATM    3  C   UNL     1       6.950  24.663  55.087  1.00  0.00     0.055 A 
HETATM    4  C   UNL     1       7.080  25.681  56.035  1.00  0.00     0.049 A 
HETATM    5 CL   UNL     1       8.136  25.581  57.395  1.00  0.00    -0.083 Cl
HETATM    6  C   UNL     1       6.367  26.870  55.862  1.00  0.00     0.027 A 
HETATM    7  C   UNL     1       5.545  27.050  54.742  1.00  0.00     0.031 A 
ENDROOT
BRANCH   1   8
HETATM    8  N   UNL     1       4.616  26.313  52.652  1.00  0.00    -0.309 N 
HETATM    9  C   UNL     1       5.035  26.824  51.428  1.00  0.00     0.325 C 
HETATM   10  N   UNL     1       3.962  26.986  50.571  1.00  0.00    -0.305 N 
HETATM   11  O   UNL     1       6.194  27.113  51.167  1.00  0.00    -0.247 OA
HETATM   12  H   UNL     1       3.068  26.638  50.874  1.00  0.00     0.171 HD
HETATM   13  H   UNL     1       3.620  26.243  52.793  1.00  0.00     0.170 HD
BRANCH  10  14
HETATM   14  C   UNL     1       3.976  27.544  49.300  1.00  0.00     0.086 A 
HETATM   15  C   UNL     1       3.623  26.802  48.185  1.00  0.00     0.052 A 
HETATM   16  C   UNL     1       3.175  25.402  48.008  1.00  0.00     0.072 C 
HETATM   17  N   UNL     1       3.737  27.648  47.120  1.00  0.00    -0.280 N 
HETATM   18  H   UNL     1       3.556  27.454  46.142  1.00  0.00     0.189 HD
HETATM   19  N   UNL     1       4.133  28.879  47.448  1.00  0.00    -0.177 NA
HETATM   20  C   UNL     1       4.285  28.838  48.781  1.00  0.00     0.079 A 
HETATM   21  C   UNL     1       4.726  30.084  49.460  1.00  0.00     0.075 C 
ENDBRANCH  10  14
ENDBRANCH   1   8
BRANCH   3  22
HETATM   22  C   UNL     1       7.666  23.371  55.213  1.00  0.00     0.253 C 
HETATM   23  N   UNL     1       8.194  22.886  54.030  1.00  0.00    -0.352 N 
HETATM   24  H   UNL     1       8.103  23.432  53.180  1.00  0.00     0.163 HD
HETATM   25  O   UNL     1       7.739  22.800  56.293  1.00  0.00    -0.268 OA
BRANCH  23  26
HETATM   26  C   UNL     1       8.842  21.618  53.946  1.00  0.00     0.084 A 
HETATM   27  C   UNL     1       8.090  20.357  54.274  1.00  0.00     0.027 A 
HETATM   28  C   UNL     1       8.479  20.648  52.854  1.00  0.00     0.027 A 
ENDBRANCH  23  26
ENDBRANCH   3  22
TORSDOF 4
ENDMDL
MODEL 8
REMARK VINA RESULT:      -8.1      4.760      7.668
REMARK  4 active torsions:
REMARK  status: ('A' for Active; 'I' for Inactive)
REMARK    1  A    between atoms: C_8  and  N_9 
REMARK       I    between atoms: N_9  and  C_10 
REMARK       I    between atoms: C_10  and  N_11 
REMARK    2  A    between atoms: N_11  and  C_12 
REMARK    3  A    between atoms: C_14  and  C_15 
REMARK       I    between atoms: C_15  and  N_16 
REMARK    4  A    between atoms: N_16  and  C_17 
ROOT
HETATM    1  C   UNL     1       6.481  26.642  52.829  1.00  0.00     0.037 A 
HETATM    2  C   UNL     1       6.005  26.793  51.526  1.00  0.00     0.048 A 
HETATM    3  C   UNL     1       5.028  27.759  51.221  1.00  0.00     0.055 A 
HETATM    4  C   UNL     1       4.552  28.610  52.221  1.00  0.00     0.049 A 
HETATM    5 CL   UNL     1       3.311  29.780  51.961  1.00  0.00    -0.083 Cl
HETATM    6  C   UNL     1       5.055  28.486  53.520  1.00  0.00     0.027 A 
HETATM    7  C   UNL     1       6.012  27.509  53.821  1.00  0.00     0.031 A 
ENDROOT
BRANCH   1   8
HETATM    8  N   UNL     1       7.408  25.650  53.216  1.00  0.00    -0.309 N 
HETATM    9  C   UNL     1       7.122  24.424  53.808  1.00  0.00     0.325 C 
HETATM   10  N   UNL     1       8.285  23.725  54.075  1.00  0.00    -0.305 N 
HETATM   11  O   UNL     1       5.993  24.040  54.076  1.00  0.00    -0.247 OA
HETATM   12  H   UNL     1       9.149  24.113  53.735  1.00  0.00     0.171 HD
HETATM   13  H   UNL     1       8.382  25.911  53.170  1.00  0.00     0.170 HD
BRANCH  10  14
HETATM   14  C   UNL     1       8.403  22.508  54.732  1.00  0.00     0.086 A 
HETATM   15  C   UNL     1       8.506  22.441  56.111  1.00  0.00     0.052 A 
HETATM   16  C   UNL     1       8.512  23.475  57.171  1.00  0.00     0.072 C 
HETATM   17  N   UNL     1       8.596  21.114  56.417  1.00  0.00    -0.280 N 
HETATM   18  H   UNL     1       8.681  20.685  57.332  1.00  0.00     0.189 HD
HETATM   19  N   UNL     1       8.558  20.311  55.353  1.00  0.00    -0.177 NA
HETATM   20  C   UNL     1       8.440  21.144  54.308  1.00  0.00     0.079 A 
HETATM   21  C   UNL     1       8.368  20.540  52.952  1.00  0.00     0.075 C 
ENDBRANCH  10  14
ENDBRANCH   1   8
BRANCH   3  22
HETATM   22  C   UNL     1       4.548  27.842  49.820  1.00  0.00     0.253 C 
HETATM   23  N   UNL     1       3.921  26.699  49.357  1.00  0.00    -0.352 N 
HETATM   24  H   UNL     1       3.791  25.912  49.981  1.00  0.00     0.163 HD
HETATM   25  O   UNL     1       4.736  28.852  49.155  1.00  0.00    -0.268 OA
BRANCH  23  26
HETATM   26  C   UNL     1       3.471  26.569  48.009  1.00  0.00     0.084 A 
HETATM   27  C   UNL     1       2.969  25.245  47.501  1.00  0.00     0.027 A 
HETATM   28  C   UNL     1       2.008  26.379  47.710  1.00  0.00     0.027 A 
ENDBRANCH  23  26
ENDBRANCH   3  22
TORSDOF 4
ENDMDL
MODEL 9
REMARK VINA RESULT:      -8.1      4.616      8.431
REMARK  4 active torsions:
REMARK  status: ('A' for Active; 'I' for Inactive)
REMARK    1  A    between atoms: C_8  and  N_9 
REMARK       I    between atoms: N_9  and  C_10 
REMARK       I    between atoms: C_10  and  N_11 
REMARK    2  A    between atoms: N_11  and  C_12 
REMARK    3  A    between atoms: C_14  and  C_15 
REMARK       I    between atoms: C_15  and  N_16 
REMARK    4  A    between atoms: N_16  and  C_17 
ROOT
HETATM    1  C   UNL     1       5.978  24.912  52.876  1.00  0.00     0.037 A 
HETATM    2  C   UNL     1       5.957  25.532  54.125  1.00  0.00     0.048 A 
HETATM    3  C   UNL     1       6.871  25.165  55.131  1.00  0.00     0.055 A 
HETATM    4  C   UNL     1       7.842  24.196  54.870  1.00  0.00     0.049 A 
HETATM    5 CL   UNL     1       8.963  23.634  56.055  1.00  0.00    -0.083 Cl
HETATM    6  C   UNL     1       7.891  23.600  53.607  1.00  0.00     0.027 A 
HETATM    7  C   UNL     1       6.966  23.955  52.618  1.00  0.00     0.031 A 
ENDROOT
BRANCH   1   8
HETATM    8  N   UNL     1       5.050  25.183  51.847  1.00  0.00    -0.309 N 
HETATM    9  C   UNL     1       5.116  26.210  50.911  1.00  0.00     0.325 C 
HETATM   10  N   UNL     1       4.015  26.184  50.076  1.00  0.00    -0.305 N 
HETATM   11  O   UNL     1       6.018  27.033  50.861  1.00  0.00    -0.247 OA
HETATM   12  H   UNL     1       3.380  25.408  50.166  1.00  0.00     0.171 HD
HETATM   13  H   UNL     1       4.192  24.653  51.872  1.00  0.00     0.170 HD
BRANCH  10  14
HETATM   14  C   UNL     1       3.693  27.095  49.078  1.00  0.00     0.086 A 
HETATM   15  C   UNL     1       3.275  26.673  47.828  1.00  0.00     0.052 A 
HETATM   16  C   UNL     1       3.057  25.332  47.238  1.00  0.00     0.072 C 
HETATM   17  N   UNL     1       3.038  27.809  47.109  1.00  0.00    -0.280 N 
HETATM   18  H   UNL     1       2.715  27.890  46.151  1.00  0.00     0.189 HD
HETATM   19  N   UNL     1       3.264  28.934  47.787  1.00  0.00    -0.177 NA
HETATM   20  C   UNL     1       3.666  28.520  48.999  1.00  0.00     0.079 A 
HETATM   21  C   UNL     1       3.998  29.562  50.005  1.00  0.00     0.075 C 
ENDBRANCH  10  14
ENDBRANCH   1   8
BRANCH   3  22
HETATM   22  C   UNL     1       6.768  25.848  56.443  1.00  0.00     0.253 C 
HETATM   23  N   UNL     1       7.367  27.094  56.494  1.00  0.00    -0.352 N 
HETATM   24  H   UNL     1       7.793  27.478  55.659  1.00  0.00     0.163 HD
HETATM   25  O   UNL     1       6.209  25.304  57.387  1.00  0.00    -0.268 OA
BRANCH  23  26
HETATM   26  C   UNL     1       7.439  27.857  57.697  1.00  0.00     0.084 A 
HETATM   27  C   UNL     1       8.400  29.009  57.809  1.00  0.00     0.027 A 
HETATM   28  C   UNL     1       6.924  29.272  57.733  1.00  0.00     0.027 A 
ENDBRANCH  23  26
ENDBRANCH   3  22
TORSDOF 4
ENDMDL
MODEL 10
REMARK VINA RESULT:      -8.0      4.714      8.294
REMARK  4 active torsions:
REMARK  status: ('A' for Active; 'I' for Inactive)
REMARK    1  A    between atoms: C_8  and  N_9 
REMARK       I    between atoms: N_9  and  C_10 
REMARK       I    between atoms: C_10  and  N_11 
REMARK    2  A    between atoms: N_11  and  C_12 
REMARK    3  A    between atoms: C_14  and  C_15 
REMARK       I    between atoms: C_15  and  N_16 
REMARK    4  A    between atoms: N_16  and  C_17 
ROOT
HETATM    1  C   UNL     1       5.619  25.191  52.813  1.00  0.00     0.037 A 
HETATM    2  C   UNL     1       5.693  25.776  54.078  1.00  0.00     0.048 A 
HETATM    3  C   UNL     1       6.531  25.242  55.075  1.00  0.00     0.055 A 
HETATM    4  C   UNL     1       7.334  24.135  54.790  1.00  0.00     0.049 A 
HETATM    5 CL   UNL     1       8.343  23.369  55.962  1.00  0.00    -0.083 Cl
HETATM    6  C   UNL     1       7.291  23.570  53.513  1.00  0.00     0.027 A 
HETATM    7  C   UNL     1       6.440  24.094  52.532  1.00  0.00     0.031 A 
ENDROOT
BRANCH   1   8
HETATM    8  N   UNL     1       4.752  25.635  51.792  1.00  0.00    -0.309 N 
HETATM    9  C   UNL     1       4.932  26.737  50.962  1.00  0.00     0.325 C 
HETATM   10  N   UNL     1       3.862  26.882  50.099  1.00  0.00    -0.305 N 
HETATM   11  O   UNL     1       5.898  27.484  51.017  1.00  0.00    -0.247 OA
HETATM   12  H   UNL     1       3.165  26.156  50.097  1.00  0.00     0.171 HD
HETATM   13  H   UNL     1       3.854  25.178  51.742  1.00  0.00     0.170 HD
BRANCH  10  14
HETATM   14  C   UNL     1       3.649  27.906  49.187  1.00  0.00     0.086 A 
HETATM   15  C   UNL     1       2.609  28.806  49.345  1.00  0.00     0.052 A 
HETATM   16  C   UNL     1       1.558  28.958  50.378  1.00  0.00     0.072 C 
HETATM   17  N   UNL     1       2.696  29.670  48.293  1.00  0.00    -0.280 N 
HETATM   18  H   UNL     1       2.103  30.465  48.081  1.00  0.00     0.189 HD
HETATM   19  N   UNL     1       3.708  29.410  47.463  1.00  0.00    -0.177 NA
HETATM   20  C   UNL     1       4.306  28.332  47.992  1.00  0.00     0.079 A 
HETATM   21  C   UNL     1       5.494  27.789  47.283  1.00  0.00     0.075 C 
ENDBRANCH  10  14
ENDBRANCH   1   8
BRANCH   3  22
HETATM   22  C   UNL     1       6.534  25.899  56.404  1.00  0.00     0.253 C 
HETATM   23  N   UNL     1       7.243  27.086  56.458  1.00  0.00    -0.352 N 
HETATM   24  H   UNL     1       7.672  27.452  55.616  1.00  0.00     0.163 HD
HETATM   25  O   UNL     1       5.963  25.385  57.356  1.00  0.00    -0.268 OA
BRANCH  23  26
HETATM   26  C   UNL     1       7.423  27.812  57.673  1.00  0.00     0.084 A 
HETATM   27  C   UNL     1       8.440  28.917  57.754  1.00  0.00     0.027 A 
HETATM   28  C   UNL     1       6.976  29.246  57.777  1.00  0.00     0.027 A 
ENDBRANCH  23  26
ENDBRANCH   3  22
TORSDOF 4
ENDMDL
