MODEL 1
REMARK VINA RESULT:      -8.9      0.000      0.000
REMARK  5 active torsions:
REMARK  status: ('A' for Active; 'I' for Inactive)
REMARK    1  A    between atoms: C_2  and  O_3 
REMARK    2  A    between atoms: O_3  and  C_4 
REMARK    3  A    between atoms: C_7  and  C_8 
REMARK       I    between atoms: C_8  and  N_9 
REMARK    4  A    between atoms: N_9  and  N_10 
REMARK    5  A    between atoms: C_11  and  C_12 
ROOT
HETATM    1  C   UNL     1       8.917  29.234  56.513  1.00  0.00     0.271 C 
HETATM    2  N   UNL     1       8.087  28.120  56.555  1.00  0.00    -0.243 N 
HETATM    3  O   UNL     1       9.565  29.609  55.540  1.00  0.00    -0.266 OA
HETATM    4  H   UNL     1       7.386  28.063  57.286  1.00  0.00     0.192 HD
ENDROOT
BRANCH   2   5
HETATM    5  N   UNL     1       7.849  27.242  55.524  1.00  0.00    -0.183 NA
HETATM    6  C   UNL     1       7.358  26.074  55.792  1.00  0.00     0.153 C 
BRANCH   6   7
HETATM    7  C   UNL     1       7.127  25.113  54.725  1.00  0.00     0.018 A 
HETATM    8  C   UNL     1       7.839  23.880  54.549  1.00  0.00     0.004 A 
HETATM    9  C   UNL     1       7.316  23.248  53.422  1.00  0.00     0.043 A 
HETATM   10  C   UNL     1       8.892  23.243  55.243  1.00  0.00     0.014 A 
HETATM   11  C   UNL     1       7.783  22.013  52.955  1.00  0.00     0.030 A 
HETATM   12  N   UNL     1       6.326  24.063  52.929  1.00  0.00    -0.358 N 
HETATM   13  C   UNL     1       8.824  21.405  53.662  1.00  0.00     0.002 A 
HETATM   14  C   UNL     1       9.373  22.009  54.790  1.00  0.00     0.001 A 
HETATM   15  H   UNL     1       5.774  23.852  52.110  1.00  0.00     0.166 HD
HETATM   16  C   UNL     1       6.193  25.192  53.700  1.00  0.00     0.018 A 
HETATM   17  C   UNL     1       5.178  26.228  53.376  1.00  0.00     0.069 C 
ENDBRANCH   6   7
ENDBRANCH   2   5
BRANCH   1  18
HETATM   18  C   UNL     1       8.984  30.040  57.769  1.00  0.00     0.033 A 
HETATM   19  C   UNL     1       8.118  29.833  58.849  1.00  0.00     0.020 A 
HETATM   20  C   UNL     1       8.262  30.591  60.015  1.00  0.00     0.038 A 
HETATM   21  C   UNL     1       9.279  31.543  60.130  1.00  0.00     0.068 A 
HETATM   22  C   UNL     1      10.139  31.756  59.054  1.00  0.00     0.038 A 
HETATM   23  C   UNL     1       9.994  31.006  57.882  1.00  0.00     0.020 A 
BRANCH  21  24
HETATM   24  O   UNL     1       9.324  32.194  61.330  1.00  0.00    -0.352 OA
BRANCH  24  25
HETATM   25  C   UNL     1       8.649  31.567  62.422  1.00  0.00     0.171 C 
HETATM   26  C   UNL     1       7.939  32.648  63.217  1.00  0.00     0.034 C 
ENDBRANCH  24  25
ENDBRANCH  21  24
ENDBRANCH   1  18
TORSDOF 5
ENDMDL
MODEL 2
REMARK VINA RESULT:      -8.9      2.044      3.114
REMARK  5 active torsions:
REMARK  status: ('A' for Active; 'I' for Inactive)
REMARK    1  A    between atoms: C_2  and  O_3 
REMARK    2  A    between atoms: O_3  and  C_4 
REMARK    3  A    between atoms: C_7  and  C_8 
REMARK       I    between atoms: C_8  and  N_9 
REMARK    4  A    between atoms: N_9  and  N_10 
REMARK    5  A    between atoms: C_11  and  C_12 
ROOT
HETATM    1  C   UNL     1       7.999  27.538  56.612  1.00  0.00     0.271 C 
HETATM    2  N   UNL     1       8.068  26.369  57.361  1.00  0.00    -0.243 N 
HETATM    3  O   UNL     1       7.685  27.612  55.428  1.00  0.00    -0.266 OA
HETATM    4  H   UNL     1       8.047  26.438  58.373  1.00  0.00     0.192 HD
ENDROOT
BRANCH   2   5
HETATM    5  N   UNL     1       7.806  25.096  56.913  1.00  0.00    -0.183 NA
HETATM    6  C   UNL     1       8.714  24.182  57.048  1.00  0.00     0.153 C 
BRANCH   6   7
HETATM    7  C   UNL     1       8.477  22.835  56.553  1.00  0.00     0.018 A 
HETATM    8  C   UNL     1       8.283  22.477  55.177  1.00  0.00     0.004 A 
HETATM    9  C   UNL     1       8.095  21.098  55.123  1.00  0.00     0.043 A 
HETATM   10  C   UNL     1       8.242  23.205  53.966  1.00  0.00     0.014 A 
HETATM   11  C   UNL     1       7.874  20.405  53.925  1.00  0.00     0.030 A 
HETATM   12  N   UNL     1       8.169  20.631  56.413  1.00  0.00    -0.358 N 
HETATM   13  C   UNL     1       7.840  21.150  52.743  1.00  0.00     0.002 A 
HETATM   14  C   UNL     1       8.021  22.530  52.761  1.00  0.00     0.001 A 
HETATM   15  H   UNL     1       8.066  19.660  56.672  1.00  0.00     0.166 HD
HETATM   16  C   UNL     1       8.400  21.661  57.291  1.00  0.00     0.018 A 
HETATM   17  C   UNL     1       8.530  21.411  58.751  1.00  0.00     0.069 C 
ENDBRANCH   6   7
ENDBRANCH   2   5
BRANCH   1  18
HETATM   18  C   UNL     1       8.313  28.800  57.348  1.00  0.00     0.033 A 
HETATM   19  C   UNL     1       9.599  29.349  57.392  1.00  0.00     0.020 A 
HETATM   20  C   UNL     1       9.819  30.557  58.061  1.00  0.00     0.038 A 
HETATM   21  C   UNL     1       8.764  31.243  58.669  1.00  0.00     0.068 A 
HETATM   22  C   UNL     1       7.483  30.694  58.632  1.00  0.00     0.038 A 
HETATM   23  C   UNL     1       7.259  29.482  57.971  1.00  0.00     0.020 A 
BRANCH  21  24
HETATM   24  O   UNL     1       9.111  32.423  59.264  1.00  0.00    -0.352 OA
BRANCH  24  25
HETATM   25  C   UNL     1       8.656  32.619  60.604  1.00  0.00     0.171 C 
HETATM   26  C   UNL     1       9.585  31.857  61.531  1.00  0.00     0.034 C 
ENDBRANCH  24  25
ENDBRANCH  21  24
ENDBRANCH   1  18
TORSDOF 5
ENDMDL
MODEL 3
REMARK VINA RESULT:      -8.9      2.210      2.660
REMARK  5 active torsions:
REMARK  status: ('A' for Active; 'I' for Inactive)
REMARK    1  A    between atoms: C_2  and  O_3 
REMARK    2  A    between atoms: O_3  and  C_4 
REMARK    3  A    between atoms: C_7  and  C_8 
REMARK       I    between atoms: C_8  and  N_9 
REMARK    4  A    between atoms: N_9  and  N_10 
REMARK    5  A    between atoms: C_11  and  C_12 
ROOT
HETATM    1  C   UNL     1       7.295  27.317  57.406  1.00  0.00     0.271 C 
HETATM    2  N   UNL     1       6.699  26.891  56.224  1.00  0.00    -0.243 N 
HETATM    3  O   UNL     1       7.978  26.624  58.154  1.00  0.00    -0.266 OA
HETATM    4  H   UNL     1       6.413  27.588  55.545  1.00  0.00     0.192 HD
ENDROOT
BRANCH   2   5
HETATM    5  N   UNL     1       6.763  25.626  55.690  1.00  0.00    -0.183 NA
HETATM    6  C   UNL     1       7.773  25.307  54.945  1.00  0.00     0.153 C 
BRANCH   6   7
HETATM    7  C   UNL     1       7.850  23.987  54.340  1.00  0.00     0.018 A 
HETATM    8  C   UNL     1       8.046  22.756  55.053  1.00  0.00     0.004 A 
HETATM    9  C   UNL     1       8.054  21.724  54.117  1.00  0.00     0.043 A 
HETATM   10  C   UNL     1       8.226  22.425  56.414  1.00  0.00     0.014 A 
HETATM   11  C   UNL     1       8.226  20.379  54.468  1.00  0.00     0.030 A 
HETATM   12  N   UNL     1       7.873  22.299  52.883  1.00  0.00    -0.358 N 
HETATM   13  C   UNL     1       8.400  20.080  55.822  1.00  0.00     0.002 A 
HETATM   14  C   UNL     1       8.401  21.086  56.783  1.00  0.00     0.001 A 
HETATM   15  H   UNL     1       7.838  21.782  52.015  1.00  0.00     0.166 HD
HETATM   16  C   UNL     1       7.745  23.662  52.994  1.00  0.00     0.018 A 
HETATM   17  C   UNL     1       7.530  24.513  51.794  1.00  0.00     0.069 C 
ENDBRANCH   6   7
ENDBRANCH   2   5
BRANCH   1  18
HETATM   18  C   UNL     1       7.089  28.755  57.754  1.00  0.00     0.033 A 
HETATM   19  C   UNL     1       5.919  29.452  57.432  1.00  0.00     0.020 A 
HETATM   20  C   UNL     1       5.770  30.785  57.825  1.00  0.00     0.038 A 
HETATM   21  C   UNL     1       6.767  31.432  58.561  1.00  0.00     0.068 A 
HETATM   22  C   UNL     1       7.936  30.742  58.877  1.00  0.00     0.038 A 
HETATM   23  C   UNL     1       8.094  29.410  58.479  1.00  0.00     0.020 A 
BRANCH  21  24
HETATM   24  O   UNL     1       6.484  32.723  58.904  1.00  0.00    -0.352 OA
BRANCH  24  25
HETATM   25  C   UNL     1       5.361  32.923  59.764  1.00  0.00     0.171 C 
HETATM   26  C   UNL     1       5.830  32.742  61.197  1.00  0.00     0.034 C 
ENDBRANCH  24  25
ENDBRANCH  21  24
ENDBRANCH   1  18
TORSDOF 5
ENDMDL
MODEL 4
REMARK VINA RESULT:      -8.6      5.142      9.381
REMARK  5 active torsions:
REMARK  status: ('A' for Active; 'I' for Inactive)
REMARK    1  A    between atoms: C_2  and  O_3 
REMARK    2  A    between atoms: O_3  and  C_4 
REMARK    3  A    between atoms: C_7  and  C_8 
REMARK       I    between atoms: C_8  and  N_9 
REMARK    4  A    between atoms: N_9  and  N_10 
REMARK    5  A    between atoms: C_11  and  C_12 
ROOT
HETATM    1  C   UNL     1       5.422  27.093  50.976  1.00  0.00     0.271 C 
HETATM    2  N   UNL     1       5.927  25.798  50.999  1.00  0.00    -0.243 N 
HETATM    3  O   UNL     1       5.684  27.979  51.784  1.00  0.00    -0.266 OA
HETATM    4  H   UNL     1       5.888  25.245  50.149  1.00  0.00     0.192 HD
ENDROOT
BRANCH   2   5
HETATM    5  N   UNL     1       6.797  25.279  51.928  1.00  0.00    -0.183 NA
HETATM    6  C   UNL     1       6.336  24.510  52.862  1.00  0.00     0.153 C 
BRANCH   6   7
HETATM    7  C   UNL     1       7.229  23.972  53.877  1.00  0.00     0.018 A 
HETATM    8  C   UNL     1       7.775  22.645  53.885  1.00  0.00     0.004 A 
HETATM    9  C   UNL     1       8.582  22.528  55.015  1.00  0.00     0.043 A 
HETATM   10  C   UNL     1       7.650  21.524  53.034  1.00  0.00     0.014 A 
HETATM   11  C   UNL     1       9.275  21.355  55.338  1.00  0.00     0.030 A 
HETATM   12  N   UNL     1       8.530  23.734  55.672  1.00  0.00    -0.358 N 
HETATM   13  C   UNL     1       9.135  20.262  54.478  1.00  0.00     0.002 A 
HETATM   14  C   UNL     1       8.334  20.342  53.342  1.00  0.00     0.001 A 
HETATM   15  H   UNL     1       9.023  23.933  56.530  1.00  0.00     0.166 HD
HETATM   16  C   UNL     1       7.722  24.620  55.002  1.00  0.00     0.018 A 
HETATM   17  C   UNL     1       7.510  26.000  55.511  1.00  0.00     0.069 C 
ENDBRANCH   6   7
ENDBRANCH   2   5
BRANCH   1  18
HETATM   18  C   UNL     1       4.505  27.412  49.840  1.00  0.00     0.033 A 
HETATM   19  C   UNL     1       4.514  26.696  48.638  1.00  0.00     0.020 A 
HETATM   20  C   UNL     1       3.599  27.016  47.629  1.00  0.00     0.038 A 
HETATM   21  C   UNL     1       2.654  28.029  47.813  1.00  0.00     0.068 A 
HETATM   22  C   UNL     1       2.648  28.748  49.007  1.00  0.00     0.038 A 
HETATM   23  C   UNL     1       3.566  28.438  50.016  1.00  0.00     0.020 A 
BRANCH  21  24
HETATM   24  O   UNL     1       1.804  28.221  46.760  1.00  0.00    -0.352 OA
BRANCH  24  25
HETATM   25  C   UNL     1       0.821  27.208  46.543  1.00  0.00     0.171 C 
HETATM   26  C   UNL     1      -0.347  27.839  45.806  1.00  0.00     0.034 C 
ENDBRANCH  24  25
ENDBRANCH  21  24
ENDBRANCH   1  18
TORSDOF 5
ENDMDL
MODEL 5
REMARK VINA RESULT:      -8.5      2.657      9.367
REMARK  5 active torsions:
REMARK  status: ('A' for Active; 'I' for Inactive)
REMARK    1  A    between atoms: C_2  and  O_3 
REMARK    2  A    between atoms: O_3  and  C_4 
REMARK    3  A    between atoms: C_7  and  C_8 
REMARK       I    between atoms: C_8  and  N_9 
REMARK    4  A    between atoms: N_9  and  N_10 
REMARK    5  A    between atoms: C_11  and  C_12 
ROOT
HETATM    1  C   UNL     1       7.437  26.439  57.104  1.00  0.00     0.271 C 
HETATM    2  N   UNL     1       6.719  27.577  56.755  1.00  0.00    -0.243 N 
HETATM    3  O   UNL     1       7.937  26.216  58.203  1.00  0.00    -0.266 OA
HETATM    4  H   UNL     1       6.112  27.539  55.943  1.00  0.00     0.192 HD
ENDROOT
BRANCH   2   5
HETATM    5  N   UNL     1       6.448  28.651  57.568  1.00  0.00    -0.183 NA
HETATM    6  C   UNL     1       7.294  29.629  57.623  1.00  0.00     0.153 C 
BRANCH   6   7
HETATM    7  C   UNL     1       7.048  30.764  58.499  1.00  0.00     0.018 A 
HETATM    8  C   UNL     1       7.766  31.051  59.709  1.00  0.00     0.004 A 
HETATM    9  C   UNL     1       7.234  32.221  60.247  1.00  0.00     0.043 A 
HETATM   10  C   UNL     1       8.819  30.415  60.404  1.00  0.00     0.014 A 
HETATM   11  C   UNL     1       7.701  32.793  61.437  1.00  0.00     0.030 A 
HETATM   12  N   UNL     1       6.232  32.632  59.402  1.00  0.00    -0.358 N 
HETATM   13  C   UNL     1       8.745  32.144  62.102  1.00  0.00     0.002 A 
HETATM   14  C   UNL     1       9.297  30.971  61.595  1.00  0.00     0.001 A 
HETATM   15  H   UNL     1       5.670  33.459  59.549  1.00  0.00     0.166 HD
HETATM   16  C   UNL     1       6.104  31.770  58.341  1.00  0.00     0.018 A 
HETATM   17  C   UNL     1       5.089  32.004  57.280  1.00  0.00     0.069 C 
ENDBRANCH   6   7
ENDBRANCH   2   5
BRANCH   1  18
HETATM   18  C   UNL     1       7.572  25.403  56.036  1.00  0.00     0.033 A 
HETATM   19  C   UNL     1       7.810  24.053  56.317  1.00  0.00     0.020 A 
HETATM   20  C   UNL     1       7.882  23.126  55.272  1.00  0.00     0.038 A 
HETATM   21  C   UNL     1       7.696  23.523  53.946  1.00  0.00     0.068 A 
HETATM   22  C   UNL     1       7.466  24.869  53.663  1.00  0.00     0.038 A 
HETATM   23  C   UNL     1       7.401  25.802  54.702  1.00  0.00     0.020 A 
BRANCH  21  24
HETATM   24  O   UNL     1       7.765  22.514  53.027  1.00  0.00    -0.352 OA
BRANCH  24  25
HETATM   25  C   UNL     1       7.676  21.182  53.535  1.00  0.00     0.171 C 
HETATM   26  C   UNL     1       8.787  20.364  52.903  1.00  0.00     0.034 C 
ENDBRANCH  24  25
ENDBRANCH  21  24
ENDBRANCH   1  18
TORSDOF 5
ENDMDL
MODEL 6
REMARK VINA RESULT:      -8.1      5.176      8.455
REMARK  5 active torsions:
REMARK  status: ('A' for Active; 'I' for Inactive)
REMARK    1  A    between atoms: C_2  and  O_3 
REMARK    2  A    between atoms: O_3  and  C_4 
REMARK    3  A    between atoms: C_7  and  C_8 
REMARK       I    between atoms: C_8  and  N_9 
REMARK    4  A    between atoms: N_9  and  N_10 
REMARK    5  A    between atoms: C_11  and  C_12 
ROOT
HETATM    1  C   UNL     1       5.211  25.984  51.423  1.00  0.00     0.271 C 
HETATM    2  N   UNL     1       6.006  26.357  52.500  1.00  0.00    -0.243 N 
HETATM    3  O   UNL     1       4.662  24.896  51.280  1.00  0.00    -0.266 OA
HETATM    4  H   UNL     1       6.166  27.344  52.668  1.00  0.00     0.192 HD
ENDROOT
BRANCH   2   5
HETATM    5  N   UNL     1       6.322  25.577  53.588  1.00  0.00    -0.183 NA
HETATM    6  C   UNL     1       7.497  25.037  53.655  1.00  0.00     0.153 C 
BRANCH   6   7
HETATM    7  C   UNL     1       7.847  24.182  54.778  1.00  0.00     0.018 A 
HETATM    8  C   UNL     1       8.042  22.761  54.712  1.00  0.00     0.004 A 
HETATM    9  C   UNL     1       8.371  22.321  55.992  1.00  0.00     0.043 A 
HETATM   10  C   UNL     1       7.961  21.803  53.676  1.00  0.00     0.014 A 
HETATM   11  C   UNL     1       8.629  20.978  56.293  1.00  0.00     0.030 A 
HETATM   12  N   UNL     1       8.375  23.426  56.808  1.00  0.00    -0.358 N 
HETATM   13  C   UNL     1       8.544  20.052  55.249  1.00  0.00     0.002 A 
HETATM   14  C   UNL     1       8.214  20.456  53.959  1.00  0.00     0.001 A 
HETATM   15  H   UNL     1       8.582  23.400  57.797  1.00  0.00     0.166 HD
HETATM   16  C   UNL     1       8.064  24.559  56.097  1.00  0.00     0.018 A 
HETATM   17  C   UNL     1       8.013  25.890  56.757  1.00  0.00     0.069 C 
ENDBRANCH   6   7
ENDBRANCH   2   5
BRANCH   1  18
HETATM   18  C   UNL     1       5.005  27.031  50.376  1.00  0.00     0.033 A 
HETATM   19  C   UNL     1       5.207  28.394  50.620  1.00  0.00     0.020 A 
HETATM   20  C   UNL     1       5.039  29.319  49.585  1.00  0.00     0.038 A 
HETATM   21  C   UNL     1       4.694  28.901  48.297  1.00  0.00     0.068 A 
HETATM   22  C   UNL     1       4.486  27.544  48.054  1.00  0.00     0.038 A 
HETATM   23  C   UNL     1       4.644  26.615  49.087  1.00  0.00     0.020 A 
BRANCH  21  24
HETATM   24  O   UNL     1       4.589  29.903  47.375  1.00  0.00    -0.352 OA
BRANCH  24  25
HETATM   25  C   UNL     1       4.860  31.227  47.838  1.00  0.00     0.171 C 
HETATM   26  C   UNL     1       5.174  32.092  46.630  1.00  0.00     0.034 C 
ENDBRANCH  24  25
ENDBRANCH  21  24
ENDBRANCH   1  18
TORSDOF 5
ENDMDL
MODEL 7
REMARK VINA RESULT:      -8.0      2.012      3.251
REMARK  5 active torsions:
REMARK  status: ('A' for Active; 'I' for Inactive)
REMARK    1  A    between atoms: C_2  and  O_3 
REMARK    2  A    between atoms: O_3  and  C_4 
REMARK    3  A    between atoms: C_7  and  C_8 
REMARK       I    between atoms: C_8  and  N_9 
REMARK    4  A    between atoms: N_9  and  N_10 
REMARK    5  A    between atoms: C_11  and  C_12 
ROOT
HETATM    1  C   UNL     1       7.638  30.017  58.279  1.00  0.00     0.271 C 
HETATM    2  N   UNL     1       8.197  28.745  58.248  1.00  0.00    -0.243 N 
HETATM    3  O   UNL     1       6.976  30.531  57.383  1.00  0.00    -0.266 OA
HETATM    4  H   UNL     1       8.465  28.310  59.125  1.00  0.00     0.192 HD
ENDROOT
BRANCH   2   5
HETATM    5  N   UNL     1       8.115  27.844  57.213  1.00  0.00    -0.183 NA
HETATM    6  C   UNL     1       7.243  26.889  57.278  1.00  0.00     0.153 C 
BRANCH   6   7
HETATM    7  C   UNL     1       7.156  25.903  56.212  1.00  0.00     0.018 A 
HETATM    8  C   UNL     1       6.323  26.008  55.048  1.00  0.00     0.004 A 
HETATM    9  C   UNL     1       6.534  24.869  54.274  1.00  0.00     0.043 A 
HETATM   10  C   UNL     1       5.399  26.970  54.582  1.00  0.00     0.014 A 
HETATM   11  C   UNL     1       5.876  24.640  53.059  1.00  0.00     0.030 A 
HETATM   12  N   UNL     1       7.456  24.097  54.939  1.00  0.00    -0.358 N 
HETATM   13  C   UNL     1       4.969  25.609  52.622  1.00  0.00     0.002 A 
HETATM   14  C   UNL     1       4.731  26.758  53.371  1.00  0.00     0.001 A 
HETATM   15  H   UNL     1       7.796  23.206  54.605  1.00  0.00     0.166 HD
HETATM   16  C   UNL     1       7.846  24.702  56.109  1.00  0.00     0.018 A 
HETATM   17  C   UNL     1       8.847  24.066  57.005  1.00  0.00     0.069 C 
ENDBRANCH   6   7
ENDBRANCH   2   5
BRANCH   1  18
HETATM   18  C   UNL     1       7.857  30.792  59.538  1.00  0.00     0.033 A 
HETATM   19  C   UNL     1       6.957  31.760  59.997  1.00  0.00     0.020 A 
HETATM   20  C   UNL     1       7.198  32.419  61.207  1.00  0.00     0.038 A 
HETATM   21  C   UNL     1       8.317  32.107  61.983  1.00  0.00     0.068 A 
HETATM   22  C   UNL     1       9.218  31.147  61.525  1.00  0.00     0.038 A 
HETATM   23  C   UNL     1       8.987  30.491  60.312  1.00  0.00     0.020 A 
BRANCH  21  24
HETATM   24  O   UNL     1       8.418  32.804  63.154  1.00  0.00    -0.352 OA
BRANCH  24  25
HETATM   25  C   UNL     1       7.296  32.737  64.035  1.00  0.00     0.171 C 
HETATM   26  C   UNL     1       7.369  33.923  64.979  1.00  0.00     0.034 C 
ENDBRANCH  24  25
ENDBRANCH  21  24
ENDBRANCH   1  18
TORSDOF 5
ENDMDL
MODEL 8
REMARK VINA RESULT:      -8.0      3.956      6.547
REMARK  5 active torsions:
REMARK  status: ('A' for Active; 'I' for Inactive)
REMARK    1  A    between atoms: C_2  and  O_3 
REMARK    2  A    between atoms: O_3  and  C_4 
REMARK    3  A    between atoms: C_7  and  C_8 
REMARK       I    between atoms: C_8  and  N_9 
REMARK    4  A    between atoms: N_9  and  N_10 
REMARK    5  A    between atoms: C_11  and  C_12 
ROOT
HETATM    1  C   UNL     1       6.140  32.284  61.364  1.00  0.00     0.271 C 
HETATM    2  N   UNL     1       7.302  31.798  60.776  1.00  0.00    -0.243 N 
HETATM    3  O   UNL     1       5.039  32.353  60.826  1.00  0.00    -0.266 OA
HETATM    4  H   UNL     1       8.069  31.513  61.376  1.00  0.00     0.192 HD
ENDROOT
BRANCH   2   5
HETATM    5  N   UNL     1       7.427  31.319  59.493  1.00  0.00    -0.183 NA
HETATM    6  C   UNL     1       8.138  30.257  59.285  1.00  0.00     0.153 C 
BRANCH   6   7
HETATM    7  C   UNL     1       8.314  29.746  57.934  1.00  0.00     0.018 A 
HETATM    8  C   UNL     1       7.304  29.085  57.157  1.00  0.00     0.004 A 
HETATM    9  C   UNL     1       7.867  28.760  55.925  1.00  0.00     0.043 A 
HETATM   10  C   UNL     1       5.958  28.726  57.394  1.00  0.00     0.014 A 
HETATM   11  C   UNL     1       7.157  28.100  54.914  1.00  0.00     0.030 A 
HETATM   12  N   UNL     1       9.167  29.201  55.948  1.00  0.00    -0.358 N 
HETATM   13  C   UNL     1       5.826  27.757  55.174  1.00  0.00     0.002 A 
HETATM   14  C   UNL     1       5.234  28.064  56.396  1.00  0.00     0.001 A 
HETATM   15  H   UNL     1       9.815  29.096  55.180  1.00  0.00     0.166 HD
HETATM   16  C   UNL     1       9.458  29.801  57.148  1.00  0.00     0.018 A 
HETATM   17  C   UNL     1      10.805  30.370  57.416  1.00  0.00     0.069 C 
ENDBRANCH   6   7
ENDBRANCH   2   5
BRANCH   1  18
HETATM   18  C   UNL     1       6.269  32.727  62.785  1.00  0.00     0.033 A 
HETATM   19  C   UNL     1       7.507  32.959  63.396  1.00  0.00     0.020 A 
HETATM   20  C   UNL     1       7.558  33.416  64.717  1.00  0.00     0.038 A 
HETATM   21  C   UNL     1       6.386  33.669  65.434  1.00  0.00     0.068 A 
HETATM   22  C   UNL     1       5.152  33.432  64.830  1.00  0.00     0.038 A 
HETATM   23  C   UNL     1       5.095  32.968  63.512  1.00  0.00     0.020 A 
BRANCH  21  24
HETATM   24  O   UNL     1       6.577  34.137  66.703  1.00  0.00    -0.352 OA
BRANCH  24  25
HETATM   25  C   UNL     1       5.401  34.387  67.475  1.00  0.00     0.171 C 
HETATM   26  C   UNL     1       5.834  34.814  68.865  1.00  0.00     0.034 C 
ENDBRANCH  24  25
ENDBRANCH  21  24
ENDBRANCH   1  18
TORSDOF 5
ENDMDL
MODEL 9
REMARK VINA RESULT:      -7.6      3.380     10.175
REMARK  5 active torsions:
REMARK  status: ('A' for Active; 'I' for Inactive)
REMARK    1  A    between atoms: C_2  and  O_3 
REMARK    2  A    between atoms: O_3  and  C_4 
REMARK    3  A    between atoms: C_7  and  C_8 
REMARK       I    between atoms: C_8  and  N_9 
REMARK    4  A    between atoms: N_9  and  N_10 
REMARK    5  A    between atoms: C_11  and  C_12 
ROOT
HETATM    1  C   UNL     1       7.720  29.753  58.450  1.00  0.00     0.271 C 
HETATM    2  N   UNL     1       6.787  30.783  58.472  1.00  0.00    -0.243 N 
HETATM    3  O   UNL     1       8.634  29.597  59.254  1.00  0.00    -0.266 OA
HETATM    4  H   UNL     1       5.920  30.665  57.959  1.00  0.00     0.192 HD
ENDROOT
BRANCH   2   5
HETATM    5  N   UNL     1       6.726  31.807  59.387  1.00  0.00    -0.183 NA
HETATM    6  C   UNL     1       5.611  32.031  60.007  1.00  0.00     0.153 C 
BRANCH   6   7
HETATM    7  C   UNL     1       5.508  33.128  60.956  1.00  0.00     0.018 A 
HETATM    8  C   UNL     1       6.208  33.214  62.207  1.00  0.00     0.004 A 
HETATM    9  C   UNL     1       5.844  34.415  62.812  1.00  0.00     0.043 A 
HETATM   10  C   UNL     1       7.117  32.372  62.886  1.00  0.00     0.014 A 
HETATM   11  C   UNL     1       6.342  34.823  64.056  1.00  0.00     0.030 A 
HETATM   12  N   UNL     1       4.957  35.037  61.968  1.00  0.00    -0.358 N 
HETATM   13  C   UNL     1       7.241  33.971  64.705  1.00  0.00     0.002 A 
HETATM   14  C   UNL     1       7.624  32.762  64.131  1.00  0.00     0.001 A 
HETATM   15  H   UNL     1       4.526  35.931  62.157  1.00  0.00     0.166 HD
HETATM   16  C   UNL     1       4.742  34.281  60.842  1.00  0.00     0.018 A 
HETATM   17  C   UNL     1       3.824  34.746  59.769  1.00  0.00     0.069 C 
ENDBRANCH   6   7
ENDBRANCH   2   5
BRANCH   1  18
HETATM   18  C   UNL     1       7.552  28.749  57.356  1.00  0.00     0.033 A 
HETATM   19  C   UNL     1       7.459  27.374  57.599  1.00  0.00     0.020 A 
HETATM   20  C   UNL     1       7.258  26.490  56.534  1.00  0.00     0.038 A 
HETATM   21  C   UNL     1       7.124  26.961  55.226  1.00  0.00     0.068 A 
HETATM   22  C   UNL     1       7.222  28.330  54.981  1.00  0.00     0.038 A 
HETATM   23  C   UNL     1       7.431  29.218  56.040  1.00  0.00     0.020 A 
BRANCH  21  24
HETATM   24  O   UNL     1       6.904  25.995  54.285  1.00  0.00    -0.352 OA
BRANCH  24  25
HETATM   25  C   UNL     1       7.779  24.866  54.316  1.00  0.00     0.171 C 
HETATM   26  C   UNL     1       6.937  23.615  54.134  1.00  0.00     0.034 C 
ENDBRANCH  24  25
ENDBRANCH  21  24
ENDBRANCH   1  18
TORSDOF 5
ENDMDL
MODEL 10
REMARK VINA RESULT:      -7.4      3.173      9.489
REMARK  5 active torsions:
REMARK  status: ('A' for Active; 'I' for Inactive)
REMARK    1  A    between atoms: C_2  and  O_3 
REMARK    2  A    between atoms: O_3  and  C_4 
REMARK    3  A    between atoms: C_7  and  C_8 
REMARK       I    between atoms: C_8  and  N_9 
REMARK    4  A    between atoms: N_9  and  N_10 
REMARK    5  A    between atoms: C_11  and  C_12 
ROOT
HETATM    1  C   UNL     1       7.382  27.408  54.397  1.00  0.00     0.271 C 
HETATM    2  N   UNL     1       6.822  27.660  55.644  1.00  0.00    -0.243 N 
HETATM    3  O   UNL     1       7.868  28.249  53.647  1.00  0.00    -0.266 OA
HETATM    4  H   UNL     1       6.720  26.889  56.296  1.00  0.00     0.192 HD
ENDROOT
BRANCH   2   5
HETATM    5  N   UNL     1       6.705  28.887  56.252  1.00  0.00    -0.183 NA
HETATM    6  C   UNL     1       6.952  28.986  57.520  1.00  0.00     0.153 C 
BRANCH   6   7
HETATM    7  C   UNL     1       6.806  30.266  58.197  1.00  0.00     0.018 A 
HETATM    8  C   UNL     1       5.668  31.135  58.095  1.00  0.00     0.004 A 
HETATM    9  C   UNL     1       5.915  32.248  58.896  1.00  0.00     0.043 A 
HETATM   10  C   UNL     1       4.447  31.080  57.386  1.00  0.00     0.014 A 
HETATM   11  C   UNL     1       5.007  33.306  59.031  1.00  0.00     0.030 A 
HETATM   12  N   UNL     1       7.154  32.068  59.462  1.00  0.00    -0.358 N 
HETATM   13  C   UNL     1       3.807  33.224  58.319  1.00  0.00     0.002 A 
HETATM   14  C   UNL     1       3.529  32.128  57.507  1.00  0.00     0.001 A 
HETATM   15  H   UNL     1       7.590  32.727  60.092  1.00  0.00     0.166 HD
HETATM   16  C   UNL     1       7.708  30.879  59.056  1.00  0.00     0.018 A 
HETATM   17  C   UNL     1       9.047  30.451  59.540  1.00  0.00     0.069 C 
ENDBRANCH   6   7
ENDBRANCH   2   5
BRANCH   1  18
HETATM   18  C   UNL     1       7.405  25.976  53.973  1.00  0.00     0.033 A 
HETATM   19  C   UNL     1       7.908  25.561  52.735  1.00  0.00     0.020 A 
HETATM   20  C   UNL     1       7.942  24.200  52.415  1.00  0.00     0.038 A 
HETATM   21  C   UNL     1       7.502  23.238  53.328  1.00  0.00     0.068 A 
HETATM   22  C   UNL     1       6.995  23.649  54.560  1.00  0.00     0.038 A 
HETATM   23  C   UNL     1       6.951  25.009  54.882  1.00  0.00     0.020 A 
BRANCH  21  24
HETATM   24  O   UNL     1       7.615  21.945  52.902  1.00  0.00    -0.352 OA
BRANCH  24  25
HETATM   25  C   UNL     1       7.854  20.960  53.908  1.00  0.00     0.171 C 
HETATM   26  C   UNL     1       9.084  20.166  53.505  1.00  0.00     0.034 C 
ENDBRANCH  24  25
ENDBRANCH  21  24
ENDBRANCH   1  18
TORSDOF 5
ENDMDL
