MODEL 1
REMARK VINA RESULT:      -8.8      0.000      0.000
REMARK  4 active torsions:
REMARK  status: ('A' for Active; 'I' for Inactive)
REMARK    1  A    between atoms: C_6  and  N_7 
REMARK       I    between atoms: N_7  and  C_8 
REMARK    2  A    between atoms: C_8  and  C_9 
REMARK    3  A    between atoms: C_10  and  C_11 
REMARK    4  A    between atoms: C_12  and  O_13 
ROOT
HETATM    1  C   UNL     1       5.077  27.008  53.305  1.00  0.00     0.063 A 
HETATM    2  C   UNL     1       4.882  27.972  54.468  1.00  0.00     0.205 A 
HETATM    3  N   UNL     1       4.605  29.336  53.993  1.00  0.00    -0.084 N 
HETATM    4  C   UNL     1       4.546  29.691  52.672  1.00  0.00     0.725 A 
HETATM    5  N   UNL     1       4.770  28.759  51.727  1.00  0.00    -0.192 N 
HETATM    6  N   UNL     1       4.244  30.367  54.790  1.00  0.00    -0.149 NA
HETATM    7  C   UNL     1       4.069  31.332  53.880  1.00  0.00     0.275 A 
HETATM    8  N   UNL     1       4.236  30.958  52.572  1.00  0.00    -0.054 NA
HETATM    9  C   UNL     1       5.022  27.422  52.015  1.00  0.00     0.037 A 
HETATM   10  C   UNL     1       5.195  26.518  50.819  1.00  0.00     0.070 C 
HETATM   11  H   UNL     1       4.722  29.030  50.749  1.00  0.00     0.184 HD
ENDROOT
BRANCH   1  12
HETATM   12  C   UNL     1       5.409  25.594  53.622  1.00  0.00     0.256 C 
HETATM   13  N   UNL     1       6.734  25.409  53.957  1.00  0.00    -0.323 N 
HETATM   14  H   UNL     1       7.346  26.207  53.877  1.00  0.00     0.169 HD
HETATM   15  O   UNL     1       4.520  24.751  53.596  1.00  0.00    -0.267 OA
BRANCH  13  16
HETATM   16  C   UNL     1       7.342  24.227  54.449  1.00  0.00     0.041 A 
HETATM   17  C   UNL     1       7.932  23.331  53.531  1.00  0.00    -0.035 A 
HETATM   18  C   UNL     1       8.596  22.185  54.010  1.00  0.00     0.015 A 
HETATM   19  C   UNL     1       7.886  23.554  52.042  1.00  0.00     0.050 C 
HETATM   20  C   UNL     1       8.666  21.902  55.377  1.00  0.00    -0.061 A 
HETATM   21  C   UNL     1       9.418  20.707  55.880  1.00  0.00     0.048 C 
HETATM   22  C   UNL     1       8.074  22.789  56.275  1.00  0.00     0.009 A 
HETATM   23  C   UNL     1       7.414  23.934  55.815  1.00  0.00     0.030 A 
ENDBRANCH  13  16
ENDBRANCH   1  12
BRANCH   2  24
HETATM   24  C   UNL     1       6.051  27.981  55.445  1.00  0.00     0.005 A 
HETATM   25  C   UNL     1       5.936  27.370  56.708  1.00  0.00     0.076 A 
HETATM   26  C   UNL     1       7.023  27.377  57.588  1.00  0.00     0.037 A 
HETATM   27  C   UNL     1       8.218  28.006  57.230  1.00  0.00     0.003 A 
HETATM   28  C   UNL     1       8.338  28.622  55.990  1.00  0.00     0.001 A 
HETATM   29  C   UNL     1       7.264  28.609  55.100  1.00  0.00     0.012 A 
BRANCH  25  30
HETATM   30  O   UNL     1       4.743  26.749  56.982  1.00  0.00    -0.355 OA
HETATM   31  C   UNL     1       4.827  25.367  57.321  1.00  0.00     0.210 C 
ENDBRANCH  25  30
ENDBRANCH   2  24
TORSDOF 4
ENDMDL
MODEL 2
REMARK VINA RESULT:      -8.4      5.134      8.640
REMARK  4 active torsions:
REMARK  status: ('A' for Active; 'I' for Inactive)
REMARK    1  A    between atoms: C_6  and  N_7 
REMARK       I    between atoms: N_7  and  C_8 
REMARK    2  A    between atoms: C_8  and  C_9 
REMARK    3  A    between atoms: C_10  and  C_11 
REMARK    4  A    between atoms: C_12  and  O_13 
ROOT
HETATM    1  C   UNL     1       7.305  30.431  58.060  1.00  0.00     0.063 A 
HETATM    2  C   UNL     1       5.878  30.165  57.599  1.00  0.00     0.205 A 
HETATM    3  N   UNL     1       5.841  29.164  56.523  1.00  0.00    -0.084 N 
HETATM    4  C   UNL     1       6.953  28.563  55.996  1.00  0.00     0.725 A 
HETATM    5  N   UNL     1       8.169  28.902  56.459  1.00  0.00    -0.192 N 
HETATM    6  N   UNL     1       4.709  28.620  56.021  1.00  0.00    -0.149 NA
HETATM    7  C   UNL     1       5.223  27.760  55.134  1.00  0.00     0.275 A 
HETATM    8  N   UNL     1       6.590  27.689  55.092  1.00  0.00    -0.054 NA
HETATM    9  C   UNL     1       8.369  29.815  57.488  1.00  0.00     0.037 A 
HETATM   10  C   UNL     1       9.805  30.026  57.905  1.00  0.00     0.070 C 
HETATM   11  H   UNL     1       8.989  28.450  56.064  1.00  0.00     0.184 HD
ENDROOT
BRANCH   1  12
HETATM   12  C   UNL     1       7.515  31.455  59.118  1.00  0.00     0.256 C 
HETATM   13  N   UNL     1       6.818  31.188  60.278  1.00  0.00    -0.323 N 
HETATM   14  H   UNL     1       6.191  30.397  60.268  1.00  0.00     0.169 HD
HETATM   15  O   UNL     1       8.278  32.390  58.902  1.00  0.00    -0.267 OA
BRANCH  13  16
HETATM   16  C   UNL     1       6.910  31.873  61.516  1.00  0.00     0.041 A 
HETATM   17  C   UNL     1       7.974  31.560  62.390  1.00  0.00    -0.035 A 
HETATM   18  C   UNL     1       8.115  32.278  63.594  1.00  0.00     0.015 A 
HETATM   19  C   UNL     1       8.980  30.482  62.085  1.00  0.00     0.050 C 
HETATM   20  C   UNL     1       7.210  33.281  63.954  1.00  0.00    -0.061 A 
HETATM   21  C   UNL     1       7.398  34.073  65.212  1.00  0.00     0.048 C 
HETATM   22  C   UNL     1       6.159  33.576  63.087  1.00  0.00     0.009 A 
HETATM   23  C   UNL     1       6.008  32.876  61.886  1.00  0.00     0.030 A 
ENDBRANCH  13  16
ENDBRANCH   1  12
BRANCH   2  24
HETATM   24  C   UNL     1       5.138  31.426  57.173  1.00  0.00     0.005 A 
HETATM   25  C   UNL     1       4.161  32.002  58.008  1.00  0.00     0.076 A 
HETATM   26  C   UNL     1       3.500  33.167  57.605  1.00  0.00     0.037 A 
HETATM   27  C   UNL     1       3.786  33.752  56.370  1.00  0.00     0.003 A 
HETATM   28  C   UNL     1       4.742  33.184  55.534  1.00  0.00     0.001 A 
HETATM   29  C   UNL     1       5.416  32.031  55.931  1.00  0.00     0.012 A 
BRANCH  25  30
HETATM   30  O   UNL     1       3.949  31.389  59.216  1.00  0.00    -0.355 OA
HETATM   31  C   UNL     1       3.118  32.097  60.133  1.00  0.00     0.210 C 
ENDBRANCH  25  30
ENDBRANCH   2  24
TORSDOF 4
ENDMDL
MODEL 3
REMARK VINA RESULT:      -8.3      1.688      2.044
REMARK  4 active torsions:
REMARK  status: ('A' for Active; 'I' for Inactive)
REMARK    1  A    between atoms: C_6  and  N_7 
REMARK       I    between atoms: N_7  and  C_8 
REMARK    2  A    between atoms: C_8  and  C_9 
REMARK    3  A    between atoms: C_10  and  C_11 
REMARK    4  A    between atoms: C_12  and  O_13 
ROOT
HETATM    1  C   UNL     1       5.533  28.250  54.307  1.00  0.00     0.063 A 
HETATM    2  C   UNL     1       5.054  28.666  55.692  1.00  0.00     0.205 A 
HETATM    3  N   UNL     1       4.095  29.778  55.616  1.00  0.00    -0.084 N 
HETATM    4  C   UNL     1       3.700  30.371  54.447  1.00  0.00     0.725 A 
HETATM    5  N   UNL     1       4.217  29.942  53.281  1.00  0.00    -0.192 N 
HETATM    6  N   UNL     1       3.392  30.257  56.667  1.00  0.00    -0.149 NA
HETATM    7  C   UNL     1       2.656  31.197  56.062  1.00  0.00     0.275 A 
HETATM    8  N   UNL     1       2.809  31.294  54.704  1.00  0.00    -0.054 NA
HETATM    9  C   UNL     1       5.117  28.886  53.184  1.00  0.00     0.037 A 
HETATM   10  C   UNL     1       5.543  28.518  51.784  1.00  0.00     0.070 C 
HETATM   11  H   UNL     1       3.916  30.386  52.417  1.00  0.00     0.184 HD
ENDROOT
BRANCH   1  12
HETATM   12  C   UNL     1       6.543  27.162  54.217  1.00  0.00     0.256 C 
HETATM   13  N   UNL     1       5.988  25.901  54.286  1.00  0.00    -0.323 N 
HETATM   14  H   UNL     1       4.998  25.841  54.468  1.00  0.00     0.169 HD
HETATM   15  O   UNL     1       7.723  27.453  54.062  1.00  0.00    -0.267 OA
BRANCH  13  16
HETATM   16  C   UNL     1       6.643  24.660  54.086  1.00  0.00     0.041 A 
HETATM   17  C   UNL     1       7.092  24.327  52.788  1.00  0.00    -0.035 A 
HETATM   18  C   UNL     1       7.802  23.127  52.587  1.00  0.00     0.015 A 
HETATM   19  C   UNL     1       6.846  25.215  51.597  1.00  0.00     0.050 C 
HETATM   20  C   UNL     1       8.054  22.245  53.642  1.00  0.00    -0.061 A 
HETATM   21  C   UNL     1       8.853  20.996  53.427  1.00  0.00     0.048 C 
HETATM   22  C   UNL     1       7.600  22.579  54.916  1.00  0.00     0.009 A 
HETATM   23  C   UNL     1       6.898  23.769  55.133  1.00  0.00     0.030 A 
ENDBRANCH  13  16
ENDBRANCH   1  12
BRANCH   2  24
HETATM   24  C   UNL     1       6.191  29.013  56.643  1.00  0.00     0.005 A 
HETATM   25  C   UNL     1       6.798  28.018  57.432  1.00  0.00     0.076 A 
HETATM   26  C   UNL     1       7.849  28.353  58.292  1.00  0.00     0.037 A 
HETATM   27  C   UNL     1       8.289  29.675  58.389  1.00  0.00     0.003 A 
HETATM   28  C   UNL     1       7.689  30.668  57.622  1.00  0.00     0.001 A 
HETATM   29  C   UNL     1       6.649  30.342  56.752  1.00  0.00     0.012 A 
BRANCH  25  30
HETATM   30  O   UNL     1       6.333  26.737  57.268  1.00  0.00    -0.355 OA
HETATM   31  C   UNL     1       7.180  25.702  57.760  1.00  0.00     0.210 C 
ENDBRANCH  25  30
ENDBRANCH   2  24
TORSDOF 4
ENDMDL
MODEL 4
REMARK VINA RESULT:      -8.2      7.956     11.372
REMARK  4 active torsions:
REMARK  status: ('A' for Active; 'I' for Inactive)
REMARK    1  A    between atoms: C_6  and  N_7 
REMARK       I    between atoms: N_7  and  C_8 
REMARK    2  A    between atoms: C_8  and  C_9 
REMARK    3  A    between atoms: C_10  and  C_11 
REMARK    4  A    between atoms: C_12  and  O_13 
ROOT
HETATM    1  C   UNL     1       5.410  33.014  60.535  1.00  0.00     0.063 A 
HETATM    2  C   UNL     1       4.075  32.979  59.803  1.00  0.00     0.205 A 
HETATM    3  N   UNL     1       4.167  32.204  58.557  1.00  0.00    -0.084 N 
HETATM    4  C   UNL     1       5.314  31.605  58.110  1.00  0.00     0.725 A 
HETATM    5  N   UNL     1       6.447  31.731  58.824  1.00  0.00    -0.192 N 
HETATM    6  N   UNL     1       3.111  31.878  57.778  1.00  0.00    -0.149 NA
HETATM    7  C   UNL     1       3.719  31.152  56.833  1.00  0.00     0.275 A 
HETATM    8  N   UNL     1       5.064  30.955  57.002  1.00  0.00    -0.054 NA
HETATM    9  C   UNL     1       6.518  32.413  60.034  1.00  0.00     0.037 A 
HETATM   10  C   UNL     1       7.866  32.399  60.713  1.00  0.00     0.070 C 
HETATM   11  H   UNL     1       7.293  31.282  58.486  1.00  0.00     0.184 HD
ENDROOT
BRANCH   1  12
HETATM   12  C   UNL     1       5.493  33.797  61.797  1.00  0.00     0.256 C 
HETATM   13  N   UNL     1       5.258  33.037  62.924  1.00  0.00    -0.323 N 
HETATM   14  H   UNL     1       4.980  32.077  62.784  1.00  0.00     0.169 HD
HETATM   15  O   UNL     1       5.782  34.986  61.744  1.00  0.00    -0.267 OA
BRANCH  13  16
HETATM   16  C   UNL     1       5.402  33.434  64.277  1.00  0.00     0.041 A 
HETATM   17  C   UNL     1       6.691  33.432  64.853  1.00  0.00    -0.035 A 
HETATM   18  C   UNL     1       6.860  33.886  66.176  1.00  0.00     0.015 A 
HETATM   19  C   UNL     1       7.911  32.964  64.103  1.00  0.00     0.050 C 
HETATM   20  C   UNL     1       5.773  34.320  66.940  1.00  0.00    -0.061 A 
HETATM   21  C   UNL     1       5.969  34.849  68.329  1.00  0.00     0.048 C 
HETATM   22  C   UNL     1       4.503  34.311  66.365  1.00  0.00     0.009 A 
HETATM   23  C   UNL     1       4.321  33.867  65.051  1.00  0.00     0.030 A 
ENDBRANCH  13  16
ENDBRANCH   1  12
BRANCH   2  24
HETATM   24  C   UNL     1       3.506  34.364  59.523  1.00  0.00     0.005 A 
HETATM   25  C   UNL     1       2.361  34.821  60.202  1.00  0.00     0.076 A 
HETATM   26  C   UNL     1       1.860  36.101  59.940  1.00  0.00     0.037 A 
HETATM   27  C   UNL     1       2.476  36.922  58.994  1.00  0.00     0.003 A 
HETATM   28  C   UNL     1       3.603  36.476  58.311  1.00  0.00     0.001 A 
HETATM   29  C   UNL     1       4.118  35.207  58.573  1.00  0.00     0.012 A 
BRANCH  25  30
HETATM   30  O   UNL     1       1.822  33.972  61.135  1.00  0.00    -0.355 OA
HETATM   31  C   UNL     1       1.831  34.444  62.480  1.00  0.00     0.210 C 
ENDBRANCH  25  30
ENDBRANCH   2  24
TORSDOF 4
ENDMDL
MODEL 5
REMARK VINA RESULT:      -8.0      2.451      5.269
REMARK  4 active torsions:
REMARK  status: ('A' for Active; 'I' for Inactive)
REMARK    1  A    between atoms: C_6  and  N_7 
REMARK       I    between atoms: N_7  and  C_8 
REMARK    2  A    between atoms: C_8  and  C_9 
REMARK    3  A    between atoms: C_10  and  C_11 
REMARK    4  A    between atoms: C_12  and  O_13 
ROOT
HETATM    1  C   UNL     1       5.179  28.416  51.922  1.00  0.00     0.063 A 
HETATM    2  C   UNL     1       5.395  28.804  50.465  1.00  0.00     0.205 A 
HETATM    3  N   UNL     1       5.180  30.243  50.255  1.00  0.00    -0.084 N 
HETATM    4  C   UNL     1       4.817  31.116  51.246  1.00  0.00     0.725 A 
HETATM    5  N   UNL     1       4.619  30.654  52.493  1.00  0.00    -0.192 N 
HETATM    6  N   UNL     1       5.444  30.898  49.102  1.00  0.00    -0.149 NA
HETATM    7  C   UNL     1       5.131  32.150  49.453  1.00  0.00     0.275 A 
HETATM    8  N   UNL     1       4.750  32.328  50.757  1.00  0.00    -0.054 NA
HETATM    9  C   UNL     1       4.804  29.325  52.856  1.00  0.00     0.037 A 
HETATM   10  C   UNL     1       4.584  29.009  54.316  1.00  0.00     0.070 C 
HETATM   11  H   UNL     1       4.351  31.309  53.223  1.00  0.00     0.184 HD
ENDROOT
BRANCH   1  12
HETATM   12  C   UNL     1       5.317  26.982  52.289  1.00  0.00     0.256 C 
HETATM   13  N   UNL     1       6.617  26.618  52.574  1.00  0.00    -0.323 N 
HETATM   14  H   UNL     1       7.334  27.313  52.430  1.00  0.00     0.169 HD
HETATM   15  O   UNL     1       4.315  26.279  52.342  1.00  0.00    -0.267 OA
BRANCH  13  16
HETATM   16  C   UNL     1       7.071  25.379  53.094  1.00  0.00     0.041 A 
HETATM   17  C   UNL     1       6.978  25.149  54.484  1.00  0.00    -0.035 A 
HETATM   18  C   UNL     1       7.365  23.900  55.007  1.00  0.00     0.015 A 
HETATM   19  C   UNL     1       6.473  26.194  55.444  1.00  0.00     0.050 C 
HETATM   20  C   UNL     1       7.859  22.886  54.180  1.00  0.00    -0.061 A 
HETATM   21  C   UNL     1       8.220  21.543  54.739  1.00  0.00     0.048 C 
HETATM   22  C   UNL     1       7.954  23.127  52.811  1.00  0.00     0.009 A 
HETATM   23  C   UNL     1       7.570  24.361  52.276  1.00  0.00     0.030 A 
ENDBRANCH  13  16
ENDBRANCH   1  12
BRANCH   2  24
HETATM   24  C   UNL     1       4.544  27.996  49.494  1.00  0.00     0.005 A 
HETATM   25  C   UNL     1       3.142  28.124  49.489  1.00  0.00     0.076 A 
HETATM   26  C   UNL     1       2.378  27.383  48.582  1.00  0.00     0.037 A 
HETATM   27  C   UNL     1       2.995  26.499  47.694  1.00  0.00     0.003 A 
HETATM   28  C   UNL     1       4.378  26.357  47.699  1.00  0.00     0.001 A 
HETATM   29  C   UNL     1       5.150  27.101  48.590  1.00  0.00     0.012 A 
BRANCH  25  30
HETATM   30  O   UNL     1       2.606  29.029  50.370  1.00  0.00    -0.355 OA
HETATM   31  C   UNL     1       1.565  29.854  49.854  1.00  0.00     0.210 C 
ENDBRANCH  25  30
ENDBRANCH   2  24
TORSDOF 4
ENDMDL
MODEL 6
REMARK VINA RESULT:      -7.9      2.211      4.753
REMARK  4 active torsions:
REMARK  status: ('A' for Active; 'I' for Inactive)
REMARK    1  A    between atoms: C_6  and  N_7 
REMARK       I    between atoms: N_7  and  C_8 
REMARK    2  A    between atoms: C_8  and  C_9 
REMARK    3  A    between atoms: C_10  and  C_11 
REMARK    4  A    between atoms: C_12  and  O_13 
ROOT
HETATM    1  C   UNL     1       5.426  28.773  53.888  1.00  0.00     0.063 A 
HETATM    2  C   UNL     1       5.274  29.676  52.672  1.00  0.00     0.205 A 
HETATM    3  N   UNL     1       4.175  30.636  52.850  1.00  0.00    -0.084 N 
HETATM    4  C   UNL     1       3.382  30.695  53.965  1.00  0.00     0.725 A 
HETATM    5  N   UNL     1       3.586  29.821  54.967  1.00  0.00    -0.192 N 
HETATM    6  N   UNL     1       3.902  31.655  52.004  1.00  0.00    -0.149 NA
HETATM    7  C   UNL     1       2.874  32.231  52.638  1.00  0.00     0.275 A 
HETATM    8  N   UNL     1       2.529  31.680  53.843  1.00  0.00    -0.054 NA
HETATM    9  C   UNL     1       4.599  28.868  54.959  1.00  0.00     0.037 A 
HETATM   10  C   UNL     1       4.702  28.013  56.199  1.00  0.00     0.070 C 
HETATM   11  H   UNL     1       2.994  29.873  55.792  1.00  0.00     0.184 HD
ENDROOT
BRANCH   1  12
HETATM   12  C   UNL     1       6.471  27.715  53.845  1.00  0.00     0.256 C 
HETATM   13  N   UNL     1       5.956  26.439  53.940  1.00  0.00    -0.323 N 
HETATM   14  H   UNL     1       4.965  26.352  54.107  1.00  0.00     0.169 HD
HETATM   15  O   UNL     1       7.644  28.040  53.701  1.00  0.00    -0.267 OA
BRANCH  13  16
HETATM   16  C   UNL     1       6.653  25.215  53.785  1.00  0.00     0.041 A 
HETATM   17  C   UNL     1       6.787  24.361  54.902  1.00  0.00    -0.035 A 
HETATM   18  C   UNL     1       7.421  23.113  54.749  1.00  0.00     0.015 A 
HETATM   19  C   UNL     1       6.270  24.731  56.268  1.00  0.00     0.050 C 
HETATM   20  C   UNL     1       7.941  22.707  53.516  1.00  0.00    -0.061 A 
HETATM   21  C   UNL     1       8.568  21.356  53.351  1.00  0.00     0.048 C 
HETATM   22  C   UNL     1       7.810  23.560  52.422  1.00  0.00     0.009 A 
HETATM   23  C   UNL     1       7.180  24.802  52.557  1.00  0.00     0.030 A 
ENDBRANCH  13  16
ENDBRANCH   1  12
BRANCH   2  24
HETATM   24  C   UNL     1       5.097  28.907  51.369  1.00  0.00     0.005 A 
HETATM   25  C   UNL     1       5.668  29.379  50.172  1.00  0.00     0.076 A 
HETATM   26  C   UNL     1       5.505  28.653  48.988  1.00  0.00     0.037 A 
HETATM   27  C   UNL     1       4.761  27.471  48.979  1.00  0.00     0.003 A 
HETATM   28  C   UNL     1       4.184  27.001  50.155  1.00  0.00     0.001 A 
HETATM   29  C   UNL     1       4.352  27.711  51.343  1.00  0.00     0.012 A 
BRANCH  25  30
HETATM   30  O   UNL     1       6.406  30.532  50.258  1.00  0.00    -0.355 OA
HETATM   31  C   UNL     1       6.052  31.565  49.342  1.00  0.00     0.210 C 
ENDBRANCH  25  30
ENDBRANCH   2  24
TORSDOF 4
ENDMDL
MODEL 7
REMARK VINA RESULT:      -7.8      7.744     11.280
REMARK  4 active torsions:
REMARK  status: ('A' for Active; 'I' for Inactive)
REMARK    1  A    between atoms: C_6  and  N_7 
REMARK       I    between atoms: N_7  and  C_8 
REMARK    2  A    between atoms: C_8  and  C_9 
REMARK    3  A    between atoms: C_10  and  C_11 
REMARK    4  A    between atoms: C_12  and  O_13 
ROOT
HETATM    1  C   UNL     1       5.440  32.766  60.622  1.00  0.00     0.063 A 
HETATM    2  C   UNL     1       4.063  32.488  60.033  1.00  0.00     0.205 A 
HETATM    3  N   UNL     1       4.158  31.698  58.797  1.00  0.00    -0.084 N 
HETATM    4  C   UNL     1       5.339  31.281  58.242  1.00  0.00     0.725 A 
HETATM    5  N   UNL     1       6.500  31.616  58.832  1.00  0.00    -0.192 N 
HETATM    6  N   UNL     1       3.099  31.176  58.137  1.00  0.00    -0.149 NA
HETATM    7  C   UNL     1       3.722  30.529  57.146  1.00  0.00     0.275 A 
HETATM    8  N   UNL     1       5.092  30.562  57.177  1.00  0.00    -0.054 NA
HETATM    9  C   UNL     1       6.577  32.340  60.017  1.00  0.00     0.037 A 
HETATM   10  C   UNL     1       7.969  32.571  60.553  1.00  0.00     0.070 C 
HETATM   11  H   UNL     1       7.372  31.301  58.415  1.00  0.00     0.184 HD
ENDROOT
BRANCH   1  12
HETATM   12  C   UNL     1       5.516  33.594  61.855  1.00  0.00     0.256 C 
HETATM   13  N   UNL     1       5.287  32.872  63.008  1.00  0.00    -0.323 N 
HETATM   14  H   UNL     1       5.017  31.905  62.902  1.00  0.00     0.169 HD
HETATM   15  O   UNL     1       5.796  34.783  61.760  1.00  0.00    -0.267 OA
BRANCH  13  16
HETATM   16  C   UNL     1       5.429  33.318  64.346  1.00  0.00     0.041 A 
HETATM   17  C   UNL     1       6.725  33.412  64.899  1.00  0.00    -0.035 A 
HETATM   18  C   UNL     1       6.886  33.915  66.205  1.00  0.00     0.015 A 
HETATM   19  C   UNL     1       7.959  32.999  64.141  1.00  0.00     0.050 C 
HETATM   20  C   UNL     1       5.786  34.304  66.976  1.00  0.00    -0.061 A 
HETATM   21  C   UNL     1       5.972  34.885  68.345  1.00  0.00     0.048 C 
HETATM   22  C   UNL     1       4.511  34.199  66.424  1.00  0.00     0.009 A 
HETATM   23  C   UNL     1       4.335  33.706  65.126  1.00  0.00     0.030 A 
ENDBRANCH  13  16
ENDBRANCH   1  12
BRANCH   2  24
HETATM   24  C   UNL     1       3.246  33.750  59.792  1.00  0.00     0.005 A 
HETATM   25  C   UNL     1       3.626  34.675  58.801  1.00  0.00     0.076 A 
HETATM   26  C   UNL     1       2.856  35.822  58.585  1.00  0.00     0.037 A 
HETATM   27  C   UNL     1       1.721  36.069  59.362  1.00  0.00     0.003 A 
HETATM   28  C   UNL     1       1.343  35.167  60.350  1.00  0.00     0.001 A 
HETATM   29  C   UNL     1       2.097  34.013  60.565  1.00  0.00     0.012 A 
BRANCH  25  30
HETATM   30  O   UNL     1       4.736  34.357  58.060  1.00  0.00    -0.355 OA
HETATM   31  C   UNL     1       4.632  34.590  56.658  1.00  0.00     0.210 C 
ENDBRANCH  25  30
ENDBRANCH   2  24
TORSDOF 4
ENDMDL
MODEL 8
REMARK VINA RESULT:      -7.6      7.987     10.870
REMARK  4 active torsions:
REMARK  status: ('A' for Active; 'I' for Inactive)
REMARK    1  A    between atoms: C_6  and  N_7 
REMARK       I    between atoms: N_7  and  C_8 
REMARK    2  A    between atoms: C_8  and  C_9 
REMARK    3  A    between atoms: C_10  and  C_11 
REMARK    4  A    between atoms: C_12  and  O_13 
ROOT
HETATM    1  C   UNL     1       5.745  34.379  62.303  1.00  0.00     0.063 A 
HETATM    2  C   UNL     1       5.044  35.571  61.664  1.00  0.00     0.205 A 
HETATM    3  N   UNL     1       5.101  36.756  62.533  1.00  0.00    -0.084 N 
HETATM    4  C   UNL     1       5.696  36.774  63.766  1.00  0.00     0.725 A 
HETATM    5  N   UNL     1       6.256  35.649  64.246  1.00  0.00    -0.192 N 
HETATM    6  N   UNL     1       4.696  37.994  62.169  1.00  0.00    -0.149 NA
HETATM    7  C   UNL     1       5.003  38.686  63.271  1.00  0.00     0.275 A 
HETATM    8  N   UNL     1       5.623  37.980  64.269  1.00  0.00    -0.054 NA
HETATM    9  C   UNL     1       6.304  34.455  63.536  1.00  0.00     0.037 A 
HETATM   10  C   UNL     1       7.022  33.317  64.220  1.00  0.00     0.070 C 
HETATM   11  H   UNL     1       6.698  35.672  65.161  1.00  0.00     0.184 HD
ENDROOT
BRANCH   1  12
HETATM   12  C   UNL     1       5.737  33.088  61.565  1.00  0.00     0.256 C 
HETATM   13  N   UNL     1       6.664  33.041  60.545  1.00  0.00    -0.323 N 
HETATM   14  H   UNL     1       7.181  33.886  60.351  1.00  0.00     0.169 HD
HETATM   15  O   UNL     1       4.972  32.200  61.922  1.00  0.00    -0.267 OA
BRANCH  13  16
HETATM   16  C   UNL     1       7.016  31.921  59.751  1.00  0.00     0.041 A 
HETATM   17  C   UNL     1       8.174  31.186  60.084  1.00  0.00    -0.035 A 
HETATM   18  C   UNL     1       8.501  30.032  59.345  1.00  0.00     0.015 A 
HETATM   19  C   UNL     1       9.086  31.585  61.215  1.00  0.00     0.050 C 
HETATM   20  C   UNL     1       7.712  29.609  58.271  1.00  0.00    -0.061 A 
HETATM   21  C   UNL     1       8.039  28.353  57.522  1.00  0.00     0.048 C 
HETATM   22  C   UNL     1       6.574  30.346  57.945  1.00  0.00     0.009 A 
HETATM   23  C   UNL     1       6.235  31.492  58.673  1.00  0.00     0.030 A 
ENDBRANCH  13  16
ENDBRANCH   1  12
BRANCH   2  24
HETATM   24  C   UNL     1       3.604  35.279  61.263  1.00  0.00     0.005 A 
HETATM   25  C   UNL     1       3.209  35.331  59.913  1.00  0.00     0.076 A 
HETATM   26  C   UNL     1       1.885  35.047  59.563  1.00  0.00     0.037 A 
HETATM   27  C   UNL     1       0.944  34.733  60.546  1.00  0.00     0.003 A 
HETATM   28  C   UNL     1       1.322  34.689  61.884  1.00  0.00     0.001 A 
HETATM   29  C   UNL     1       2.643  34.957  62.243  1.00  0.00     0.012 A 
BRANCH  25  30
HETATM   30  O   UNL     1       4.189  35.621  58.998  1.00  0.00    -0.355 OA
HETATM   31  C   UNL     1       4.368  34.665  57.957  1.00  0.00     0.210 C 
ENDBRANCH  25  30
ENDBRANCH   2  24
TORSDOF 4
ENDMDL
MODEL 9
REMARK VINA RESULT:      -7.4      3.648      5.909
REMARK  4 active torsions:
REMARK  status: ('A' for Active; 'I' for Inactive)
REMARK    1  A    between atoms: C_6  and  N_7 
REMARK       I    between atoms: N_7  and  C_8 
REMARK    2  A    between atoms: C_8  and  C_9 
REMARK    3  A    between atoms: C_10  and  C_11 
REMARK    4  A    between atoms: C_12  and  O_13 
ROOT
HETATM    1  C   UNL     1       3.573  28.092  49.384  1.00  0.00     0.063 A 
HETATM    2  C   UNL     1       2.898  29.428  49.664  1.00  0.00     0.205 A 
HETATM    3  N   UNL     1       1.901  29.752  48.633  1.00  0.00    -0.084 N 
HETATM    4  C   UNL     1       1.630  28.957  47.552  1.00  0.00     0.725 A 
HETATM    5  N   UNL     1       2.315  27.811  47.387  1.00  0.00    -0.192 N 
HETATM    6  N   UNL     1       1.044  30.796  48.697  1.00  0.00    -0.149 NA
HETATM    7  C   UNL     1       0.345  30.609  47.572  1.00  0.00     0.275 A 
HETATM    8  N   UNL     1       0.666  29.491  46.847  1.00  0.00    -0.054 NA
HETATM    9  C   UNL     1       3.272  27.355  48.286  1.00  0.00     0.037 A 
HETATM   10  C   UNL     1       3.895  26.020  47.956  1.00  0.00     0.070 C 
HETATM   11  H   UNL     1       2.105  27.225  46.583  1.00  0.00     0.184 HD
ENDROOT
BRANCH   1  12
HETATM   12  C   UNL     1       4.641  27.642  50.316  1.00  0.00     0.256 C 
HETATM   13  N   UNL     1       4.150  26.989  51.428  1.00  0.00    -0.323 N 
HETATM   14  H   UNL     1       3.148  26.955  51.538  1.00  0.00     0.169 HD
HETATM   15  O   UNL     1       5.813  27.844  50.024  1.00  0.00    -0.267 OA
BRANCH  13  16
HETATM   16  C   UNL     1       4.893  26.312  52.427  1.00  0.00     0.041 A 
HETATM   17  C   UNL     1       4.983  26.885  53.715  1.00  0.00    -0.035 A 
HETATM   18  C   UNL     1       5.663  26.193  54.736  1.00  0.00     0.015 A 
HETATM   19  C   UNL     1       4.371  28.220  54.049  1.00  0.00     0.050 C 
HETATM   20  C   UNL     1       6.271  24.957  54.497  1.00  0.00    -0.061 A 
HETATM   21  C   UNL     1       6.949  24.205  55.602  1.00  0.00     0.048 C 
HETATM   22  C   UNL     1       6.183  24.403  53.220  1.00  0.00     0.009 A 
HETATM   23  C   UNL     1       5.507  25.077  52.197  1.00  0.00     0.030 A 
ENDBRANCH  13  16
ENDBRANCH   1  12
BRANCH   2  24
HETATM   24  C   UNL     1       3.883  30.578  49.826  1.00  0.00     0.005 A 
HETATM   25  C   UNL     1       3.969  31.287  51.039  1.00  0.00     0.076 A 
HETATM   26  C   UNL     1       4.888  32.332  51.173  1.00  0.00     0.037 A 
HETATM   27  C   UNL     1       5.709  32.693  50.103  1.00  0.00     0.003 A 
HETATM   28  C   UNL     1       5.625  32.007  48.896  1.00  0.00     0.001 A 
HETATM   29  C   UNL     1       4.721  30.955  48.757  1.00  0.00     0.012 A 
BRANCH  25  30
HETATM   30  O   UNL     1       3.151  30.862  52.056  1.00  0.00    -0.355 OA
HETATM   31  C   UNL     1       3.120  31.691  53.214  1.00  0.00     0.210 C 
ENDBRANCH  25  30
ENDBRANCH   2  24
TORSDOF 4
ENDMDL
MODEL 10
REMARK VINA RESULT:      -7.2      9.579     13.471
REMARK  4 active torsions:
REMARK  status: ('A' for Active; 'I' for Inactive)
REMARK    1  A    between atoms: C_6  and  N_7 
REMARK       I    between atoms: N_7  and  C_8 
REMARK    2  A    between atoms: C_8  and  C_9 
REMARK    3  A    between atoms: C_10  and  C_11 
REMARK    4  A    between atoms: C_12  and  O_13 
ROOT
HETATM    1  C   UNL     1       4.684  34.158  61.561  1.00  0.00     0.063 A 
HETATM    2  C   UNL     1       5.782  34.347  62.599  1.00  0.00     0.205 A 
HETATM    3  N   UNL     1       6.652  33.164  62.680  1.00  0.00    -0.084 N 
HETATM    4  C   UNL     1       6.481  32.034  61.926  1.00  0.00     0.725 A 
HETATM    5  N   UNL     1       5.451  31.965  61.063  1.00  0.00    -0.192 N 
HETATM    6  N   UNL     1       7.794  33.100  63.401  1.00  0.00    -0.149 NA
HETATM    7  C   UNL     1       8.208  31.865  63.096  1.00  0.00     0.275 A 
HETATM    8  N   UNL     1       7.438  31.182  62.192  1.00  0.00    -0.054 NA
HETATM    9  C   UNL     1       4.555  33.008  60.855  1.00  0.00     0.037 A 
HETATM   10  C   UNL     1       3.498  32.761  59.806  1.00  0.00     0.070 C 
HETATM   11  H   UNL     1       5.332  31.123  60.506  1.00  0.00     0.184 HD
ENDROOT
BRANCH   1  12
HETATM   12  C   UNL     1       3.692  35.254  61.390  1.00  0.00     0.256 C 
HETATM   13  N   UNL     1       4.231  36.389  60.820  1.00  0.00    -0.323 N 
HETATM   14  H   UNL     1       5.227  36.396  60.658  1.00  0.00     0.169 HD
HETATM   15  O   UNL     1       2.528  35.062  61.718  1.00  0.00    -0.267 OA
BRANCH  13  16
HETATM   16  C   UNL     1       3.539  37.548  60.388  1.00  0.00     0.041 A 
HETATM   17  C   UNL     1       3.105  37.622  59.046  1.00  0.00    -0.035 A 
HETATM   18  C   UNL     1       2.360  38.739  58.619  1.00  0.00     0.015 A 
HETATM   19  C   UNL     1       3.405  36.543  58.040  1.00  0.00     0.050 C 
HETATM   20  C   UNL     1       2.057  39.788  59.492  1.00  0.00    -0.061 A 
HETATM   21  C   UNL     1       1.220  40.947  59.042  1.00  0.00     0.048 C 
HETATM   22  C   UNL     1       2.496  39.708  60.813  1.00  0.00     0.009 A 
HETATM   23  C   UNL     1       3.233  38.604  61.252  1.00  0.00     0.030 A 
ENDBRANCH  13  16
ENDBRANCH   1  12
BRANCH   2  24
HETATM   24  C   UNL     1       5.251  34.707  63.980  1.00  0.00     0.005 A 
HETATM   25  C   UNL     1       5.242  36.044  64.420  1.00  0.00     0.076 A 
HETATM   26  C   UNL     1       4.739  36.358  65.687  1.00  0.00     0.037 A 
HETATM   27  C   UNL     1       4.263  35.349  66.529  1.00  0.00     0.003 A 
HETATM   28  C   UNL     1       4.278  34.024  66.107  1.00  0.00     0.001 A 
HETATM   29  C   UNL     1       4.765  33.703  64.841  1.00  0.00     0.012 A 
BRANCH  25  30
HETATM   30  O   UNL     1       5.700  36.985  63.533  1.00  0.00    -0.355 OA
HETATM   31  C   UNL     1       5.720  38.328  64.008  1.00  0.00     0.210 C 
ENDBRANCH  25  30
ENDBRANCH   2  24
TORSDOF 4
ENDMDL
