MODEL 1
REMARK VINA RESULT:      -9.5      0.000      0.000
REMARK  5 active torsions:
REMARK  status: ('A' for Active; 'I' for Inactive)
REMARK    1  A    between atoms: C_2  and  O_3 
REMARK    2  A    between atoms: O_3  and  C_4 
REMARK    3  A    between atoms: C_5  and  N_6 
REMARK       I    between atoms: N_6  and  C_7 
REMARK    4  A    between atoms: C_7  and  C_8 
REMARK    5  A    between atoms: C_9  and  C_10 
ROOT
HETATM    1  N   UNL     1       7.232  27.732  56.796  1.00  0.00    -0.321 N 
HETATM    2  C   UNL     1       8.273  28.478  57.308  1.00  0.00     0.245 C 
HETATM    3  O   UNL     1       9.434  28.519  56.929  1.00  0.00    -0.268 OA
HETATM    4  H   UNL     1       6.300  28.037  57.039  1.00  0.00     0.169 HD
ENDROOT
BRANCH   1   5
HETATM    5  C   UNL     1       7.291  26.695  55.834  1.00  0.00     0.071 A 
HETATM    6  C   UNL     1       7.324  26.867  54.431  1.00  0.00     0.096 A 
HETATM    7  C   UNL     1       7.338  25.764  53.561  1.00  0.00     0.049 A 
HETATM    8  C   UNL     1       7.414  24.499  54.106  1.00  0.00    -0.020 A 
HETATM    9  C   UNL     1       7.451  24.326  55.476  1.00  0.00     0.078 A 
HETATM   10  C   UNL     1       7.427  23.177  53.441  1.00  0.00     0.073 C 
HETATM   11  C   UNL     1       7.386  25.392  56.353  1.00  0.00     0.069 A 
HETATM   12  O   UNL     1       7.547  23.016  55.866  1.00  0.00    -0.345 OA
HETATM   13  C   UNL     1       7.832  22.297  54.635  1.00  0.00     0.129 C 
HETATM   14  C   UNL     1       9.314  21.930  54.620  1.00  0.00     0.040 C 
BRANCH   6  15
HETATM   15  O   UNL     1       7.372  28.113  53.867  1.00  0.00    -0.349 OA
BRANCH  15  16
HETATM   16  C   UNL     1       6.285  28.344  52.965  1.00  0.00     0.171 C 
HETATM   17  C   UNL     1       5.079  28.817  53.756  1.00  0.00     0.034 C 
ENDBRANCH  15  16
ENDBRANCH   6  15
ENDBRANCH   1   5
BRANCH   2  18
HETATM   18  C   UNL     1       7.810  29.363  58.415  1.00  0.00     0.077 C 
HETATM   19  C   UNL     1       8.702  30.112  59.080  1.00  0.00     0.043 C 
BRANCH  19  20
HETATM   20  C   UNL     1       8.293  30.940  60.161  1.00  0.00     0.077 A 
HETATM   21  O   UNL     1       7.267  31.860  60.085  1.00  0.00    -0.310 OA
HETATM   22  C   UNL     1       7.143  32.465  61.294  1.00  0.00     0.086 A 
HETATM   23  C   UNL     1       8.076  31.960  62.184  1.00  0.00     0.000 A 
HETATM   24  C   UNL     1       6.215  33.454  61.612  1.00  0.00     0.038 A 
HETATM   25  C   UNL     1       8.809  30.992  61.452  1.00  0.00     0.051 A 
HETATM   26  C   UNL     1       8.098  32.463  63.496  1.00  0.00     0.014 A 
HETATM   27  C   UNL     1       7.175  33.457  63.850  1.00  0.00     0.001 A 
HETATM   28  C   UNL     1       6.251  33.944  62.922  1.00  0.00     0.003 A 
ENDBRANCH  19  20
ENDBRANCH   2  18
TORSDOF 5
ENDMDL
MODEL 2
REMARK VINA RESULT:      -9.4      2.049      9.621
REMARK  5 active torsions:
REMARK  status: ('A' for Active; 'I' for Inactive)
REMARK    1  A    between atoms: C_2  and  O_3 
REMARK    2  A    between atoms: O_3  and  C_4 
REMARK    3  A    between atoms: C_5  and  N_6 
REMARK       I    between atoms: N_6  and  C_7 
REMARK    4  A    between atoms: C_7  and  C_8 
REMARK    5  A    between atoms: C_9  and  C_10 
ROOT
HETATM    1  N   UNL     1       7.329  28.376  56.998  1.00  0.00    -0.321 N 
HETATM    2  C   UNL     1       6.319  27.442  56.905  1.00  0.00     0.245 C 
HETATM    3  O   UNL     1       5.193  27.493  57.378  1.00  0.00    -0.268 OA
HETATM    4  H   UNL     1       8.070  28.304  56.316  1.00  0.00     0.169 HD
ENDROOT
BRANCH   1   5
HETATM    5  C   UNL     1       7.379  29.530  57.817  1.00  0.00     0.071 A 
HETATM    6  C   UNL     1       6.526  30.654  57.718  1.00  0.00     0.096 A 
HETATM    7  C   UNL     1       6.689  31.770  58.555  1.00  0.00     0.049 A 
HETATM    8  C   UNL     1       7.647  31.711  59.548  1.00  0.00    -0.020 A 
HETATM    9  C   UNL     1       8.438  30.588  59.694  1.00  0.00     0.078 A 
HETATM   10  C   UNL     1       8.042  32.728  60.547  1.00  0.00     0.073 C 
HETATM   11  C   UNL     1       8.330  29.499  58.850  1.00  0.00     0.069 A 
HETATM   12  O   UNL     1       9.325  30.669  60.735  1.00  0.00    -0.345 OA
HETATM   13  C   UNL     1       8.911  31.853  61.467  1.00  0.00     0.129 C 
HETATM   14  C   UNL     1       8.171  31.409  62.727  1.00  0.00     0.040 C 
BRANCH   6  15
HETATM   15  O   UNL     1       5.491  30.687  56.823  1.00  0.00    -0.349 OA
BRANCH  15  16
HETATM   16  C   UNL     1       4.225  30.877  57.461  1.00  0.00     0.171 C 
HETATM   17  C   UNL     1       3.119  30.622  56.453  1.00  0.00     0.034 C 
ENDBRANCH  15  16
ENDBRANCH   6  15
ENDBRANCH   1   5
BRANCH   2  18
HETATM   18  C   UNL     1       6.722  26.294  56.043  1.00  0.00     0.077 C 
HETATM   19  C   UNL     1       6.782  25.062  56.567  1.00  0.00     0.043 C 
BRANCH  19  20
HETATM   20  C   UNL     1       7.194  23.955  55.777  1.00  0.00     0.077 A 
HETATM   21  O   UNL     1       7.678  22.771  56.295  1.00  0.00    -0.310 OA
HETATM   22  C   UNL     1       7.966  21.936  55.264  1.00  0.00     0.086 A 
HETATM   23  C   UNL     1       7.679  22.547  54.055  1.00  0.00     0.000 A 
HETATM   24  C   UNL     1       8.475  20.645  55.387  1.00  0.00     0.038 A 
HETATM   25  C   UNL     1       7.192  23.835  54.391  1.00  0.00     0.051 A 
HETATM   26  C   UNL     1       7.906  21.831  52.867  1.00  0.00     0.014 A 
HETATM   27  C   UNL     1       8.416  20.528  52.955  1.00  0.00     0.001 A 
HETATM   28  C   UNL     1       8.697  19.947  54.195  1.00  0.00     0.003 A 
ENDBRANCH  19  20
ENDBRANCH   2  18
TORSDOF 5
ENDMDL
MODEL 3
REMARK VINA RESULT:      -9.2      7.348     10.226
REMARK  5 active torsions:
REMARK  status: ('A' for Active; 'I' for Inactive)
REMARK    1  A    between atoms: C_2  and  O_3 
REMARK    2  A    between atoms: O_3  and  C_4 
REMARK    3  A    between atoms: C_5  and  N_6 
REMARK       I    between atoms: N_6  and  C_7 
REMARK    4  A    between atoms: C_7  and  C_8 
REMARK    5  A    between atoms: C_9  and  C_10 
ROOT
HETATM    1  N   UNL     1       5.170  26.727  50.741  1.00  0.00    -0.321 N 
HETATM    2  C   UNL     1       4.874  26.522  52.073  1.00  0.00     0.245 C 
HETATM    3  O   UNL     1       4.229  27.238  52.824  1.00  0.00    -0.268 OA
HETATM    4  H   UNL     1       5.453  25.912  50.215  1.00  0.00     0.169 HD
ENDROOT
BRANCH   1   5
HETATM    5  C   UNL     1       4.964  27.896  49.970  1.00  0.00     0.071 A 
HETATM    6  C   UNL     1       3.942  28.086  49.011  1.00  0.00     0.096 A 
HETATM    7  C   UNL     1       3.852  29.274  48.266  1.00  0.00     0.049 A 
HETATM    8  C   UNL     1       4.731  30.298  48.557  1.00  0.00    -0.020 A 
HETATM    9  C   UNL     1       5.689  30.144  49.540  1.00  0.00     0.078 A 
HETATM   10  C   UNL     1       4.875  31.631  47.931  1.00  0.00     0.073 C 
HETATM   11  C   UNL     1       5.829  28.966  50.250  1.00  0.00     0.069 A 
HETATM   12  O   UNL     1       6.472  31.252  49.728  1.00  0.00    -0.345 OA
HETATM   13  C   UNL     1       5.810  32.292  48.958  1.00  0.00     0.129 C 
HETATM   14  C   UNL     1       5.067  33.211  49.925  1.00  0.00     0.040 C 
BRANCH   6  15
HETATM   15  O   UNL     1       2.985  27.133  48.790  1.00  0.00    -0.349 OA
BRANCH  15  16
HETATM   16  C   UNL     1       3.255  26.350  47.623  1.00  0.00     0.171 C 
HETATM   17  C   UNL     1       3.044  24.883  47.952  1.00  0.00     0.034 C 
ENDBRANCH  15  16
ENDBRANCH   6  15
ENDBRANCH   1   5
BRANCH   2  18
HETATM   18  C   UNL     1       5.391  25.206  52.545  1.00  0.00     0.077 C 
HETATM   19  C   UNL     1       6.568  25.148  53.185  1.00  0.00     0.043 C 
BRANCH  19  20
HETATM   20  C   UNL     1       7.099  23.903  53.618  1.00  0.00     0.077 A 
HETATM   21  O   UNL     1       7.156  23.503  54.937  1.00  0.00    -0.310 OA
HETATM   22  C   UNL     1       7.712  22.265  54.988  1.00  0.00     0.086 A 
HETATM   23  C   UNL     1       8.027  21.827  53.713  1.00  0.00     0.000 A 
HETATM   24  C   UNL     1       7.937  21.526  56.147  1.00  0.00     0.038 A 
HETATM   25  C   UNL     1       7.638  22.879  52.846  1.00  0.00     0.051 A 
HETATM   26  C   UNL     1       8.609  20.556  53.560  1.00  0.00     0.014 A 
HETATM   27  C   UNL     1       8.846  19.785  54.707  1.00  0.00     0.001 A 
HETATM   28  C   UNL     1       8.517  20.264  55.978  1.00  0.00     0.003 A 
ENDBRANCH  19  20
ENDBRANCH   2  18
TORSDOF 5
ENDMDL
MODEL 4
REMARK VINA RESULT:      -9.0      2.229      9.760
REMARK  5 active torsions:
REMARK  status: ('A' for Active; 'I' for Inactive)
REMARK    1  A    between atoms: C_2  and  O_3 
REMARK    2  A    between atoms: O_3  and  C_4 
REMARK    3  A    between atoms: C_5  and  N_6 
REMARK       I    between atoms: N_6  and  C_7 
REMARK    4  A    between atoms: C_7  and  C_8 
REMARK    5  A    between atoms: C_9  and  C_10 
ROOT
HETATM    1  N   UNL     1       7.289  28.528  57.443  1.00  0.00    -0.321 N 
HETATM    2  C   UNL     1       7.413  28.213  56.106  1.00  0.00     0.245 C 
HETATM    3  O   UNL     1       7.402  28.969  55.146  1.00  0.00    -0.268 OA
HETATM    4  H   UNL     1       7.609  27.830  58.099  1.00  0.00     0.169 HD
ENDROOT
BRANCH   1   5
HETATM    5  C   UNL     1       6.932  29.772  58.019  1.00  0.00     0.071 A 
HETATM    6  C   UNL     1       7.775  30.596  58.800  1.00  0.00     0.096 A 
HETATM    7  C   UNL     1       7.305  31.795  59.362  1.00  0.00     0.049 A 
HETATM    8  C   UNL     1       6.023  32.204  59.058  1.00  0.00    -0.020 A 
HETATM    9  C   UNL     1       5.217  31.437  58.239  1.00  0.00     0.078 A 
HETATM   10  C   UNL     1       5.273  33.395  59.514  1.00  0.00     0.073 C 
HETATM   11  C   UNL     1       5.638  30.229  57.716  1.00  0.00     0.069 A 
HETATM   12  O   UNL     1       3.981  31.983  58.012  1.00  0.00    -0.345 OA
HETATM   13  C   UNL     1       4.083  33.332  58.542  1.00  0.00     0.129 C 
HETATM   14  C   UNL     1       4.227  34.303  57.372  1.00  0.00     0.040 C 
BRANCH   6  15
HETATM   15  O   UNL     1       9.087  30.273  59.016  1.00  0.00    -0.349 OA
BRANCH  15  16
HETATM   16  C   UNL     1       9.976  31.022  58.182  1.00  0.00     0.171 C 
HETATM   17  C   UNL     1      10.606  30.087  57.165  1.00  0.00     0.034 C 
ENDBRANCH  15  16
ENDBRANCH   6  15
ENDBRANCH   1   5
BRANCH   2  18
HETATM   18  C   UNL     1       7.654  26.755  55.915  1.00  0.00     0.077 C 
HETATM   19  C   UNL     1       7.364  26.186  54.736  1.00  0.00     0.043 C 
BRANCH  19  20
HETATM   20  C   UNL     1       7.553  24.791  54.535  1.00  0.00     0.077 A 
HETATM   21  O   UNL     1       7.561  23.858  55.551  1.00  0.00    -0.310 OA
HETATM   22  C   UNL     1       7.758  22.631  55.006  1.00  0.00     0.086 A 
HETATM   23  C   UNL     1       7.881  22.729  53.630  1.00  0.00     0.000 A 
HETATM   24  C   UNL     1       7.827  21.432  55.713  1.00  0.00     0.038 A 
HETATM   25  C   UNL     1       7.754  24.111  53.339  1.00  0.00     0.051 A 
HETATM   26  C   UNL     1       8.084  21.554  52.885  1.00  0.00     0.014 A 
HETATM   27  C   UNL     1       8.155  20.331  53.566  1.00  0.00     0.001 A 
HETATM   28  C   UNL     1       8.030  20.273  54.957  1.00  0.00     0.003 A 
ENDBRANCH  19  20
ENDBRANCH   2  18
TORSDOF 5
ENDMDL
MODEL 5
REMARK VINA RESULT:      -8.3      5.247     10.086
REMARK  5 active torsions:
REMARK  status: ('A' for Active; 'I' for Inactive)
REMARK    1  A    between atoms: C_2  and  O_3 
REMARK    2  A    between atoms: O_3  and  C_4 
REMARK    3  A    between atoms: C_5  and  N_6 
REMARK       I    between atoms: N_6  and  C_7 
REMARK    4  A    between atoms: C_7  and  C_8 
REMARK    5  A    between atoms: C_9  and  C_10 
ROOT
HETATM    1  N   UNL     1       5.745  25.139  52.067  1.00  0.00    -0.321 N 
HETATM    2  C   UNL     1       5.759  26.454  51.652  1.00  0.00     0.245 C 
HETATM    3  O   UNL     1       6.481  27.362  52.036  1.00  0.00    -0.268 OA
HETATM    4  H   UNL     1       5.297  24.478  51.448  1.00  0.00     0.169 HD
ENDROOT
BRANCH   1   5
HETATM    5  C   UNL     1       6.428  24.561  53.165  1.00  0.00     0.071 A 
HETATM    6  C   UNL     1       6.222  24.878  54.528  1.00  0.00     0.096 A 
HETATM    7  C   UNL     1       6.987  24.275  55.541  1.00  0.00     0.049 A 
HETATM    8  C   UNL     1       7.886  23.290  55.185  1.00  0.00    -0.020 A 
HETATM    9  C   UNL     1       8.043  22.928  53.861  1.00  0.00     0.078 A 
HETATM   10  C   UNL     1       8.820  22.509  56.026  1.00  0.00     0.073 C 
HETATM   11  C   UNL     1       7.340  23.542  52.843  1.00  0.00     0.069 A 
HETATM   12  O   UNL     1       8.955  21.923  53.668  1.00  0.00    -0.345 OA
HETATM   13  C   UNL     1       9.240  21.437  55.007  1.00  0.00     0.129 C 
HETATM   14  C   UNL     1       8.504  20.113  55.208  1.00  0.00     0.040 C 
BRANCH   6  15
HETATM   15  O   UNL     1       5.252  25.762  54.916  1.00  0.00    -0.349 OA
BRANCH  15  16
HETATM   16  C   UNL     1       5.800  26.970  55.451  1.00  0.00     0.171 C 
HETATM   17  C   UNL     1       4.977  27.397  56.653  1.00  0.00     0.034 C 
ENDBRANCH  15  16
ENDBRANCH   6  15
ENDBRANCH   1   5
BRANCH   2  18
HETATM   18  C   UNL     1       4.784  26.683  50.549  1.00  0.00     0.077 C 
HETATM   19  C   UNL     1       4.235  27.896  50.391  1.00  0.00     0.043 C 
BRANCH  19  20
HETATM   20  C   UNL     1       3.279  28.134  49.367  1.00  0.00     0.077 A 
HETATM   21  O   UNL     1       2.635  27.138  48.663  1.00  0.00    -0.310 OA
HETATM   22  C   UNL     1       1.788  27.717  47.774  1.00  0.00     0.086 A 
HETATM   23  C   UNL     1       1.855  29.097  47.875  1.00  0.00     0.000 A 
HETATM   24  C   UNL     1       0.962  27.038  46.883  1.00  0.00     0.038 A 
HETATM   25  C   UNL     1       2.811  29.354  48.890  1.00  0.00     0.051 A 
HETATM   26  C   UNL     1       1.040  29.875  47.035  1.00  0.00     0.014 A 
HETATM   27  C   UNL     1       0.194  29.222  46.128  1.00  0.00     0.001 A 
HETATM   28  C   UNL     1       0.158  27.827  46.053  1.00  0.00     0.003 A 
ENDBRANCH  19  20
ENDBRANCH   2  18
TORSDOF 5
ENDMDL
MODEL 6
REMARK VINA RESULT:      -8.3      7.318     10.577
REMARK  5 active torsions:
REMARK  status: ('A' for Active; 'I' for Inactive)
REMARK    1  A    between atoms: C_2  and  O_3 
REMARK    2  A    between atoms: O_3  and  C_4 
REMARK    3  A    between atoms: C_5  and  N_6 
REMARK       I    between atoms: N_6  and  C_7 
REMARK    4  A    between atoms: C_7  and  C_8 
REMARK    5  A    between atoms: C_9  and  C_10 
ROOT
HETATM    1  N   UNL     1       4.250  27.185  50.521  1.00  0.00    -0.321 N 
HETATM    2  C   UNL     1       5.390  27.252  51.295  1.00  0.00     0.245 C 
HETATM    3  O   UNL     1       5.970  28.247  51.704  1.00  0.00    -0.268 OA
HETATM    4  H   UNL     1       3.756  26.304  50.526  1.00  0.00     0.169 HD
ENDROOT
BRANCH   1   5
HETATM    5  C   UNL     1       3.583  28.241  49.854  1.00  0.00     0.071 A 
HETATM    6  C   UNL     1       3.375  28.339  48.459  1.00  0.00     0.096 A 
HETATM    7  C   UNL     1       2.736  29.456  47.894  1.00  0.00     0.049 A 
HETATM    8  C   UNL     1       2.227  30.420  48.741  1.00  0.00    -0.020 A 
HETATM    9  C   UNL     1       2.367  30.295  50.110  1.00  0.00     0.078 A 
HETATM   10  C   UNL     1       1.532  31.688  48.428  1.00  0.00     0.073 C 
HETATM   11  C   UNL     1       3.036  29.233  50.687  1.00  0.00     0.069 A 
HETATM   12  O   UNL     1       1.793  31.318  50.819  1.00  0.00    -0.345 OA
HETATM   13  C   UNL     1       1.013  32.044  49.831  1.00  0.00     0.129 C 
HETATM   14  C   UNL     1      -0.461  31.690  50.021  1.00  0.00     0.040 C 
BRANCH   6  15
HETATM   15  O   UNL     1       3.762  27.340  47.608  1.00  0.00    -0.349 OA
BRANCH  15  16
HETATM   16  C   UNL     1       2.686  26.453  47.286  1.00  0.00     0.171 C 
HETATM   17  C   UNL     1       3.091  25.034  47.645  1.00  0.00     0.034 C 
ENDBRANCH  15  16
ENDBRANCH   6  15
ENDBRANCH   1   5
BRANCH   2  18
HETATM   18  C   UNL     1       5.857  25.893  51.688  1.00  0.00     0.077 C 
HETATM   19  C   UNL     1       6.426  25.710  52.888  1.00  0.00     0.043 C 
BRANCH  19  20
HETATM   20  C   UNL     1       6.910  24.430  53.276  1.00  0.00     0.077 A 
HETATM   21  O   UNL     1       6.927  23.972  54.577  1.00  0.00    -0.310 OA
HETATM   22  C   UNL     1       7.443  22.716  54.584  1.00  0.00     0.086 A 
HETATM   23  C   UNL     1       7.772  22.324  53.297  1.00  0.00     0.000 A 
HETATM   24  C   UNL     1       7.620  21.920  55.713  1.00  0.00     0.038 A 
HETATM   25  C   UNL     1       7.434  23.425  52.470  1.00  0.00     0.051 A 
HETATM   26  C   UNL     1       8.317  21.043  53.100  1.00  0.00     0.014 A 
HETATM   27  C   UNL     1       8.506  20.216  54.216  1.00  0.00     0.001 A 
HETATM   28  C   UNL     1       8.165  20.649  55.500  1.00  0.00     0.003 A 
ENDBRANCH  19  20
ENDBRANCH   2  18
TORSDOF 5
ENDMDL
MODEL 7
REMARK VINA RESULT:      -8.2      3.227      9.582
REMARK  5 active torsions:
REMARK  status: ('A' for Active; 'I' for Inactive)
REMARK    1  A    between atoms: C_2  and  O_3 
REMARK    2  A    between atoms: O_3  and  C_4 
REMARK    3  A    between atoms: C_5  and  N_6 
REMARK       I    between atoms: N_6  and  C_7 
REMARK    4  A    between atoms: C_7  and  C_8 
REMARK    5  A    between atoms: C_9  and  C_10 
ROOT
HETATM    1  N   UNL     1       6.204  28.299  55.026  1.00  0.00    -0.321 N 
HETATM    2  C   UNL     1       6.766  27.955  53.815  1.00  0.00     0.245 C 
HETATM    3  O   UNL     1       6.886  28.644  52.813  1.00  0.00    -0.268 OA
HETATM    4  H   UNL     1       6.450  27.718  55.816  1.00  0.00     0.169 HD
ENDROOT
BRANCH   1   5
HETATM    5  C   UNL     1       5.463  29.463  55.347  1.00  0.00     0.071 A 
HETATM    6  C   UNL     1       4.197  29.809  54.822  1.00  0.00     0.096 A 
HETATM    7  C   UNL     1       3.565  31.014  55.175  1.00  0.00     0.049 A 
HETATM    8  C   UNL     1       4.166  31.815  56.125  1.00  0.00    -0.020 A 
HETATM    9  C   UNL     1       5.371  31.448  56.693  1.00  0.00     0.078 A 
HETATM   10  C   UNL     1       3.742  33.125  56.668  1.00  0.00     0.073 C 
HETATM   11  C   UNL     1       6.036  30.294  56.324  1.00  0.00     0.069 A 
HETATM   12  O   UNL     1       5.831  32.333  57.633  1.00  0.00    -0.345 OA
HETATM   13  C   UNL     1       4.710  33.230  57.858  1.00  0.00     0.129 C 
HETATM   14  C   UNL     1       4.052  32.859  59.186  1.00  0.00     0.040 C 
BRANCH   6  15
HETATM   15  O   UNL     1       3.524  28.975  53.971  1.00  0.00    -0.349 OA
BRANCH  15  16
HETATM   16  C   UNL     1       3.310  29.565  52.685  1.00  0.00     0.171 C 
HETATM   17  C   UNL     1       3.808  28.611  51.614  1.00  0.00     0.034 C 
ENDBRANCH  15  16
ENDBRANCH   6  15
ENDBRANCH   1   5
BRANCH   2  18
HETATM   18  C   UNL     1       7.328  26.575  53.853  1.00  0.00     0.077 C 
HETATM   19  C   UNL     1       6.512  25.533  54.068  1.00  0.00     0.043 C 
BRANCH  19  20
HETATM   20  C   UNL     1       7.025  24.210  54.141  1.00  0.00     0.077 A 
HETATM   21  O   UNL     1       7.119  23.480  55.308  1.00  0.00    -0.310 OA
HETATM   22  C   UNL     1       7.643  22.263  55.013  1.00  0.00     0.086 A 
HETATM   23  C   UNL     1       7.902  22.166  53.656  1.00  0.00     0.000 A 
HETATM   24  C   UNL     1       7.890  21.244  55.930  1.00  0.00     0.038 A 
HETATM   25  C   UNL     1       7.510  23.414  53.108  1.00  0.00     0.051 A 
HETATM   26  C   UNL     1       8.444  20.970  53.155  1.00  0.00     0.014 A 
HETATM   27  C   UNL     1       8.702  19.923  54.052  1.00  0.00     0.001 A 
HETATM   28  C   UNL     1       8.431  20.060  55.416  1.00  0.00     0.003 A 
ENDBRANCH  19  20
ENDBRANCH   2  18
TORSDOF 5
ENDMDL
MODEL 8
REMARK VINA RESULT:      -8.2      2.511      4.622
REMARK  5 active torsions:
REMARK  status: ('A' for Active; 'I' for Inactive)
REMARK    1  A    between atoms: C_2  and  O_3 
REMARK    2  A    between atoms: O_3  and  C_4 
REMARK    3  A    between atoms: C_5  and  N_6 
REMARK       I    between atoms: N_6  and  C_7 
REMARK    4  A    between atoms: C_7  and  C_8 
REMARK    5  A    between atoms: C_9  and  C_10 
ROOT
HETATM    1  N   UNL     1       6.132  28.511  54.187  1.00  0.00    -0.321 N 
HETATM    2  C   UNL     1       7.393  28.635  54.731  1.00  0.00     0.245 C 
HETATM    3  O   UNL     1       8.467  28.336  54.229  1.00  0.00    -0.268 OA
HETATM    4  H   UNL     1       5.404  29.067  54.614  1.00  0.00     0.169 HD
ENDROOT
BRANCH   1   5
HETATM    5  C   UNL     1       5.753  27.838  53.000  1.00  0.00     0.071 A 
HETATM    6  C   UNL     1       5.658  26.437  52.837  1.00  0.00     0.096 A 
HETATM    7  C   UNL     1       5.314  25.868  51.599  1.00  0.00     0.049 A 
HETATM    8  C   UNL     1       4.976  26.713  50.561  1.00  0.00    -0.020 A 
HETATM    9  C   UNL     1       5.000  28.082  50.734  1.00  0.00     0.078 A 
HETATM   10  C   UNL     1       4.595  26.397  49.167  1.00  0.00     0.073 C 
HETATM   11  C   UNL     1       5.385  28.666  51.927  1.00  0.00     0.069 A 
HETATM   12  O   UNL     1       4.619  28.787  49.622  1.00  0.00    -0.345 OA
HETATM   13  C   UNL     1       4.080  27.778  48.727  1.00  0.00     0.129 C 
HETATM   14  C   UNL     1       2.555  27.873  48.753  1.00  0.00     0.040 C 
BRANCH   6  15
HETATM   15  O   UNL     1       5.870  25.581  53.884  1.00  0.00    -0.349 OA
BRANCH  15  16
HETATM   16  C   UNL     1       7.160  24.963  53.829  1.00  0.00     0.171 C 
HETATM   17  C   UNL     1       7.092  23.611  54.516  1.00  0.00     0.034 C 
ENDBRANCH  15  16
ENDBRANCH   6  15
ENDBRANCH   1   5
BRANCH   2  18
HETATM   18  C   UNL     1       7.343  29.287  56.070  1.00  0.00     0.077 C 
HETATM   19  C   UNL     1       8.484  29.664  56.665  1.00  0.00     0.043 C 
BRANCH  19  20
HETATM   20  C   UNL     1       8.469  30.259  57.956  1.00  0.00     0.077 A 
HETATM   21  O   UNL     1       7.393  30.948  58.477  1.00  0.00    -0.310 OA
HETATM   22  C   UNL     1       7.718  31.371  59.726  1.00  0.00     0.086 A 
HETATM   23  C   UNL     1       9.003  30.970  60.051  1.00  0.00     0.000 A 
HETATM   24  C   UNL     1       6.889  32.102  60.573  1.00  0.00     0.038 A 
HETATM   25  C   UNL     1       9.476  30.266  58.915  1.00  0.00     0.051 A 
HETATM   26  C   UNL     1       9.517  31.311  61.315  1.00  0.00     0.014 A 
HETATM   27  C   UNL     1       8.706  32.044  62.193  1.00  0.00     0.001 A 
HETATM   28  C   UNL     1       7.415  32.433  61.827  1.00  0.00     0.003 A 
ENDBRANCH  19  20
ENDBRANCH   2  18
TORSDOF 5
ENDMDL
MODEL 9
REMARK VINA RESULT:      -8.2      1.843      2.521
REMARK  5 active torsions:
REMARK  status: ('A' for Active; 'I' for Inactive)
REMARK    1  A    between atoms: C_2  and  O_3 
REMARK    2  A    between atoms: O_3  and  C_4 
REMARK    3  A    between atoms: C_5  and  N_6 
REMARK       I    between atoms: N_6  and  C_7 
REMARK    4  A    between atoms: C_7  and  C_8 
REMARK    5  A    between atoms: C_9  and  C_10 
ROOT
HETATM    1  N   UNL     1       5.442  28.897  56.418  1.00  0.00    -0.321 N 
HETATM    2  C   UNL     1       6.568  29.620  56.754  1.00  0.00     0.245 C 
HETATM    3  O   UNL     1       7.605  29.746  56.120  1.00  0.00    -0.268 OA
HETATM    4  H   UNL     1       4.592  29.139  56.906  1.00  0.00     0.169 HD
ENDROOT
BRANCH   1   5
HETATM    5  C   UNL     1       5.281  27.976  55.354  1.00  0.00     0.071 A 
HETATM    6  C   UNL     1       4.460  28.158  54.218  1.00  0.00     0.096 A 
HETATM    7  C   UNL     1       4.338  27.158  53.238  1.00  0.00     0.049 A 
HETATM    8  C   UNL     1       5.113  26.023  53.359  1.00  0.00    -0.020 A 
HETATM    9  C   UNL     1       5.969  25.868  54.432  1.00  0.00     0.078 A 
HETATM   10  C   UNL     1       5.176  24.821  52.499  1.00  0.00     0.073 C 
HETATM   11  C   UNL     1       6.068  26.815  55.435  1.00  0.00     0.069 A 
HETATM   12  O   UNL     1       6.686  24.701  54.404  1.00  0.00    -0.345 OA
HETATM   13  C   UNL     1       6.442  24.164  53.076  1.00  0.00     0.129 C 
HETATM   14  C   UNL     1       7.679  24.416  52.216  1.00  0.00     0.040 C 
BRANCH   6  15
HETATM   15  O   UNL     1       3.775  29.325  54.013  1.00  0.00    -0.349 OA
BRANCH  15  16
HETATM   16  C   UNL     1       4.294  30.074  52.909  1.00  0.00     0.171 C 
HETATM   17  C   UNL     1       3.153  30.436  51.976  1.00  0.00     0.034 C 
ENDBRANCH  15  16
ENDBRANCH   6  15
ENDBRANCH   1   5
BRANCH   2  18
HETATM   18  C   UNL     1       6.372  30.359  58.034  1.00  0.00     0.077 C 
HETATM   19  C   UNL     1       7.424  30.940  58.629  1.00  0.00     0.043 C 
BRANCH  19  20
HETATM   20  C   UNL     1       7.272  31.624  59.866  1.00  0.00     0.077 A 
HETATM   21  O   UNL     1       8.026  31.363  60.992  1.00  0.00    -0.310 OA
HETATM   22  C   UNL     1       7.625  32.200  61.982  1.00  0.00     0.086 A 
HETATM   23  C   UNL     1       6.607  33.025  61.532  1.00  0.00     0.000 A 
HETATM   24  C   UNL     1       8.151  32.239  63.271  1.00  0.00     0.038 A 
HETATM   25  C   UNL     1       6.385  32.648  60.184  1.00  0.00     0.051 A 
HETATM   26  C   UNL     1       6.063  33.971  62.419  1.00  0.00     0.014 A 
HETATM   27  C   UNL     1       6.573  34.038  63.723  1.00  0.00     0.001 A 
HETATM   28  C   UNL     1       7.598  33.185  64.141  1.00  0.00     0.003 A 
ENDBRANCH  19  20
ENDBRANCH   2  18
TORSDOF 5
ENDMDL
MODEL 10
REMARK VINA RESULT:      -8.1      3.245      9.760
REMARK  5 active torsions:
REMARK  status: ('A' for Active; 'I' for Inactive)
REMARK    1  A    between atoms: C_2  and  O_3 
REMARK    2  A    between atoms: O_3  and  C_4 
REMARK    3  A    between atoms: C_5  and  N_6 
REMARK       I    between atoms: N_6  and  C_7 
REMARK    4  A    between atoms: C_7  and  C_8 
REMARK    5  A    between atoms: C_9  and  C_10 
ROOT
HETATM    1  N   UNL     1       5.637  28.257  54.947  1.00  0.00    -0.321 N 
HETATM    2  C   UNL     1       5.938  27.895  53.651  1.00  0.00     0.245 C 
HETATM    3  O   UNL     1       6.029  28.613  52.666  1.00  0.00    -0.268 OA
HETATM    4  H   UNL     1       5.890  27.595  55.667  1.00  0.00     0.169 HD
ENDROOT
BRANCH   1   5
HETATM    5  C   UNL     1       5.178  29.510  55.421  1.00  0.00     0.071 A 
HETATM    6  C   UNL     1       5.886  30.381  56.280  1.00  0.00     0.096 A 
HETATM    7  C   UNL     1       5.318  31.586  56.726  1.00  0.00     0.049 A 
HETATM    8  C   UNL     1       4.082  31.952  56.232  1.00  0.00    -0.020 A 
HETATM    9  C   UNL     1       3.414  31.137  55.339  1.00  0.00     0.078 A 
HETATM   10  C   UNL     1       3.251  33.138  56.535  1.00  0.00     0.073 C 
HETATM   11  C   UNL     1       3.930  29.923  54.925  1.00  0.00     0.069 A 
HETATM   12  O   UNL     1       2.211  31.643  54.922  1.00  0.00    -0.345 OA
HETATM   13  C   UNL     1       2.210  33.011  55.411  1.00  0.00     0.129 C 
HETATM   14  C   UNL     1       2.496  33.945  54.236  1.00  0.00     0.040 C 
BRANCH   6  15
HETATM   15  O   UNL     1       7.161  30.100  56.688  1.00  0.00    -0.349 OA
BRANCH  15  16
HETATM   16  C   UNL     1       7.200  29.524  57.997  1.00  0.00     0.171 C 
HETATM   17  C   UNL     1       7.628  28.072  57.887  1.00  0.00     0.034 C 
ENDBRANCH  15  16
ENDBRANCH   6  15
ENDBRANCH   1   5
BRANCH   2  18
HETATM   18  C   UNL     1       6.239  26.439  53.552  1.00  0.00     0.077 C 
HETATM   19  C   UNL     1       7.127  25.889  54.393  1.00  0.00     0.043 C 
BRANCH  19  20
HETATM   20  C   UNL     1       7.458  24.509  54.301  1.00  0.00     0.077 A 
HETATM   21  O   UNL     1       7.454  23.640  55.372  1.00  0.00    -0.310 OA
HETATM   22  C   UNL     1       7.808  22.407  54.927  1.00  0.00     0.086 A 
HETATM   23  C   UNL     1       8.049  22.439  53.563  1.00  0.00     0.000 A 
HETATM   24  C   UNL     1       7.917  21.263  55.713  1.00  0.00     0.038 A 
HETATM   25  C   UNL     1       7.828  23.784  53.173  1.00  0.00     0.051 A 
HETATM   26  C   UNL     1       8.423  21.248  52.916  1.00  0.00     0.014 A 
HETATM   27  C   UNL     1       8.539  20.078  53.679  1.00  0.00     0.001 A 
HETATM   28  C   UNL     1       8.291  20.087  55.054  1.00  0.00     0.003 A 
ENDBRANCH  19  20
ENDBRANCH   2  18
TORSDOF 5
ENDMDL
