MODEL 1
REMARK VINA RESULT:     -11.1      0.000      0.000
REMARK  8 active torsions:
REMARK  status: ('A' for Active; 'I' for Inactive)
REMARK    1  A    between atoms: C_8  and  N_9 
REMARK    2  A    between atoms: N_9  and  C_10 
REMARK    3  A    between atoms: N_14  and  C_15 
REMARK    4  A    between atoms: C_15  and  C_16 
REMARK    5  A    between atoms: C_28  and  N_29 
REMARK       I    between atoms: N_29  and  C_30 
REMARK    6  A    between atoms: C_30  and  O_31 
REMARK    7  A    between atoms: O_31  and  C_32 
REMARK    8  A    between atoms: C_32  and  C_33 
ROOT
HETATM    1  C   UNL     1       5.136  32.601  59.263  1.00  0.00     0.053 C 
HETATM    2  C   UNL     1       6.096  32.493  60.396  1.00  0.00    -0.002 A 
HETATM    3  C   UNL     1       7.267  31.736  60.442  1.00  0.00     0.106 A 
HETATM    4  N   UNL     1       7.850  31.929  61.661  1.00  0.00    -0.238 N 
HETATM    5  N   UNL     1       8.984  31.356  62.080  1.00  0.00    -0.161 NA
HETATM    6  C   UNL     1       9.532  30.584  61.196  1.00  0.00     0.257 A 
HETATM    7  N   UNL     1       9.076  30.337  59.931  1.00  0.00    -0.226 NA
HETATM    8  C   UNL     1       7.973  30.887  59.511  1.00  0.00     0.138 A 
HETATM    9  C   UNL     1       7.118  32.825  62.385  1.00  0.00     0.149 A 
HETATM   10  C   UNL     1       6.034  33.212  61.635  1.00  0.00     0.062 A 
ENDROOT
BRANCH   8  11
HETATM   11  N   UNL     1       7.520  30.659  58.220  1.00  0.00    -0.242 NA
HETATM   12  H   UNL     1       7.979  31.227  57.524  1.00  0.00     0.135 HD
BRANCH  11  13
HETATM   13  C   UNL     1       7.366  29.330  57.728  1.00  0.00     0.015 A 
HETATM   14  C   UNL     1       6.104  28.758  57.504  1.00  0.00     0.039 A 
HETATM   15  C   UNL     1       6.006  27.400  57.144  1.00  0.00     0.013 A 
HETATM   16  C   UNL     1       7.166  26.648  56.997  1.00  0.00     0.065 A 
HETATM   17  C   UNL     1       4.955  26.498  56.879  1.00  0.00     0.152 A 
HETATM   18  N   UNL     1       6.730  25.361  56.762  1.00  0.00    -0.265 N 
HETATM   19  C   UNL     1       8.441  27.205  57.135  1.00  0.00     0.034 A 
HETATM   20  N   UNL     1       5.388  25.257  56.644  1.00  0.00    -0.183 NA
HETATM   21  C   UNL     1       8.514  28.557  57.493  1.00  0.00     0.026 A 
BRANCH  18  22
HETATM   22  C   UNL     1       7.545  24.149  56.735  1.00  0.00     0.190 C 
BRANCH  22  23
HETATM   23  C   UNL     1       7.687  23.575  55.339  1.00  0.00    -0.035 A 
HETATM   24  C   UNL     1       7.832  24.406  54.215  1.00  0.00     0.051 A 
HETATM   25  C   UNL     1       7.936  23.850  52.943  1.00  0.00     0.117 A 
HETATM   26  F   UNL     1       8.035  24.654  51.877  1.00  0.00    -0.206 F 
HETATM   27  C   UNL     1       7.930  22.473  52.762  1.00  0.00     0.042 A 
HETATM   28  C   UNL     1       7.823  21.636  53.870  1.00  0.00     0.004 A 
HETATM   29  C   UNL     1       7.705  22.183  55.153  1.00  0.00     0.009 A 
ENDBRANCH  22  23
ENDBRANCH  18  22
ENDBRANCH  11  13
ENDBRANCH   8  11
BRANCH  10  30
HETATM   30  N   UNL     1       5.073  34.141  61.993  1.00  0.00    -0.301 N 
HETATM   31  C   UNL     1       3.819  33.847  62.440  1.00  0.00     0.365 C 
HETATM   32  O   UNL     1       3.285  32.752  62.550  1.00  0.00    -0.238 OA
HETATM   33  H   UNL     1       5.357  35.107  62.085  1.00  0.00     0.171 HD
BRANCH  31  34
HETATM   34  O   UNL     1       3.200  34.992  62.830  1.00  0.00    -0.302 OA
BRANCH  34  35
HETATM   35  C   UNL     1       3.616  35.581  64.085  1.00  0.00     0.215 C 
BRANCH  35  36
HETATM   36  C   UNL     1       3.298  34.739  65.346  1.00  0.00     0.233 C 
HETATM   37  N   UNL     1       4.285  33.593  65.525  1.00  0.00    -0.065 N 
HETATM   38  H   UNL     1       3.910  32.895  66.177  1.00  0.00     0.277 HD
HETATM   39  H   UNL     1       4.381  33.097  64.612  1.00  0.00     0.277 HD
HETATM   40  C   UNL     1       5.668  34.010  65.945  1.00  0.00     0.259 C 
HETATM   41  C   UNL     1       5.586  34.962  67.139  1.00  0.00     0.195 C 
HETATM   42  O   UNL     1       4.699  36.056  66.865  1.00  0.00    -0.387 OA
HETATM   43  C   UNL     1       3.362  35.603  66.620  1.00  0.00     0.202 C 
ENDBRANCH  35  36
ENDBRANCH  34  35
ENDBRANCH  31  34
ENDBRANCH  10  30
TORSDOF 8
ENDMDL
MODEL 2
REMARK VINA RESULT:     -10.8      1.762      2.864
REMARK  8 active torsions:
REMARK  status: ('A' for Active; 'I' for Inactive)
REMARK    1  A    between atoms: C_8  and  N_9 
REMARK    2  A    between atoms: N_9  and  C_10 
REMARK    3  A    between atoms: N_14  and  C_15 
REMARK    4  A    between atoms: C_15  and  C_16 
REMARK    5  A    between atoms: C_28  and  N_29 
REMARK       I    between atoms: N_29  and  C_30 
REMARK    6  A    between atoms: C_30  and  O_31 
REMARK    7  A    between atoms: O_31  and  C_32 
REMARK    8  A    between atoms: C_32  and  C_33 
ROOT
HETATM    1  C   UNL     1       7.165  31.836  60.747  1.00  0.00     0.053 C 
HETATM    2  C   UNL     1       5.821  32.222  60.232  1.00  0.00    -0.002 A 
HETATM    3  C   UNL     1       5.323  32.031  58.943  1.00  0.00     0.106 A 
HETATM    4  N   UNL     1       4.051  32.523  58.902  1.00  0.00    -0.238 N 
HETATM    5  N   UNL     1       3.255  32.530  57.827  1.00  0.00    -0.161 NA
HETATM    6  C   UNL     1       3.792  31.989  56.781  1.00  0.00     0.257 A 
HETATM    7  N   UNL     1       5.035  31.425  56.698  1.00  0.00    -0.226 NA
HETATM    8  C   UNL     1       5.821  31.412  57.737  1.00  0.00     0.138 A 
HETATM    9  C   UNL     1       3.695  32.983  60.137  1.00  0.00     0.149 A 
HETATM   10  C   UNL     1       4.752  32.801  60.994  1.00  0.00     0.062 A 
ENDROOT
BRANCH   8  11
HETATM   11  N   UNL     1       7.073  30.820  57.665  1.00  0.00    -0.242 NA
HETATM   12  H   UNL     1       7.674  31.051  58.442  1.00  0.00     0.135 HD
BRANCH  11  13
HETATM   13  C   UNL     1       7.206  29.436  57.352  1.00  0.00     0.015 A 
HETATM   14  C   UNL     1       6.096  28.584  57.248  1.00  0.00     0.039 A 
HETATM   15  C   UNL     1       6.290  27.201  57.069  1.00  0.00     0.013 A 
HETATM   16  C   UNL     1       7.584  26.699  56.978  1.00  0.00     0.065 A 
HETATM   17  C   UNL     1       5.457  26.069  56.959  1.00  0.00     0.152 A 
HETATM   18  N   UNL     1       7.434  25.331  56.925  1.00  0.00    -0.265 N 
HETATM   19  C   UNL     1       8.710  27.529  56.997  1.00  0.00     0.034 A 
HETATM   20  N   UNL     1       6.144  24.928  56.869  1.00  0.00    -0.183 NA
HETATM   21  C   UNL     1       8.492  28.901  57.177  1.00  0.00     0.026 A 
BRANCH  18  22
HETATM   22  C   UNL     1       8.490  24.327  57.023  1.00  0.00     0.190 C 
BRANCH  22  23
HETATM   23  C   UNL     1       8.299  23.183  56.047  1.00  0.00    -0.035 A 
HETATM   24  C   UNL     1       8.257  23.402  54.659  1.00  0.00     0.051 A 
HETATM   25  C   UNL     1       8.056  22.334  53.790  1.00  0.00     0.117 A 
HETATM   26  F   UNL     1       7.979  22.561  52.472  1.00  0.00    -0.206 F 
HETATM   27  C   UNL     1       7.925  21.037  54.267  1.00  0.00     0.042 A 
HETATM   28  C   UNL     1       8.000  20.800  55.638  1.00  0.00     0.004 A 
HETATM   29  C   UNL     1       8.189  21.866  56.524  1.00  0.00     0.009 A 
ENDBRANCH  22  23
ENDBRANCH  18  22
ENDBRANCH  11  13
ENDBRANCH   8  11
BRANCH  10  30
HETATM   30  N   UNL     1       4.780  33.096  62.346  1.00  0.00    -0.301 N 
HETATM   31  C   UNL     1       4.759  32.179  63.354  1.00  0.00     0.365 C 
HETATM   32  O   UNL     1       4.650  30.963  63.278  1.00  0.00    -0.238 OA
HETATM   33  H   UNL     1       4.988  34.046  62.620  1.00  0.00     0.171 HD
BRANCH  31  34
HETATM   34  O   UNL     1       4.940  32.813  64.543  1.00  0.00    -0.302 OA
BRANCH  34  35
HETATM   35  C   UNL     1       5.832  33.952  64.561  1.00  0.00     0.215 C 
BRANCH  35  36
HETATM   36  C   UNL     1       5.252  35.235  65.207  1.00  0.00     0.233 C 
HETATM   37  N   UNL     1       5.757  36.495  64.516  1.00  0.00    -0.065 N 
HETATM   38  H   UNL     1       5.601  37.317  65.110  1.00  0.00     0.277 HD
HETATM   39  H   UNL     1       6.792  36.419  64.412  1.00  0.00     0.277 HD
HETATM   40  C   UNL     1       5.194  36.730  63.141  1.00  0.00     0.259 C 
HETATM   41  C   UNL     1       3.671  36.595  63.170  1.00  0.00     0.195 C 
HETATM   42  O   UNL     1       3.275  35.350  63.763  1.00  0.00    -0.387 OA
HETATM   43  C   UNL     1       3.714  35.251  65.124  1.00  0.00     0.202 C 
ENDBRANCH  35  36
ENDBRANCH  34  35
ENDBRANCH  31  34
ENDBRANCH  10  30
TORSDOF 8
ENDMDL
MODEL 3
REMARK VINA RESULT:     -10.6      1.929      2.585
REMARK  8 active torsions:
REMARK  status: ('A' for Active; 'I' for Inactive)
REMARK    1  A    between atoms: C_8  and  N_9 
REMARK    2  A    between atoms: N_9  and  C_10 
REMARK    3  A    between atoms: N_14  and  C_15 
REMARK    4  A    between atoms: C_15  and  C_16 
REMARK    5  A    between atoms: C_28  and  N_29 
REMARK       I    between atoms: N_29  and  C_30 
REMARK    6  A    between atoms: C_30  and  O_31 
REMARK    7  A    between atoms: O_31  and  C_32 
REMARK    8  A    between atoms: C_32  and  C_33 
ROOT
HETATM    1  C   UNL     1       4.435  31.973  59.741  1.00  0.00     0.053 C 
HETATM    2  C   UNL     1       5.812  32.249  60.235  1.00  0.00    -0.002 A 
HETATM    3  C   UNL     1       7.016  31.861  59.646  1.00  0.00     0.106 A 
HETATM    4  N   UNL     1       8.038  32.327  60.421  1.00  0.00    -0.238 N 
HETATM    5  N   UNL     1       9.341  32.139  60.183  1.00  0.00    -0.161 NA
HETATM    6  C   UNL     1       9.579  31.473  59.099  1.00  0.00     0.257 A 
HETATM    7  N   UNL     1       8.654  30.987  58.217  1.00  0.00    -0.226 NA
HETATM    8  C   UNL     1       7.382  31.161  58.437  1.00  0.00     0.138 A 
HETATM    9  C   UNL     1       7.534  33.044  61.467  1.00  0.00     0.149 A 
HETATM   10  C   UNL     1       6.163  33.037  61.381  1.00  0.00     0.062 A 
ENDROOT
BRANCH   8  11
HETATM   11  N   UNL     1       6.441  30.691  57.533  1.00  0.00    -0.242 NA
HETATM   12  H   UNL     1       6.129  31.390  56.875  1.00  0.00     0.135 HD
BRANCH  11  13
HETATM   13  C   UNL     1       6.637  29.452  56.857  1.00  0.00     0.015 A 
HETATM   14  C   UNL     1       7.309  29.370  55.627  1.00  0.00     0.039 A 
HETATM   15  C   UNL     1       7.359  28.143  54.939  1.00  0.00     0.013 A 
HETATM   16  C   UNL     1       6.755  27.022  55.497  1.00  0.00     0.065 A 
HETATM   17  C   UNL     1       7.890  27.693  53.713  1.00  0.00     0.152 A 
HETATM   18  N   UNL     1       6.879  26.036  54.541  1.00  0.00    -0.265 N 
HETATM   19  C   UNL     1       6.146  27.049  56.756  1.00  0.00     0.034 A 
HETATM   20  N   UNL     1       7.605  26.413  53.465  1.00  0.00    -0.183 NA
HETATM   21  C   UNL     1       6.109  28.281  57.422  1.00  0.00     0.026 A 
BRANCH  18  22
HETATM   22  C   UNL     1       6.239  24.724  54.546  1.00  0.00     0.190 C 
BRANCH  22  23
HETATM   23  C   UNL     1       7.240  23.588  54.484  1.00  0.00    -0.035 A 
HETATM   24  C   UNL     1       7.317  22.736  53.368  1.00  0.00     0.051 A 
HETATM   25  C   UNL     1       8.231  21.687  53.351  1.00  0.00     0.117 A 
HETATM   26  F   UNL     1       8.268  20.860  52.298  1.00  0.00    -0.206 F 
HETATM   27  C   UNL     1       9.101  21.478  54.413  1.00  0.00     0.042 A 
HETATM   28  C   UNL     1       9.061  22.335  55.511  1.00  0.00     0.004 A 
HETATM   29  C   UNL     1       8.138  23.386  55.546  1.00  0.00     0.009 A 
ENDBRANCH  22  23
ENDBRANCH  18  22
ENDBRANCH  11  13
ENDBRANCH   8  11
BRANCH  10  30
HETATM   30  N   UNL     1       5.280  33.687  62.227  1.00  0.00    -0.301 N 
HETATM   31  C   UNL     1       4.729  33.153  63.354  1.00  0.00     0.365 C 
HETATM   32  O   UNL     1       4.844  32.018  63.796  1.00  0.00    -0.238 OA
HETATM   33  H   UNL     1       5.146  34.680  62.100  1.00  0.00     0.171 HD
BRANCH  31  34
HETATM   34  O   UNL     1       4.026  34.114  64.009  1.00  0.00    -0.302 OA
BRANCH  34  35
HETATM   35  C   UNL     1       4.781  35.162  64.663  1.00  0.00     0.215 C 
BRANCH  35  36
HETATM   36  C   UNL     1       4.219  36.593  64.478  1.00  0.00     0.233 C 
HETATM   37  N   UNL     1       5.328  37.636  64.445  1.00  0.00    -0.065 N 
HETATM   38  H   UNL     1       4.944  38.575  64.605  1.00  0.00     0.277 HD
HETATM   39  H   UNL     1       5.970  37.458  65.247  1.00  0.00     0.277 HD
HETATM   40  C   UNL     1       6.169  37.624  63.198  1.00  0.00     0.259 C 
HETATM   41  C   UNL     1       5.270  37.622  61.961  1.00  0.00     0.195 C 
HETATM   42  O   UNL     1       4.304  36.563  62.029  1.00  0.00    -0.387 OA
HETATM   43  C   UNL     1       3.434  36.715  63.158  1.00  0.00     0.202 C 
ENDBRANCH  35  36
ENDBRANCH  34  35
ENDBRANCH  31  34
ENDBRANCH  10  30
TORSDOF 8
ENDMDL
MODEL 4
REMARK VINA RESULT:     -10.6      1.362      1.647
REMARK  8 active torsions:
REMARK  status: ('A' for Active; 'I' for Inactive)
REMARK    1  A    between atoms: C_8  and  N_9 
REMARK    2  A    between atoms: N_9  and  C_10 
REMARK    3  A    between atoms: N_14  and  C_15 
REMARK    4  A    between atoms: C_15  and  C_16 
REMARK    5  A    between atoms: C_28  and  N_29 
REMARK       I    between atoms: N_29  and  C_30 
REMARK    6  A    between atoms: C_30  and  O_31 
REMARK    7  A    between atoms: O_31  and  C_32 
REMARK    8  A    between atoms: C_32  and  C_33 
ROOT
HETATM    1  C   UNL     1       4.550  31.881  59.202  1.00  0.00     0.053 C 
HETATM    2  C   UNL     1       5.794  32.219  59.948  1.00  0.00    -0.002 A 
HETATM    3  C   UNL     1       7.108  31.926  59.579  1.00  0.00     0.106 A 
HETATM    4  N   UNL     1       7.940  32.421  60.540  1.00  0.00    -0.238 N 
HETATM    5  N   UNL     1       9.274  32.320  60.540  1.00  0.00    -0.161 NA
HETATM    6  C   UNL     1       9.748  31.711  59.501  1.00  0.00     0.257 A 
HETATM    7  N   UNL     1       9.031  31.204  58.452  1.00  0.00    -0.226 NA
HETATM    8  C   UNL     1       7.732  31.294  58.439  1.00  0.00     0.138 A 
HETATM    9  C   UNL     1       7.209  33.068  61.494  1.00  0.00     0.149 A 
HETATM   10  C   UNL     1       5.880  32.983  61.159  1.00  0.00     0.062 A 
ENDROOT
BRANCH   8  11
HETATM   11  N   UNL     1       7.002  30.804  57.366  1.00  0.00    -0.242 NA
HETATM   12  H   UNL     1       7.156  31.312  56.508  1.00  0.00     0.135 HD
BRANCH  11  13
HETATM   13  C   UNL     1       6.960  29.406  57.094  1.00  0.00     0.015 A 
HETATM   14  C   UNL     1       5.763  28.674  57.130  1.00  0.00     0.039 A 
HETATM   15  C   UNL     1       5.794  27.275  56.984  1.00  0.00     0.013 A 
HETATM   16  C   UNL     1       7.014  26.636  56.787  1.00  0.00     0.065 A 
HETATM   17  C   UNL     1       4.842  26.235  56.998  1.00  0.00     0.152 A 
HETATM   18  N   UNL     1       6.719  25.290  56.800  1.00  0.00    -0.265 N 
HETATM   19  C   UNL     1       8.216  27.341  56.667  1.00  0.00     0.034 A 
HETATM   20  N   UNL     1       5.396  25.025  56.884  1.00  0.00    -0.183 NA
HETATM   21  C   UNL     1       8.159  28.733  56.815  1.00  0.00     0.026 A 
BRANCH  18  22
HETATM   22  C   UNL     1       7.671  24.183  56.833  1.00  0.00     0.190 C 
BRANCH  22  23
HETATM   23  C   UNL     1       7.753  23.447  55.510  1.00  0.00    -0.035 A 
HETATM   24  C   UNL     1       7.759  22.042  55.450  1.00  0.00     0.051 A 
HETATM   25  C   UNL     1       7.861  21.395  54.223  1.00  0.00     0.117 A 
HETATM   26  F   UNL     1       7.904  20.057  54.182  1.00  0.00    -0.206 F 
HETATM   27  C   UNL     1       7.926  22.116  53.037  1.00  0.00     0.042 A 
HETATM   28  C   UNL     1       7.886  23.508  53.078  1.00  0.00     0.004 A 
HETATM   29  C   UNL     1       7.797  24.170  54.307  1.00  0.00     0.009 A 
ENDBRANCH  22  23
ENDBRANCH  18  22
ENDBRANCH  11  13
ENDBRANCH   8  11
BRANCH  10  30
HETATM   30  N   UNL     1       4.818  33.547  61.845  1.00  0.00    -0.301 N 
HETATM   31  C   UNL     1       3.866  32.855  62.533  1.00  0.00     0.365 C 
HETATM   32  O   UNL     1       3.721  31.643  62.628  1.00  0.00    -0.238 OA
HETATM   33  H   UNL     1       4.823  34.547  61.987  1.00  0.00     0.171 HD
BRANCH  31  34
HETATM   34  O   UNL     1       3.065  33.729  63.197  1.00  0.00    -0.302 OA
BRANCH  34  35
HETATM   35  C   UNL     1       3.277  35.141  62.958  1.00  0.00     0.215 C 
BRANCH  35  36
HETATM   36  C   UNL     1       3.682  35.968  64.203  1.00  0.00     0.233 C 
HETATM   37  N   UNL     1       3.362  35.234  65.498  1.00  0.00    -0.065 N 
HETATM   38  H   UNL     1       3.368  35.886  66.291  1.00  0.00     0.277 HD
HETATM   39  H   UNL     1       2.383  34.877  65.440  1.00  0.00     0.277 HD
HETATM   40  C   UNL     1       4.244  34.051  65.789  1.00  0.00     0.259 C 
HETATM   41  C   UNL     1       5.713  34.445  65.636  1.00  0.00     0.195 C 
HETATM   42  O   UNL     1       5.952  35.057  64.361  1.00  0.00    -0.387 OA
HETATM   43  C   UNL     1       5.194  36.264  64.205  1.00  0.00     0.202 C 
ENDBRANCH  35  36
ENDBRANCH  34  35
ENDBRANCH  31  34
ENDBRANCH  10  30
TORSDOF 8
ENDMDL
MODEL 5
REMARK VINA RESULT:     -10.5      2.125      3.405
REMARK  8 active torsions:
REMARK  status: ('A' for Active; 'I' for Inactive)
REMARK    1  A    between atoms: C_8  and  N_9 
REMARK    2  A    between atoms: N_9  and  C_10 
REMARK    3  A    between atoms: N_14  and  C_15 
REMARK    4  A    between atoms: C_15  and  C_16 
REMARK    5  A    between atoms: C_28  and  N_29 
REMARK       I    between atoms: N_29  and  C_30 
REMARK    6  A    between atoms: C_30  and  O_31 
REMARK    7  A    between atoms: O_31  and  C_32 
REMARK    8  A    between atoms: C_32  and  C_33 
ROOT
HETATM    1  C   UNL     1       5.233  32.323  58.497  1.00  0.00     0.053 C 
HETATM    2  C   UNL     1       5.938  32.297  59.809  1.00  0.00    -0.002 A 
HETATM    3  C   UNL     1       7.115  31.617  60.123  1.00  0.00     0.106 A 
HETATM    4  N   UNL     1       7.416  31.870  61.430  1.00  0.00    -0.238 N 
HETATM    5  N   UNL     1       8.468  31.378  62.094  1.00  0.00    -0.161 NA
HETATM    6  C   UNL     1       9.234  30.627  61.370  1.00  0.00     0.257 A 
HETATM    7  N   UNL     1       9.070  30.327  60.046  1.00  0.00    -0.226 NA
HETATM    8  C   UNL     1       8.050  30.798  59.387  1.00  0.00     0.138 A 
HETATM    9  C   UNL     1       6.496  32.730  61.957  1.00  0.00     0.149 A 
HETATM   10  C   UNL     1       5.575  33.034  60.985  1.00  0.00     0.062 A 
ENDROOT
BRANCH   8  11
HETATM   11  N   UNL     1       7.892  30.517  58.038  1.00  0.00    -0.242 NA
HETATM   12  H   UNL     1       8.600  30.937  57.453  1.00  0.00     0.135 HD
BRANCH  11  13
HETATM   13  C   UNL     1       7.634  29.187  57.597  1.00  0.00     0.015 A 
HETATM   14  C   UNL     1       6.330  28.693  57.437  1.00  0.00     0.039 A 
HETATM   15  C   UNL     1       6.130  27.334  57.128  1.00  0.00     0.013 A 
HETATM   16  C   UNL     1       7.232  26.501  56.967  1.00  0.00     0.065 A 
HETATM   17  C   UNL     1       5.013  26.496  56.931  1.00  0.00     0.152 A 
HETATM   18  N   UNL     1       6.704  25.240  56.792  1.00  0.00    -0.265 N 
HETATM   19  C   UNL     1       8.545  26.976  57.042  1.00  0.00     0.034 A 
HETATM   20  N   UNL     1       5.354  25.222  56.724  1.00  0.00    -0.183 NA
HETATM   21  C   UNL     1       8.719  28.332  57.350  1.00  0.00     0.026 A 
BRANCH  18  22
HETATM   22  C   UNL     1       7.436  23.976  56.779  1.00  0.00     0.190 C 
BRANCH  22  23
HETATM   23  C   UNL     1       7.605  23.416  55.381  1.00  0.00    -0.035 A 
HETATM   24  C   UNL     1       7.687  22.032  55.149  1.00  0.00     0.051 A 
HETATM   25  C   UNL     1       7.866  21.549  53.856  1.00  0.00     0.117 A 
HETATM   26  F   UNL     1       7.982  20.231  53.654  1.00  0.00    -0.206 F 
HETATM   27  C   UNL     1       7.935  22.415  52.772  1.00  0.00     0.042 A 
HETATM   28  C   UNL     1       7.819  23.787  52.982  1.00  0.00     0.004 A 
HETATM   29  C   UNL     1       7.652  24.286  54.278  1.00  0.00     0.009 A 
ENDBRANCH  22  23
ENDBRANCH  18  22
ENDBRANCH  11  13
ENDBRANCH   8  11
BRANCH  10  30
HETATM   30  N   UNL     1       4.506  33.906  61.104  1.00  0.00    -0.301 N 
HETATM   31  C   UNL     1       3.443  33.741  61.941  1.00  0.00     0.365 C 
HETATM   32  O   UNL     1       3.191  32.798  62.678  1.00  0.00    -0.238 OA
HETATM   33  H   UNL     1       4.582  34.812  60.662  1.00  0.00     0.171 HD
BRANCH  31  34
HETATM   34  O   UNL     1       2.662  34.852  61.900  1.00  0.00    -0.302 OA
BRANCH  34  35
HETATM   35  C   UNL     1       3.159  35.990  61.156  1.00  0.00     0.215 C 
BRANCH  35  36
HETATM   36  C   UNL     1       2.225  36.504  60.033  1.00  0.00     0.233 C 
HETATM   37  N   UNL     1       3.005  37.183  58.915  1.00  0.00    -0.065 N 
HETATM   38  H   UNL     1       2.378  37.755  58.336  1.00  0.00     0.277 HD
HETATM   39  H   UNL     1       3.676  37.856  59.346  1.00  0.00     0.277 HD
HETATM   40  C   UNL     1       3.810  36.253  58.051  1.00  0.00     0.259 C 
HETATM   41  C   UNL     1       2.939  35.084  57.590  1.00  0.00     0.195 C 
HETATM   42  O   UNL     1       2.301  34.445  58.705  1.00  0.00    -0.387 OA
HETATM   43  C   UNL     1       1.429  35.347  59.400  1.00  0.00     0.202 C 
ENDBRANCH  35  36
ENDBRANCH  34  35
ENDBRANCH  31  34
ENDBRANCH  10  30
TORSDOF 8
ENDMDL
MODEL 6
REMARK VINA RESULT:     -10.5      2.518      3.915
REMARK  8 active torsions:
REMARK  status: ('A' for Active; 'I' for Inactive)
REMARK    1  A    between atoms: C_8  and  N_9 
REMARK    2  A    between atoms: N_9  and  C_10 
REMARK    3  A    between atoms: N_14  and  C_15 
REMARK    4  A    between atoms: C_15  and  C_16 
REMARK    5  A    between atoms: C_28  and  N_29 
REMARK       I    between atoms: N_29  and  C_30 
REMARK    6  A    between atoms: C_30  and  O_31 
REMARK    7  A    between atoms: O_31  and  C_32 
REMARK    8  A    between atoms: C_32  and  C_33 
ROOT
HETATM    1  C   UNL     1       7.712  30.510  57.786  1.00  0.00     0.053 C 
HETATM    2  C   UNL     1       6.433  31.188  58.138  1.00  0.00    -0.002 A 
HETATM    3  C   UNL     1       5.331  31.399  57.309  1.00  0.00     0.106 A 
HETATM    4  N   UNL     1       4.374  32.049  58.031  1.00  0.00    -0.238 N 
HETATM    5  N   UNL     1       3.179  32.435  57.568  1.00  0.00    -0.161 NA
HETATM    6  C   UNL     1       2.973  32.111  56.332  1.00  0.00     0.257 A 
HETATM    7  N   UNL     1       3.828  31.428  55.512  1.00  0.00    -0.226 NA
HETATM    8  C   UNL     1       4.994  31.048  55.949  1.00  0.00     0.138 A 
HETATM    9  C   UNL     1       4.803  32.223  59.315  1.00  0.00     0.149 A 
HETATM   10  C   UNL     1       6.064  31.690  59.430  1.00  0.00     0.062 A 
ENDROOT
BRANCH   8  11
HETATM   11  N   UNL     1       5.855  30.333  55.128  1.00  0.00    -0.242 NA
HETATM   12  H   UNL     1       6.736  30.797  54.965  1.00  0.00     0.135 HD
BRANCH  11  13
HETATM   13  C   UNL     1       6.080  28.943  55.346  1.00  0.00     0.015 A 
HETATM   14  C   UNL     1       5.162  28.137  56.038  1.00  0.00     0.039 A 
HETATM   15  C   UNL     1       5.493  26.803  56.341  1.00  0.00     0.013 A 
HETATM   16  C   UNL     1       6.721  26.294  55.932  1.00  0.00     0.065 A 
HETATM   17  C   UNL     1       4.870  25.736  57.022  1.00  0.00     0.152 A 
HETATM   18  N   UNL     1       6.782  25.028  56.474  1.00  0.00    -0.265 N 
HETATM   19  C   UNL     1       7.625  27.044  55.173  1.00  0.00     0.034 A 
HETATM   20  N   UNL     1       5.647  24.654  57.106  1.00  0.00    -0.183 NA
HETATM   21  C   UNL     1       7.274  28.369  54.884  1.00  0.00     0.026 A 
BRANCH  18  22
HETATM   22  C   UNL     1       7.944  24.144  56.512  1.00  0.00     0.190 C 
BRANCH  22  23
HETATM   23  C   UNL     1       7.944  23.135  55.382  1.00  0.00    -0.035 A 
HETATM   24  C   UNL     1       8.150  21.765  55.621  1.00  0.00     0.051 A 
HETATM   25  C   UNL     1       8.169  20.865  54.559  1.00  0.00     0.117 A 
HETATM   26  F   UNL     1       8.406  19.569  54.796  1.00  0.00    -0.206 F 
HETATM   27  C   UNL     1       7.956  21.293  53.255  1.00  0.00     0.042 A 
HETATM   28  C   UNL     1       7.714  22.642  53.007  1.00  0.00     0.004 A 
HETATM   29  C   UNL     1       7.706  23.558  54.064  1.00  0.00     0.009 A 
ENDBRANCH  22  23
ENDBRANCH  18  22
ENDBRANCH  11  13
ENDBRANCH   8  11
BRANCH  10  30
HETATM   30  N   UNL     1       6.831  31.625  60.581  1.00  0.00    -0.301 N 
HETATM   31  C   UNL     1       8.007  32.283  60.784  1.00  0.00     0.365 C 
HETATM   32  O   UNL     1       8.635  32.984  60.001  1.00  0.00    -0.238 OA
HETATM   33  H   UNL     1       6.425  31.189  61.397  1.00  0.00     0.171 HD
BRANCH  31  34
HETATM   34  O   UNL     1       8.408  32.102  62.069  1.00  0.00    -0.302 OA
BRANCH  34  35
HETATM   35  C   UNL     1       7.390  32.141  63.097  1.00  0.00     0.215 C 
BRANCH  35  36
HETATM   36  C   UNL     1       7.105  33.542  63.691  1.00  0.00     0.233 C 
HETATM   37  N   UNL     1       6.307  34.413  62.729  1.00  0.00    -0.065 N 
HETATM   38  H   UNL     1       6.368  35.400  63.003  1.00  0.00     0.277 HD
HETATM   39  H   UNL     1       6.754  34.358  61.789  1.00  0.00     0.277 HD
HETATM   40  C   UNL     1       4.869  34.008  62.556  1.00  0.00     0.259 C 
HETATM   41  C   UNL     1       4.212  33.816  63.923  1.00  0.00     0.195 C 
HETATM   42  O   UNL     1       4.979  32.922  64.742  1.00  0.00    -0.387 OA
HETATM   43  C   UNL     1       6.293  33.437  64.996  1.00  0.00     0.202 C 
ENDBRANCH  35  36
ENDBRANCH  34  35
ENDBRANCH  31  34
ENDBRANCH  10  30
TORSDOF 8
ENDMDL
MODEL 7
REMARK VINA RESULT:     -10.4      2.200      2.945
REMARK  8 active torsions:
REMARK  status: ('A' for Active; 'I' for Inactive)
REMARK    1  A    between atoms: C_8  and  N_9 
REMARK    2  A    between atoms: N_9  and  C_10 
REMARK    3  A    between atoms: N_14  and  C_15 
REMARK    4  A    between atoms: C_15  and  C_16 
REMARK    5  A    between atoms: C_28  and  N_29 
REMARK       I    between atoms: N_29  and  C_30 
REMARK    6  A    between atoms: C_30  and  O_31 
REMARK    7  A    between atoms: O_31  and  C_32 
REMARK    8  A    between atoms: C_32  and  C_33 
ROOT
HETATM    1  C   UNL     1       4.384  31.920  56.971  1.00  0.00     0.053 C 
HETATM    2  C   UNL     1       5.495  31.655  57.927  1.00  0.00    -0.002 A 
HETATM    3  C   UNL     1       6.549  30.755  57.768  1.00  0.00     0.106 A 
HETATM    4  N   UNL     1       7.345  30.833  58.875  1.00  0.00    -0.238 N 
HETATM    5  N   UNL     1       8.448  30.108  59.091  1.00  0.00    -0.161 NA
HETATM    6  C   UNL     1       8.738  29.303  58.120  1.00  0.00     0.257 A 
HETATM    7  N   UNL     1       8.053  29.157  56.946  1.00  0.00    -0.226 NA
HETATM    8  C   UNL     1       6.977  29.855  56.722  1.00  0.00     0.138 A 
HETATM    9  C   UNL     1       6.863  31.789  59.722  1.00  0.00     0.149 A 
HETATM   10  C   UNL     1       5.731  32.335  59.167  1.00  0.00     0.062 A 
ENDROOT
BRANCH   8  11
HETATM   11  N   UNL     1       6.292  29.728  55.523  1.00  0.00    -0.242 NA
HETATM   12  H   UNL     1       6.366  30.540  54.927  1.00  0.00     0.135 HD
BRANCH  11  13
HETATM   13  C   UNL     1       6.414  28.546  54.737  1.00  0.00     0.015 A 
HETATM   14  C   UNL     1       5.319  27.708  54.473  1.00  0.00     0.039 A 
HETATM   15  C   UNL     1       5.520  26.485  53.805  1.00  0.00     0.013 A 
HETATM   16  C   UNL     1       6.801  26.132  53.397  1.00  0.00     0.065 A 
HETATM   17  C   UNL     1       4.705  25.406  53.406  1.00  0.00     0.152 A 
HETATM   18  N   UNL     1       6.677  24.856  52.892  1.00  0.00    -0.265 N 
HETATM   19  C   UNL     1       7.901  26.978  53.574  1.00  0.00     0.034 A 
HETATM   20  N   UNL     1       5.401  24.412  52.848  1.00  0.00    -0.183 NA
HETATM   21  C   UNL     1       7.677  28.189  54.241  1.00  0.00     0.026 A 
BRANCH  18  22
HETATM   22  C   UNL     1       7.760  23.952  52.514  1.00  0.00     0.190 C 
BRANCH  22  23
HETATM   23  C   UNL     1       7.893  22.776  53.462  1.00  0.00    -0.035 A 
HETATM   24  C   UNL     1       7.959  22.959  54.854  1.00  0.00     0.051 A 
HETATM   25  C   UNL     1       8.106  21.861  55.697  1.00  0.00     0.117 A 
HETATM   26  F   UNL     1       8.207  22.053  57.019  1.00  0.00    -0.206 F 
HETATM   27  C   UNL     1       8.157  20.570  55.188  1.00  0.00     0.042 A 
HETATM   28  C   UNL     1       8.056  20.371  53.814  1.00  0.00     0.004 A 
HETATM   29  C   UNL     1       7.922  21.467  52.954  1.00  0.00     0.009 A 
ENDBRANCH  22  23
ENDBRANCH  18  22
ENDBRANCH  11  13
ENDBRANCH   8  11
BRANCH  10  30
HETATM   30  N   UNL     1       4.970  33.365  59.692  1.00  0.00    -0.301 N 
HETATM   31  C   UNL     1       4.124  33.259  60.756  1.00  0.00     0.365 C 
HETATM   32  O   UNL     1       3.826  32.261  61.398  1.00  0.00    -0.238 OA
HETATM   33  H   UNL     1       5.161  34.305  59.374  1.00  0.00     0.171 HD
BRANCH  31  34
HETATM   34  O   UNL     1       3.654  34.492  61.082  1.00  0.00    -0.302 OA
BRANCH  34  35
HETATM   35  C   UNL     1       4.256  35.155  62.218  1.00  0.00     0.215 C 
BRANCH  35  36
HETATM   36  C   UNL     1       3.464  35.040  63.545  1.00  0.00     0.233 C 
HETATM   37  N   UNL     1       3.648  33.676  64.197  1.00  0.00    -0.065 N 
HETATM   38  H   UNL     1       2.918  33.514  64.900  1.00  0.00     0.277 HD
HETATM   39  H   UNL     1       3.501  32.943  63.470  1.00  0.00     0.277 HD
HETATM   40  C   UNL     1       5.008  33.438  64.792  1.00  0.00     0.259 C 
HETATM   41  C   UNL     1       5.403  34.619  65.681  1.00  0.00     0.195 C 
HETATM   42  O   UNL     1       5.280  35.860  64.973  1.00  0.00    -0.387 OA
HETATM   43  C   UNL     1       3.928  36.101  64.561  1.00  0.00     0.202 C 
ENDBRANCH  35  36
ENDBRANCH  34  35
ENDBRANCH  31  34
ENDBRANCH  10  30
TORSDOF 8
ENDMDL
MODEL 8
REMARK VINA RESULT:     -10.4      1.316      1.703
REMARK  8 active torsions:
REMARK  status: ('A' for Active; 'I' for Inactive)
REMARK    1  A    between atoms: C_8  and  N_9 
REMARK    2  A    between atoms: N_9  and  C_10 
REMARK    3  A    between atoms: N_14  and  C_15 
REMARK    4  A    between atoms: C_15  and  C_16 
REMARK    5  A    between atoms: C_28  and  N_29 
REMARK       I    between atoms: N_29  and  C_30 
REMARK    6  A    between atoms: C_30  and  O_31 
REMARK    7  A    between atoms: O_31  and  C_32 
REMARK    8  A    between atoms: C_32  and  C_33 
ROOT
HETATM    1  C   UNL     1       5.233  32.834  59.228  1.00  0.00     0.053 C 
HETATM    2  C   UNL     1       6.084  32.422  60.379  1.00  0.00    -0.002 A 
HETATM    3  C   UNL     1       7.211  31.600  60.346  1.00  0.00     0.106 A 
HETATM    4  N   UNL     1       7.692  31.487  61.618  1.00  0.00    -0.238 N 
HETATM    5  N   UNL     1       8.758  30.766  61.984  1.00  0.00    -0.161 NA
HETATM    6  C   UNL     1       9.346  30.171  60.997  1.00  0.00     0.257 A 
HETATM    7  N   UNL     1       8.993  30.233  59.677  1.00  0.00    -0.226 NA
HETATM    8  C   UNL     1       7.957  30.930  59.306  1.00  0.00     0.138 A 
HETATM    9  C   UNL     1       6.940  32.249  62.464  1.00  0.00     0.149 A 
HETATM   10  C   UNL     1       5.946  32.858  61.738  1.00  0.00     0.062 A 
ENDROOT
BRANCH   8  11
HETATM   11  N   UNL     1       7.609  31.015  57.966  1.00  0.00    -0.242 NA
HETATM   12  H   UNL     1       8.212  31.622  57.430  1.00  0.00     0.135 HD
BRANCH  11  13
HETATM   13  C   UNL     1       7.322  29.841  57.213  1.00  0.00     0.015 A 
HETATM   14  C   UNL     1       6.265  28.979  57.547  1.00  0.00     0.039 A 
HETATM   15  C   UNL     1       6.107  27.765  56.852  1.00  0.00     0.013 A 
HETATM   16  C   UNL     1       6.991  27.444  55.829  1.00  0.00     0.065 A 
HETATM   17  C   UNL     1       5.222  26.669  56.921  1.00  0.00     0.152 A 
HETATM   18  N   UNL     1       6.642  26.168  55.441  1.00  0.00    -0.265 N 
HETATM   19  C   UNL     1       8.006  28.313  55.417  1.00  0.00     0.034 A 
HETATM   20  N   UNL     1       5.539  25.695  56.065  1.00  0.00    -0.183 NA
HETATM   21  C   UNL     1       8.145  29.515  56.123  1.00  0.00     0.026 A 
BRANCH  18  22
HETATM   22  C   UNL     1       7.382  25.291  54.538  1.00  0.00     0.190 C 
BRANCH  22  23
HETATM   23  C   UNL     1       7.677  23.937  55.154  1.00  0.00    -0.035 A 
HETATM   24  C   UNL     1       7.469  22.744  54.440  1.00  0.00     0.051 A 
HETATM   25  C   UNL     1       7.727  21.516  55.041  1.00  0.00     0.117 A 
HETATM   26  F   UNL     1       7.487  20.386  54.364  1.00  0.00    -0.206 F 
HETATM   27  C   UNL     1       8.221  21.443  56.337  1.00  0.00     0.042 A 
HETATM   28  C   UNL     1       8.466  22.618  57.044  1.00  0.00     0.004 A 
HETATM   29  C   UNL     1       8.199  23.859  56.456  1.00  0.00     0.009 A 
ENDBRANCH  22  23
ENDBRANCH  18  22
ENDBRANCH  11  13
ENDBRANCH   8  11
BRANCH  10  30
HETATM   30  N   UNL     1       4.999  33.747  62.218  1.00  0.00    -0.301 N 
HETATM   31  C   UNL     1       3.760  33.409  62.675  1.00  0.00     0.365 C 
HETATM   32  O   UNL     1       3.226  32.308  62.692  1.00  0.00    -0.238 OA
HETATM   33  H   UNL     1       5.289  34.698  62.397  1.00  0.00     0.171 HD
BRANCH  31  34
HETATM   34  O   UNL     1       3.157  34.509  63.197  1.00  0.00    -0.302 OA
BRANCH  34  35
HETATM   35  C   UNL     1       2.846  34.491  64.610  1.00  0.00     0.215 C 
BRANCH  35  36
HETATM   36  C   UNL     1       3.546  35.585  65.455  1.00  0.00     0.233 C 
HETATM   37  N   UNL     1       3.542  35.243  66.939  1.00  0.00    -0.065 N 
HETATM   38  H   UNL     1       3.744  36.079  67.500  1.00  0.00     0.277 HD
HETATM   39  H   UNL     1       2.575  34.957  67.207  1.00  0.00     0.277 HD
HETATM   40  C   UNL     1       4.458  34.117  67.331  1.00  0.00     0.259 C 
HETATM   41  C   UNL     1       5.851  34.348  66.742  1.00  0.00     0.195 C 
HETATM   42  O   UNL     1       5.780  34.584  65.329  1.00  0.00    -0.387 OA
HETATM   43  C   UNL     1       5.016  35.759  65.028  1.00  0.00     0.202 C 
ENDBRANCH  35  36
ENDBRANCH  34  35
ENDBRANCH  31  34
ENDBRANCH  10  30
TORSDOF 8
ENDMDL
MODEL 9
REMARK VINA RESULT:     -10.2      6.197     11.794
REMARK  8 active torsions:
REMARK  status: ('A' for Active; 'I' for Inactive)
REMARK    1  A    between atoms: C_8  and  N_9 
REMARK    2  A    between atoms: N_9  and  C_10 
REMARK    3  A    between atoms: N_14  and  C_15 
REMARK    4  A    between atoms: C_15  and  C_16 
REMARK    5  A    between atoms: C_28  and  N_29 
REMARK       I    between atoms: N_29  and  C_30 
REMARK    6  A    between atoms: C_30  and  O_31 
REMARK    7  A    between atoms: O_31  and  C_32 
REMARK    8  A    between atoms: C_32  and  C_33 
ROOT
HETATM    1  C   UNL     1       4.802  28.592  54.404  1.00  0.00     0.053 C 
HETATM    2  C   UNL     1       5.211  27.272  53.848  1.00  0.00    -0.002 A 
HETATM    3  C   UNL     1       5.807  26.214  54.535  1.00  0.00     0.106 A 
HETATM    4  N   UNL     1       6.005  25.193  53.652  1.00  0.00    -0.238 N 
HETATM    5  N   UNL     1       6.569  24.014  53.940  1.00  0.00    -0.161 NA
HETATM    6  C   UNL     1       6.909  23.892  55.183  1.00  0.00     0.257 A 
HETATM    7  N   UNL     1       6.730  24.817  56.175  1.00  0.00    -0.226 NA
HETATM    8  C   UNL     1       6.184  25.969  55.908  1.00  0.00     0.138 A 
HETATM    9  C   UNL     1       5.513  25.540  52.427  1.00  0.00     0.149 A 
HETATM   10  C   UNL     1       4.997  26.811  52.507  1.00  0.00     0.062 A 
ENDROOT
BRANCH   8  11
HETATM   11  N   UNL     1       5.978  26.901  56.914  1.00  0.00    -0.242 NA
HETATM   12  H   UNL     1       5.744  26.488  57.805  1.00  0.00     0.135 HD
BRANCH  11  13
HETATM   13  C   UNL     1       6.894  27.974  57.110  1.00  0.00     0.015 A 
HETATM   14  C   UNL     1       8.252  27.868  56.772  1.00  0.00     0.039 A 
HETATM   15  C   UNL     1       9.140  28.908  57.108  1.00  0.00     0.013 A 
HETATM   16  C   UNL     1       8.653  30.039  57.755  1.00  0.00     0.065 A 
HETATM   17  C   UNL     1      10.524  29.140  56.970  1.00  0.00     0.152 A 
HETATM   18  N   UNL     1       9.769  30.796  58.040  1.00  0.00    -0.265 N 
HETATM   19  C   UNL     1       7.294  30.212  58.035  1.00  0.00     0.034 A 
HETATM   20  N   UNL     1      10.914  30.287  57.532  1.00  0.00    -0.183 NA
HETATM   21  C   UNL     1       6.430  29.164  57.692  1.00  0.00     0.026 A 
BRANCH  18  22
HETATM   22  C   UNL     1       9.831  31.984  58.886  1.00  0.00     0.190 C 
BRANCH  22  23
HETATM   23  C   UNL     1       9.160  31.778  60.229  1.00  0.00    -0.035 A 
HETATM   24  C   UNL     1       8.132  32.627  60.675  1.00  0.00     0.051 A 
HETATM   25  C   UNL     1       7.552  32.426  61.924  1.00  0.00     0.117 A 
HETATM   26  F   UNL     1       6.601  33.266  62.353  1.00  0.00    -0.206 F 
HETATM   27  C   UNL     1       7.950  31.373  62.737  1.00  0.00     0.042 A 
HETATM   28  C   UNL     1       8.942  30.502  62.294  1.00  0.00     0.004 A 
HETATM   29  C   UNL     1       9.542  30.701  61.046  1.00  0.00     0.009 A 
ENDBRANCH  22  23
ENDBRANCH  18  22
ENDBRANCH  11  13
ENDBRANCH   8  11
BRANCH  10  30
HETATM   30  N   UNL     1       4.365  27.510  51.494  1.00  0.00    -0.301 N 
HETATM   31  C   UNL     1       4.846  28.637  50.894  1.00  0.00     0.365 C 
HETATM   32  O   UNL     1       5.858  29.271  51.161  1.00  0.00    -0.238 OA
HETATM   33  H   UNL     1       3.567  27.081  51.047  1.00  0.00     0.171 HD
BRANCH  31  34
HETATM   34  O   UNL     1       4.040  28.971  49.852  1.00  0.00    -0.302 OA
BRANCH  34  35
HETATM   35  C   UNL     1       3.233  27.920  49.271  1.00  0.00     0.215 C 
BRANCH  35  36
HETATM   36  C   UNL     1       1.716  28.221  49.190  1.00  0.00     0.233 C 
HETATM   37  N   UNL     1       1.444  29.705  48.976  1.00  0.00    -0.065 N 
HETATM   38  H   UNL     1       0.468  29.928  49.204  1.00  0.00     0.277 HD
HETATM   39  H   UNL     1       2.019  30.245  49.658  1.00  0.00     0.277 HD
HETATM   40  C   UNL     1       1.790  30.219  47.606  1.00  0.00     0.259 C 
HETATM   41  C   UNL     1       1.185  29.308  46.537  1.00  0.00     0.195 C 
HETATM   42  O   UNL     1       1.550  27.938  46.761  1.00  0.00    -0.387 OA
HETATM   43  C   UNL     1       1.060  27.462  48.021  1.00  0.00     0.202 C 
ENDBRANCH  35  36
ENDBRANCH  34  35
ENDBRANCH  31  34
ENDBRANCH  10  30
TORSDOF 8
ENDMDL
MODEL 10
REMARK VINA RESULT:     -10.2      2.416      3.457
REMARK  8 active torsions:
REMARK  status: ('A' for Active; 'I' for Inactive)
REMARK    1  A    between atoms: C_8  and  N_9 
REMARK    2  A    between atoms: N_9  and  C_10 
REMARK    3  A    between atoms: N_14  and  C_15 
REMARK    4  A    between atoms: C_15  and  C_16 
REMARK    5  A    between atoms: C_28  and  N_29 
REMARK       I    between atoms: N_29  and  C_30 
REMARK    6  A    between atoms: C_30  and  O_31 
REMARK    7  A    between atoms: O_31  and  C_32 
REMARK    8  A    between atoms: C_32  and  C_33 
ROOT
HETATM    1  C   UNL     1       5.826  31.118  58.332  1.00  0.00     0.053 C 
HETATM    2  C   UNL     1       7.303  31.089  58.526  1.00  0.00    -0.002 A 
HETATM    3  C   UNL     1       8.254  30.505  57.689  1.00  0.00     0.106 A 
HETATM    4  N   UNL     1       9.487  30.717  58.234  1.00  0.00    -0.238 N 
HETATM    5  N   UNL     1      10.647  30.290  57.722  1.00  0.00    -0.161 NA
HETATM    6  C   UNL     1      10.516  29.651  56.605  1.00  0.00     0.257 A 
HETATM    7  N   UNL     1       9.350  29.406  55.934  1.00  0.00    -0.226 NA
HETATM    8  C   UNL     1       8.213  29.814  56.421  1.00  0.00     0.138 A 
HETATM    9  C   UNL     1       9.366  31.461  59.372  1.00  0.00     0.149 A 
HETATM   10  C   UNL     1       8.035  31.728  59.580  1.00  0.00     0.062 A 
ENDROOT
BRANCH   8  11
HETATM   11  N   UNL     1       7.031  29.590  55.732  1.00  0.00    -0.242 NA
HETATM   12  H   UNL     1       6.672  30.410  55.268  1.00  0.00     0.135 HD
BRANCH  11  13
HETATM   13  C   UNL     1       6.890  28.457  54.879  1.00  0.00     0.015 A 
HETATM   14  C   UNL     1       5.660  27.803  54.702  1.00  0.00     0.039 A 
HETATM   15  C   UNL     1       5.603  26.612  53.955  1.00  0.00     0.013 A 
HETATM   16  C   UNL     1       6.766  26.108  53.383  1.00  0.00     0.065 A 
HETATM   17  C   UNL     1       4.598  25.688  53.600  1.00  0.00     0.152 A 
HETATM   18  N   UNL     1       6.400  24.900  52.832  1.00  0.00    -0.265 N 
HETATM   19  C   UNL     1       7.993  26.775  53.472  1.00  0.00     0.034 A 
HETATM   20  N   UNL     1       5.074  24.646  52.915  1.00  0.00    -0.183 NA
HETATM   21  C   UNL     1       8.025  27.958  54.222  1.00  0.00     0.026 A 
BRANCH  18  22
HETATM   22  C   UNL     1       7.288  23.877  52.285  1.00  0.00     0.190 C 
BRANCH  22  23
HETATM   23  C   UNL     1       7.603  22.784  53.287  1.00  0.00    -0.035 A 
HETATM   24  C   UNL     1       7.622  23.039  54.670  1.00  0.00     0.051 A 
HETATM   25  C   UNL     1       7.938  22.020  55.564  1.00  0.00     0.117 A 
HETATM   26  F   UNL     1       7.991  22.285  56.875  1.00  0.00    -0.206 F 
HETATM   27  C   UNL     1       8.209  20.734  55.116  1.00  0.00     0.042 A 
HETATM   28  C   UNL     1       8.158  20.458  53.752  1.00  0.00     0.004 A 
HETATM   29  C   UNL     1       7.855  21.476  52.842  1.00  0.00     0.009 A 
ENDBRANCH  22  23
ENDBRANCH  18  22
ENDBRANCH  11  13
ENDBRANCH   8  11
BRANCH  10  30
HETATM   30  N   UNL     1       7.496  32.492  60.602  1.00  0.00    -0.301 N 
HETATM   31  C   UNL     1       7.352  32.089  61.896  1.00  0.00     0.365 C 
HETATM   32  O   UNL     1       7.597  30.995  62.387  1.00  0.00    -0.238 OA
HETATM   33  H   UNL     1       7.338  33.474  60.427  1.00  0.00     0.171 HD
BRANCH  31  34
HETATM   34  O   UNL     1       6.923  33.136  62.649  1.00  0.00    -0.302 OA
BRANCH  34  35
HETATM   35  C   UNL     1       6.173  32.832  63.848  1.00  0.00     0.215 C 
BRANCH  35  36
HETATM   36  C   UNL     1       6.167  33.946  64.924  1.00  0.00     0.233 C 
HETATM   37  N   UNL     1       6.065  35.332  64.302  1.00  0.00    -0.065 N 
HETATM   38  H   UNL     1       6.342  36.051  64.980  1.00  0.00     0.277 HD
HETATM   39  H   UNL     1       6.762  35.397  63.528  1.00  0.00     0.277 HD
HETATM   40  C   UNL     1       4.722  35.663  63.712  1.00  0.00     0.259 C 
HETATM   41  C   UNL     1       3.616  35.341  64.718  1.00  0.00     0.195 C 
HETATM   42  O   UNL     1       3.732  33.994  65.199  1.00  0.00    -0.387 OA
HETATM   43  C   UNL     1       4.974  33.784  65.884  1.00  0.00     0.202 C 
ENDBRANCH  35  36
ENDBRANCH  34  35
ENDBRANCH  31  34
ENDBRANCH  10  30
TORSDOF 8
ENDMDL
