MODEL 1
REMARK VINA RESULT:     -10.6      0.000      0.000
REMARK  4 active torsions:
REMARK  status: ('A' for Active; 'I' for Inactive)
REMARK    1  A    between atoms: C_6  and  C_7 
REMARK    2  A    between atoms: C_8  and  C_9 
REMARK       I    between atoms: C_9  and  N_10 
REMARK    3  A    between atoms: N_10  and  C_11 
REMARK    4  A    between atoms: C_18  and  C_19 
REMARK       I    between atoms: C_19  and  N_20 
ROOT
HETATM    1  C   UNL     1       8.550  28.593  57.225  1.00  0.00     0.035 A 
HETATM    2  C   UNL     1       7.879  29.424  58.131  1.00  0.00     0.046 A 
HETATM    3  C   UNL     1       8.525  30.578  58.628  1.00  0.00     0.030 A 
HETATM    4  C   UNL     1       9.817  30.861  58.201  1.00  0.00     0.063 A 
HETATM    5  N   UNL     1      10.169  32.014  58.845  1.00  0.00    -0.277 N 
HETATM    6  H   UNL     1      11.048  32.513  58.773  1.00  0.00     0.189 HD
HETATM    7  N   UNL     1       9.220  32.511  59.654  1.00  0.00    -0.168 NA
HETATM    8  C   UNL     1       8.197  31.635  59.531  1.00  0.00     0.156 A 
HETATM    9  C   UNL     1      10.513  30.060  57.295  1.00  0.00     0.034 A 
HETATM   10  C   UNL     1       9.851  28.922  56.817  1.00  0.00     0.032 A 
ENDROOT
BRANCH   1  11
HETATM   11  N   UNL     1       8.001  27.411  56.682  1.00  0.00    -0.327 N 
HETATM   12  C   UNL     1       7.715  26.233  57.340  1.00  0.00     0.227 C 
HETATM   13  O   UNL     1       7.874  26.000  58.530  1.00  0.00    -0.273 OA
HETATM   14  H   UNL     1       7.832  27.426  55.689  1.00  0.00     0.169 HD
BRANCH  12  15
HETATM   15  C   UNL     1       7.185  25.123  56.490  1.00  0.00     0.087 A 
HETATM   16  C   UNL     1       8.109  24.475  55.468  1.00  0.00     0.032 A 
HETATM   17  C   UNL     1       6.861  25.200  55.021  1.00  0.00     0.025 A 
BRANCH  16  18
HETATM   18  C   UNL     1       8.189  22.970  55.379  1.00  0.00    -0.051 A 
HETATM   19  C   UNL     1       8.219  22.316  54.135  1.00  0.00     0.031 A 
HETATM   20  C   UNL     1       8.323  20.926  54.056  1.00  0.00     0.034 A 
HETATM   21  C   UNL     1       8.403  20.156  55.212  1.00  0.00     0.024 A 
HETATM   22 CL   UNL     1       8.358  20.161  52.515  1.00  0.00    -0.084 Cl
HETATM   23  C   UNL     1       8.383  20.782  56.455  1.00  0.00     0.002 A 
HETATM   24  C   UNL     1       8.281  22.174  56.534  1.00  0.00     0.007 A 
ENDBRANCH  16  18
ENDBRANCH  12  15
ENDBRANCH   1  11
BRANCH   8  25
HETATM   25  C   UNL     1       6.942  31.826  60.272  1.00  0.00     0.270 C 
HETATM   26  N   UNL     1       6.939  31.259  61.518  1.00  0.00    -0.365 N 
HETATM   27  H   UNL     1       7.769  30.769  61.831  1.00  0.00     0.159 HD
HETATM   28  H   UNL     1       6.121  31.339  62.100  1.00  0.00     0.159 HD
HETATM   29  O   UNL     1       5.963  32.430  59.849  1.00  0.00    -0.266 OA
ENDBRANCH   8  25
TORSDOF 4
ENDMDL
MODEL 2
REMARK VINA RESULT:      -9.9      2.644      3.534
REMARK  4 active torsions:
REMARK  status: ('A' for Active; 'I' for Inactive)
REMARK    1  A    between atoms: C_6  and  C_7 
REMARK    2  A    between atoms: C_8  and  C_9 
REMARK       I    between atoms: C_9  and  N_10 
REMARK    3  A    between atoms: N_10  and  C_11 
REMARK    4  A    between atoms: C_18  and  C_19 
REMARK       I    between atoms: C_19  and  N_20 
ROOT
HETATM    1  C   UNL     1       5.906  27.888  56.056  1.00  0.00     0.035 A 
HETATM    2  C   UNL     1       6.877  28.470  56.880  1.00  0.00     0.046 A 
HETATM    3  C   UNL     1       6.552  29.618  57.638  1.00  0.00     0.030 A 
HETATM    4  C   UNL     1       5.267  30.139  57.547  1.00  0.00     0.063 A 
HETATM    5  N   UNL     1       5.257  31.227  58.375  1.00  0.00    -0.277 N 
HETATM    6  H   UNL     1       4.481  31.854  58.555  1.00  0.00     0.189 HD
HETATM    7  N   UNL     1       6.421  31.461  59.001  1.00  0.00    -0.168 NA
HETATM    8  C   UNL     1       7.233  30.474  58.557  1.00  0.00     0.156 A 
HETATM    9  C   UNL     1       4.273  29.582  56.742  1.00  0.00     0.034 A 
HETATM   10  C   UNL     1       4.621  28.446  56.001  1.00  0.00     0.032 A 
ENDROOT
BRANCH   1  11
HETATM   11  N   UNL     1       6.134  26.752  55.249  1.00  0.00    -0.327 N 
HETATM   12  C   UNL     1       6.660  26.714  53.975  1.00  0.00     0.227 C 
HETATM   13  O   UNL     1       7.042  27.666  53.310  1.00  0.00    -0.273 OA
HETATM   14  H   UNL     1       5.843  25.872  55.644  1.00  0.00     0.169 HD
BRANCH  12  15
HETATM   15  C   UNL     1       6.735  25.362  53.340  1.00  0.00     0.087 A 
HETATM   16  C   UNL     1       8.052  24.601  53.387  1.00  0.00     0.032 A 
HETATM   17  C   UNL     1       7.453  25.014  52.063  1.00  0.00     0.025 A 
BRANCH  16  18
HETATM   18  C   UNL     1       8.065  23.149  53.798  1.00  0.00    -0.051 A 
HETATM   19  C   UNL     1       8.205  22.775  55.146  1.00  0.00     0.031 A 
HETATM   20  C   UNL     1       8.187  21.432  55.525  1.00  0.00     0.034 A 
HETATM   21  C   UNL     1       8.025  20.430  54.573  1.00  0.00     0.024 A 
HETATM   22 CL   UNL     1       8.360  21.014  57.185  1.00  0.00    -0.084 Cl
HETATM   23  C   UNL     1       7.878  20.776  53.233  1.00  0.00     0.002 A 
HETATM   24  C   UNL     1       7.893  22.122  52.854  1.00  0.00     0.007 A 
ENDBRANCH  16  18
ENDBRANCH  12  15
ENDBRANCH   1  11
BRANCH   8  25
HETATM   25  C   UNL     1       8.625  30.373  59.015  1.00  0.00     0.270 C 
HETATM   26  N   UNL     1       9.552  30.639  58.043  1.00  0.00    -0.365 N 
HETATM   27  H   UNL     1       9.226  30.879  57.114  1.00  0.00     0.159 HD
HETATM   28  H   UNL     1      10.534  30.595  58.265  1.00  0.00     0.159 HD
HETATM   29  O   UNL     1       8.969  30.080  60.154  1.00  0.00    -0.266 OA
ENDBRANCH   8  25
TORSDOF 4
ENDMDL
MODEL 3
REMARK VINA RESULT:      -9.5      2.179      2.834
REMARK  4 active torsions:
REMARK  status: ('A' for Active; 'I' for Inactive)
REMARK    1  A    between atoms: C_6  and  C_7 
REMARK    2  A    between atoms: C_8  and  C_9 
REMARK       I    between atoms: C_9  and  N_10 
REMARK    3  A    between atoms: N_10  and  C_11 
REMARK    4  A    between atoms: C_18  and  C_19 
REMARK       I    between atoms: C_19  and  N_20 
ROOT
HETATM    1  C   UNL     1       5.668  28.644  56.447  1.00  0.00     0.035 A 
HETATM    2  C   UNL     1       6.556  29.338  57.278  1.00  0.00     0.046 A 
HETATM    3  C   UNL     1       6.123  30.513  57.935  1.00  0.00     0.030 A 
HETATM    4  C   UNL     1       4.818  30.948  57.740  1.00  0.00     0.063 A 
HETATM    5  N   UNL     1       4.699  32.087  58.487  1.00  0.00    -0.277 N 
HETATM    6  H   UNL     1       3.879  32.675  58.581  1.00  0.00     0.189 HD
HETATM    7  N   UNL     1       5.810  32.432  59.155  1.00  0.00    -0.168 NA
HETATM    8  C   UNL     1       6.701  31.469  58.826  1.00  0.00     0.156 A 
HETATM    9  C   UNL     1       3.905  30.279  56.925  1.00  0.00     0.034 A 
HETATM   10  C   UNL     1       4.358  29.119  56.285  1.00  0.00     0.032 A 
ENDROOT
BRANCH   1  11
HETATM   11  N   UNL     1       6.006  27.473  55.735  1.00  0.00    -0.327 N 
HETATM   12  C   UNL     1       5.786  26.164  56.112  1.00  0.00     0.227 C 
HETATM   13  O   UNL     1       5.240  25.776  57.134  1.00  0.00    -0.273 OA
HETATM   14  H   UNL     1       6.496  27.617  54.867  1.00  0.00     0.169 HD
BRANCH  12  15
HETATM   15  C   UNL     1       6.303  25.120  55.174  1.00  0.00     0.087 A 
HETATM   16  C   UNL     1       7.712  24.580  55.381  1.00  0.00     0.032 A 
HETATM   17  C   UNL     1       7.352  25.316  54.111  1.00  0.00     0.025 A 
BRANCH  16  18
HETATM   18  C   UNL     1       7.954  23.091  55.356  1.00  0.00    -0.051 A 
HETATM   19  C   UNL     1       8.047  22.389  54.142  1.00  0.00     0.031 A 
HETATM   20  C   UNL     1       8.301  21.016  54.122  1.00  0.00     0.034 A 
HETATM   21  C   UNL     1       8.472  20.311  55.310  1.00  0.00     0.024 A 
HETATM   22 CL   UNL     1       8.409  20.192  52.615  1.00  0.00    -0.084 Cl
HETATM   23  C   UNL     1       8.391  20.987  56.524  1.00  0.00     0.002 A 
HETATM   24  C   UNL     1       8.140  22.362  56.543  1.00  0.00     0.007 A 
ENDBRANCH  16  18
ENDBRANCH  12  15
ENDBRANCH   1  11
BRANCH   8  25
HETATM   25  C   UNL     1       8.069  31.484  59.362  1.00  0.00     0.270 C 
HETATM   26  N   UNL     1       8.349  30.439  60.202  1.00  0.00    -0.365 N 
HETATM   27  H   UNL     1       7.625  29.756  60.385  1.00  0.00     0.159 HD
HETATM   28  H   UNL     1       9.264  30.366  60.617  1.00  0.00     0.159 HD
HETATM   29  O   UNL     1       8.912  32.335  59.107  1.00  0.00    -0.266 OA
ENDBRANCH   8  25
TORSDOF 4
ENDMDL
MODEL 4
REMARK VINA RESULT:      -9.3      5.863     10.043
REMARK  4 active torsions:
REMARK  status: ('A' for Active; 'I' for Inactive)
REMARK    1  A    between atoms: C_6  and  C_7 
REMARK    2  A    between atoms: C_8  and  C_9 
REMARK       I    between atoms: C_9  and  N_10 
REMARK    3  A    between atoms: N_10  and  C_11 
REMARK    4  A    between atoms: C_18  and  C_19 
REMARK       I    between atoms: C_19  and  N_20 
ROOT
HETATM    1  C   UNL     1       7.976  29.659  58.252  1.00  0.00     0.035 A 
HETATM    2  C   UNL     1       6.874  29.199  57.521  1.00  0.00     0.046 A 
HETATM    3  C   UNL     1       7.040  28.829  56.167  1.00  0.00     0.030 A 
HETATM    4  C   UNL     1       8.302  28.930  55.594  1.00  0.00     0.063 A 
HETATM    5  N   UNL     1       8.148  28.513  54.301  1.00  0.00    -0.277 N 
HETATM    6  H   UNL     1       8.864  28.457  53.586  1.00  0.00     0.189 HD
HETATM    7  N   UNL     1       6.898  28.147  53.979  1.00  0.00    -0.168 NA
HETATM    8  C   UNL     1       6.200  28.335  55.122  1.00  0.00     0.156 A 
HETATM    9  C   UNL     1       9.423  29.378  56.293  1.00  0.00     0.034 A 
HETATM   10  C   UNL     1       9.233  29.739  57.632  1.00  0.00     0.032 A 
ENDROOT
BRANCH   1  11
HETATM   11  N   UNL     1       7.914  30.067  59.602  1.00  0.00    -0.327 N 
HETATM   12  C   UNL     1       7.693  31.338  60.090  1.00  0.00     0.227 C 
HETATM   13  O   UNL     1       7.495  32.351  59.436  1.00  0.00    -0.273 OA
HETATM   14  H   UNL     1       8.086  29.345  60.283  1.00  0.00     0.169 HD
BRANCH  12  15
HETATM   15  C   UNL     1       7.735  31.481  61.578  1.00  0.00     0.087 A 
HETATM   16  C   UNL     1       7.724  32.879  62.182  1.00  0.00     0.032 A 
HETATM   17  C   UNL     1       8.904  31.960  62.396  1.00  0.00     0.025 A 
BRANCH  16  18
HETATM   18  C   UNL     1       6.787  33.195  63.322  1.00  0.00    -0.051 A 
HETATM   19  C   UNL     1       7.277  33.490  64.606  1.00  0.00     0.031 A 
HETATM   20  C   UNL     1       6.409  33.811  65.651  1.00  0.00     0.034 A 
HETATM   21  C   UNL     1       5.034  33.849  65.442  1.00  0.00     0.024 A 
HETATM   22 CL   UNL     1       7.048  34.168  67.209  1.00  0.00    -0.084 Cl
HETATM   23  C   UNL     1       4.526  33.568  64.178  1.00  0.00     0.002 A 
HETATM   24  C   UNL     1       5.396  33.249  63.130  1.00  0.00     0.007 A 
ENDBRANCH  16  18
ENDBRANCH  12  15
ENDBRANCH   1  11
BRANCH   8  25
HETATM   25  C   UNL     1       4.761  28.044  55.190  1.00  0.00     0.270 C 
HETATM   26  N   UNL     1       4.388  27.334  56.300  1.00  0.00    -0.365 N 
HETATM   27  H   UNL     1       5.100  27.072  56.971  1.00  0.00     0.159 HD
HETATM   28  H   UNL     1       3.420  27.089  56.432  1.00  0.00     0.159 HD
HETATM   29  O   UNL     1       3.937  28.386  54.350  1.00  0.00    -0.266 OA
ENDBRANCH   8  25
TORSDOF 4
ENDMDL
MODEL 5
REMARK VINA RESULT:      -9.2      4.115      5.116
REMARK  4 active torsions:
REMARK  status: ('A' for Active; 'I' for Inactive)
REMARK    1  A    between atoms: C_6  and  C_7 
REMARK    2  A    between atoms: C_8  and  C_9 
REMARK       I    between atoms: C_9  and  N_10 
REMARK    3  A    between atoms: N_10  and  C_11 
REMARK    4  A    between atoms: C_18  and  C_19 
REMARK       I    between atoms: C_19  and  N_20 
ROOT
HETATM    1  C   UNL     1       5.010  27.986  53.226  1.00  0.00     0.035 A 
HETATM    2  C   UNL     1       5.092  28.637  54.463  1.00  0.00     0.046 A 
HETATM    3  C   UNL     1       4.279  29.766  54.714  1.00  0.00     0.030 A 
HETATM    4  C   UNL     1       3.411  30.201  53.719  1.00  0.00     0.063 A 
HETATM    5  N   UNL     1       2.774  31.291  54.244  1.00  0.00    -0.277 N 
HETATM    6  H   UNL     1       2.071  31.865  53.794  1.00  0.00     0.189 HD
HETATM    7  N   UNL     1       3.148  31.605  55.494  1.00  0.00    -0.168 NA
HETATM    8  C   UNL     1       4.078  30.672  55.800  1.00  0.00     0.156 A 
HETATM    9  C   UNL     1       3.297  29.573  52.478  1.00  0.00     0.034 A 
HETATM   10  C   UNL     1       4.114  28.458  52.255  1.00  0.00     0.032 A 
ENDROOT
BRANCH   1  11
HETATM   11  N   UNL     1       5.788  26.863  52.871  1.00  0.00    -0.327 N 
HETATM   12  C   UNL     1       5.409  25.537  52.885  1.00  0.00     0.227 C 
HETATM   13  O   UNL     1       4.316  25.089  53.196  1.00  0.00    -0.273 OA
HETATM   14  H   UNL     1       6.741  27.058  52.612  1.00  0.00     0.169 HD
BRANCH  12  15
HETATM   15  C   UNL     1       6.470  24.552  52.507  1.00  0.00     0.087 A 
HETATM   16  C   UNL     1       7.585  24.257  53.500  1.00  0.00     0.032 A 
HETATM   17  C   UNL     1       7.899  24.872  52.156  1.00  0.00     0.025 A 
BRANCH  16  18
HETATM   18  C   UNL     1       7.969  22.826  53.792  1.00  0.00    -0.051 A 
HETATM   19  C   UNL     1       8.167  22.381  55.110  1.00  0.00     0.031 A 
HETATM   20  C   UNL     1       8.493  21.050  55.378  1.00  0.00     0.034 A 
HETATM   21  C   UNL     1       8.625  20.131  54.341  1.00  0.00     0.024 A 
HETATM   22 CL   UNL     1       8.726  20.542  57.006  1.00  0.00    -0.084 Cl
HETATM   23  C   UNL     1       8.427  20.548  53.028  1.00  0.00     0.002 A 
HETATM   24  C   UNL     1       8.098  21.880  52.761  1.00  0.00     0.007 A 
ENDBRANCH  16  18
ENDBRANCH  12  15
ENDBRANCH   1  11
BRANCH   8  25
HETATM   25  C   UNL     1       4.747  30.666  57.108  1.00  0.00     0.270 C 
HETATM   26  N   UNL     1       4.335  29.660  57.940  1.00  0.00    -0.365 N 
HETATM   27  H   UNL     1       3.629  29.014  57.608  1.00  0.00     0.159 HD
HETATM   28  H   UNL     1       4.740  29.576  58.859  1.00  0.00     0.159 HD
HETATM   29  O   UNL     1       5.600  31.472  57.462  1.00  0.00    -0.266 OA
ENDBRANCH   8  25
TORSDOF 4
ENDMDL
MODEL 6
REMARK VINA RESULT:      -9.1      5.463      7.914
REMARK  4 active torsions:
REMARK  status: ('A' for Active; 'I' for Inactive)
REMARK    1  A    between atoms: C_6  and  C_7 
REMARK    2  A    between atoms: C_8  and  C_9 
REMARK       I    between atoms: C_9  and  N_10 
REMARK    3  A    between atoms: N_10  and  C_11 
REMARK    4  A    between atoms: C_18  and  C_19 
REMARK       I    between atoms: C_19  and  N_20 
ROOT
HETATM    1  C   UNL     1       4.985  27.271  52.428  1.00  0.00     0.035 A 
HETATM    2  C   UNL     1       5.088  27.025  51.053  1.00  0.00     0.046 A 
HETATM    3  C   UNL     1       4.346  27.815  50.145  1.00  0.00     0.030 A 
HETATM    4  C   UNL     1       3.531  28.824  50.645  1.00  0.00     0.063 A 
HETATM    5  N   UNL     1       2.951  29.399  49.549  1.00  0.00    -0.277 N 
HETATM    6  H   UNL     1       2.293  30.170  49.537  1.00  0.00     0.189 HD
HETATM    7  N   UNL     1       3.317  28.857  48.377  1.00  0.00    -0.168 NA
HETATM    8  C   UNL     1       4.180  27.876  48.728  1.00  0.00     0.156 A 
HETATM    9  C   UNL     1       3.409  29.101  52.007  1.00  0.00     0.034 A 
HETATM   10  C   UNL     1       4.154  28.305  52.885  1.00  0.00     0.032 A 
ENDROOT
BRANCH   1  11
HETATM   11  N   UNL     1       5.670  26.531  53.415  1.00  0.00    -0.327 N 
HETATM   12  C   UNL     1       6.917  26.787  53.948  1.00  0.00     0.227 C 
HETATM   13  O   UNL     1       7.656  27.719  53.670  1.00  0.00    -0.273 OA
HETATM   14  H   UNL     1       5.203  25.700  53.739  1.00  0.00     0.169 HD
BRANCH  12  15
HETATM   15  C   UNL     1       7.415  25.792  54.948  1.00  0.00     0.087 A 
HETATM   16  C   UNL     1       6.624  24.510  55.165  1.00  0.00     0.032 A 
HETATM   17  C   UNL     1       6.805  25.498  56.293  1.00  0.00     0.025 A 
BRANCH  16  18
HETATM   18  C   UNL     1       7.342  23.183  55.191  1.00  0.00    -0.051 A 
HETATM   19  C   UNL     1       7.528  22.433  54.017  1.00  0.00     0.031 A 
HETATM   20  C   UNL     1       8.218  21.219  54.041  1.00  0.00     0.034 A 
HETATM   21  C   UNL     1       8.742  20.726  55.232  1.00  0.00     0.024 A 
HETATM   22 CL   UNL     1       8.427  20.330  52.582  1.00  0.00    -0.084 Cl
HETATM   23  C   UNL     1       8.576  21.455  56.406  1.00  0.00     0.002 A 
HETATM   24  C   UNL     1       7.887  22.671  56.382  1.00  0.00     0.007 A 
ENDBRANCH  16  18
ENDBRANCH  12  15
ENDBRANCH   1  11
BRANCH   8  25
HETATM   25  C   UNL     1       4.819  27.028  47.712  1.00  0.00     0.270 C 
HETATM   26  N   UNL     1       6.005  27.522  47.240  1.00  0.00    -0.365 N 
HETATM   27  H   UNL     1       6.347  28.401  47.610  1.00  0.00     0.159 HD
HETATM   28  H   UNL     1       6.516  27.008  46.541  1.00  0.00     0.159 HD
HETATM   29  O   UNL     1       4.365  25.968  47.298  1.00  0.00    -0.266 OA
ENDBRANCH   8  25
TORSDOF 4
ENDMDL
MODEL 7
REMARK VINA RESULT:      -9.0      6.212      8.930
REMARK  4 active torsions:
REMARK  status: ('A' for Active; 'I' for Inactive)
REMARK    1  A    between atoms: C_6  and  C_7 
REMARK    2  A    between atoms: C_8  and  C_9 
REMARK       I    between atoms: C_9  and  N_10 
REMARK    3  A    between atoms: N_10  and  C_11 
REMARK    4  A    between atoms: C_18  and  C_19 
REMARK       I    between atoms: C_19  and  N_20 
ROOT
HETATM    1  C   UNL     1       5.482  26.829  51.167  1.00  0.00     0.035 A 
HETATM    2  C   UNL     1       4.773  26.103  50.201  1.00  0.00     0.046 A 
HETATM    3  C   UNL     1       4.137  26.789  49.142  1.00  0.00     0.030 A 
HETATM    4  C   UNL     1       4.235  28.174  49.085  1.00  0.00     0.063 A 
HETATM    5  N   UNL     1       3.529  28.542  47.973  1.00  0.00    -0.277 N 
HETATM    6  H   UNL     1       3.384  29.482  47.623  1.00  0.00     0.189 HD
HETATM    7  N   UNL     1       2.980  27.520  47.298  1.00  0.00    -0.168 NA
HETATM    8  C   UNL     1       3.347  26.428  48.007  1.00  0.00     0.156 A 
HETATM    9  C   UNL     1       4.937  28.928  50.025  1.00  0.00     0.034 A 
HETATM   10  C   UNL     1       5.558  28.226  51.065  1.00  0.00     0.032 A 
ENDROOT
BRANCH   1  11
HETATM   11  N   UNL     1       6.138  26.242  52.271  1.00  0.00    -0.327 N 
HETATM   12  C   UNL     1       7.159  25.314  52.250  1.00  0.00     0.227 C 
HETATM   13  O   UNL     1       7.697  24.838  51.262  1.00  0.00    -0.273 OA
HETATM   14  H   UNL     1       5.791  26.511  53.178  1.00  0.00     0.169 HD
BRANCH  12  15
HETATM   15  C   UNL     1       7.625  24.828  53.585  1.00  0.00     0.087 A 
HETATM   16  C   UNL     1       6.812  23.760  54.302  1.00  0.00     0.032 A 
HETATM   17  C   UNL     1       6.989  25.129  54.916  1.00  0.00     0.025 A 
BRANCH  16  18
HETATM   18  C   UNL     1       7.509  22.561  54.898  1.00  0.00    -0.051 A 
HETATM   19  C   UNL     1       7.723  22.458  56.283  1.00  0.00     0.031 A 
HETATM   20  C   UNL     1       8.343  21.335  56.834  1.00  0.00     0.034 A 
HETATM   21  C   UNL     1       8.759  20.286  56.019  1.00  0.00     0.024 A 
HETATM   22 CL   UNL     1       8.587  21.245  58.535  1.00  0.00    -0.084 Cl
HETATM   23  C   UNL     1       8.550  20.362  54.645  1.00  0.00     0.002 A 
HETATM   24  C   UNL     1       7.928  21.486  54.095  1.00  0.00     0.007 A 
ENDBRANCH  16  18
ENDBRANCH  12  15
ENDBRANCH   1  11
BRANCH   8  25
HETATM   25  C   UNL     1       2.940  25.080  47.589  1.00  0.00     0.270 C 
HETATM   26  N   UNL     1       2.645  24.974  46.256  1.00  0.00    -0.365 N 
HETATM   27  H   UNL     1       2.728  25.799  45.675  1.00  0.00     0.159 HD
HETATM   28  H   UNL     1       2.357  24.086  45.879  1.00  0.00     0.159 HD
HETATM   29  O   UNL     1       2.857  24.110  48.335  1.00  0.00    -0.266 OA
ENDBRANCH   8  25
TORSDOF 4
ENDMDL
MODEL 8
REMARK VINA RESULT:      -9.0      2.812      3.650
REMARK  4 active torsions:
REMARK  status: ('A' for Active; 'I' for Inactive)
REMARK    1  A    between atoms: C_6  and  C_7 
REMARK    2  A    between atoms: C_8  and  C_9 
REMARK       I    between atoms: C_9  and  N_10 
REMARK    3  A    between atoms: N_10  and  C_11 
REMARK    4  A    between atoms: C_18  and  C_19 
REMARK       I    between atoms: C_19  and  N_20 
ROOT
HETATM    1  C   UNL     1       8.564  29.046  57.230  1.00  0.00     0.035 A 
HETATM    2  C   UNL     1       7.912  29.744  58.255  1.00  0.00     0.046 A 
HETATM    3  C   UNL     1       8.589  30.785  58.930  1.00  0.00     0.030 A 
HETATM    4  C   UNL     1       9.892  31.091  58.556  1.00  0.00     0.063 A 
HETATM    5  N   UNL     1      10.274  32.116  59.376  1.00  0.00    -0.277 N 
HETATM    6  H   UNL     1      11.169  32.592  59.386  1.00  0.00     0.189 HD
HETATM    7  N   UNL     1       9.336  32.508  60.251  1.00  0.00    -0.168 NA
HETATM    8  C   UNL     1       8.287  31.695  59.989  1.00  0.00     0.156 A 
HETATM    9  C   UNL     1      10.570  30.422  57.537  1.00  0.00     0.034 A 
HETATM   10  C   UNL     1       9.878  29.395  56.883  1.00  0.00     0.032 A 
ENDROOT
BRANCH   1  11
HETATM   11  N   UNL     1       7.983  27.983  56.506  1.00  0.00    -0.327 N 
HETATM   12  C   UNL     1       7.735  26.699  56.945  1.00  0.00     0.227 C 
HETATM   13  O   UNL     1       7.962  26.247  58.057  1.00  0.00    -0.273 OA
HETATM   14  H   UNL     1       7.757  28.183  55.544  1.00  0.00     0.169 HD
BRANCH  12  15
HETATM   15  C   UNL     1       7.155  25.764  55.931  1.00  0.00     0.087 A 
HETATM   16  C   UNL     1       5.752  26.031  55.405  1.00  0.00     0.032 A 
HETATM   17  C   UNL     1       6.057  24.762  56.167  1.00  0.00     0.025 A 
BRANCH  16  18
HETATM   18  C   UNL     1       5.487  25.982  53.920  1.00  0.00    -0.051 A 
HETATM   19  C   UNL     1       5.580  27.138  53.126  1.00  0.00     0.031 A 
HETATM   20  C   UNL     1       5.363  27.084  51.748  1.00  0.00     0.034 A 
HETATM   21  C   UNL     1       5.052  25.878  51.127  1.00  0.00     0.024 A 
HETATM   22 CL   UNL     1       5.488  28.521  50.809  1.00  0.00    -0.084 Cl
HETATM   23  C   UNL     1       4.961  24.719  51.893  1.00  0.00     0.002 A 
HETATM   24  C   UNL     1       5.181  24.773  53.272  1.00  0.00     0.007 A 
ENDBRANCH  16  18
ENDBRANCH  12  15
ENDBRANCH   1  11
BRANCH   8  25
HETATM   25  C   UNL     1       7.033  31.805  60.747  1.00  0.00     0.270 C 
HETATM   26  N   UNL     1       7.029  31.102  61.922  1.00  0.00    -0.365 N 
HETATM   27  H   UNL     1       7.857  30.578  62.176  1.00  0.00     0.159 HD
HETATM   28  H   UNL     1       6.211  31.119  62.510  1.00  0.00     0.159 HD
HETATM   29  O   UNL     1       6.056  32.456  60.395  1.00  0.00    -0.266 OA
ENDBRANCH   8  25
TORSDOF 4
ENDMDL
MODEL 9
REMARK VINA RESULT:      -8.9      3.620      6.393
REMARK  4 active torsions:
REMARK  status: ('A' for Active; 'I' for Inactive)
REMARK    1  A    between atoms: C_6  and  C_7 
REMARK    2  A    between atoms: C_8  and  C_9 
REMARK       I    between atoms: C_9  and  N_10 
REMARK    3  A    between atoms: N_10  and  C_11 
REMARK    4  A    between atoms: C_18  and  C_19 
REMARK       I    between atoms: C_19  and  N_20 
ROOT
HETATM    1  C   UNL     1       6.816  32.031  61.619  1.00  0.00     0.035 A 
HETATM    2  C   UNL     1       5.571  32.637  61.831  1.00  0.00     0.046 A 
HETATM    3  C   UNL     1       5.307  33.275  63.065  1.00  0.00     0.030 A 
HETATM    4  C   UNL     1       6.298  33.288  64.039  1.00  0.00     0.063 A 
HETATM    5  N   UNL     1       5.757  33.961  65.098  1.00  0.00    -0.277 N 
HETATM    6  H   UNL     1       6.198  34.159  65.989  1.00  0.00     0.189 HD
HETATM    7  N   UNL     1       4.501  34.391  64.902  1.00  0.00    -0.168 NA
HETATM    8  C   UNL     1       4.207  33.976  63.648  1.00  0.00     0.156 A 
HETATM    9  C   UNL     1       7.551  32.701  63.859  1.00  0.00     0.034 A 
HETATM   10  C   UNL     1       7.788  32.075  62.630  1.00  0.00     0.032 A 
ENDROOT
BRANCH   1  11
HETATM   11  N   UNL     1       7.173  31.356  60.432  1.00  0.00    -0.327 N 
HETATM   12  C   UNL     1       8.144  31.711  59.519  1.00  0.00     0.227 C 
HETATM   13  O   UNL     1       8.891  32.677  59.580  1.00  0.00    -0.273 OA
HETATM   14  H   UNL     1       6.626  30.538  60.214  1.00  0.00     0.169 HD
BRANCH  12  15
HETATM   15  C   UNL     1       8.264  30.828  58.318  1.00  0.00     0.087 A 
HETATM   16  C   UNL     1       8.296  29.319  58.517  1.00  0.00     0.032 A 
HETATM   17  C   UNL     1       9.479  30.038  57.909  1.00  0.00     0.025 A 
BRANCH  16  18
HETATM   18  C   UNL     1       7.423  28.432  57.663  1.00  0.00    -0.051 A 
HETATM   19  C   UNL     1       7.930  27.260  57.076  1.00  0.00     0.031 A 
HETATM   20  C   UNL     1       7.111  26.427  56.311  1.00  0.00     0.034 A 
HETATM   21  C   UNL     1       5.769  26.738  56.116  1.00  0.00     0.024 A 
HETATM   22 CL   UNL     1       7.768  24.999  55.610  1.00  0.00    -0.084 Cl
HETATM   23  C   UNL     1       5.244  27.891  56.693  1.00  0.00     0.002 A 
HETATM   24  C   UNL     1       6.063  28.724  57.461  1.00  0.00     0.007 A 
ENDBRANCH  16  18
ENDBRANCH  12  15
ENDBRANCH   1  11
BRANCH   8  25
HETATM   25  C   UNL     1       2.897  34.254  63.043  1.00  0.00     0.270 C 
HETATM   26  N   UNL     1       1.838  33.766  63.760  1.00  0.00    -0.365 N 
HETATM   27  H   UNL     1       2.023  33.269  64.623  1.00  0.00     0.159 HD
HETATM   28  H   UNL     1       0.900  33.909  63.423  1.00  0.00     0.159 HD
HETATM   29  O   UNL     1       2.725  34.864  61.994  1.00  0.00    -0.266 OA
ENDBRANCH   8  25
TORSDOF 4
ENDMDL
MODEL 10
REMARK VINA RESULT:      -8.9      6.552      8.525
REMARK  4 active torsions:
REMARK  status: ('A' for Active; 'I' for Inactive)
REMARK    1  A    between atoms: C_6  and  C_7 
REMARK    2  A    between atoms: C_8  and  C_9 
REMARK       I    between atoms: C_9  and  N_10 
REMARK    3  A    between atoms: N_10  and  C_11 
REMARK    4  A    between atoms: C_18  and  C_19 
REMARK       I    between atoms: C_19  and  N_20 
ROOT
HETATM    1  C   UNL     1       4.520  27.587  51.158  1.00  0.00     0.035 A 
HETATM    2  C   UNL     1       3.723  27.702  50.012  1.00  0.00     0.046 A 
HETATM    3  C   UNL     1       2.752  28.727  49.938  1.00  0.00     0.030 A 
HETATM    4  C   UNL     1       2.616  29.600  51.010  1.00  0.00     0.063 A 
HETATM    5  N   UNL     1       1.615  30.461  50.653  1.00  0.00    -0.277 N 
HETATM    6  H   UNL     1       1.246  31.232  51.197  1.00  0.00     0.189 HD
HETATM    7  N   UNL     1       1.087  30.228  49.441  1.00  0.00    -0.168 NA
HETATM    8  C   UNL     1       1.779  29.159  48.985  1.00  0.00     0.156 A 
HETATM    9  C   UNL     1       3.397  29.520  52.163  1.00  0.00     0.034 A 
HETATM   10  C   UNL     1       4.351  28.497  52.213  1.00  0.00     0.032 A 
ENDROOT
BRANCH   1  11
HETATM   11  N   UNL     1       5.505  26.592  51.338  1.00  0.00    -0.327 N 
HETATM   12  C   UNL     1       5.406  25.430  52.074  1.00  0.00     0.227 C 
HETATM   13  O   UNL     1       4.432  25.039  52.700  1.00  0.00    -0.273 OA
HETATM   14  H   UNL     1       6.395  26.776  50.902  1.00  0.00     0.169 HD
BRANCH  12  15
HETATM   15  C   UNL     1       6.639  24.585  52.128  1.00  0.00     0.087 A 
HETATM   16  C   UNL     1       7.310  24.351  53.474  1.00  0.00     0.032 A 
HETATM   17  C   UNL     1       8.044  25.071  52.367  1.00  0.00     0.025 A 
BRANCH  16  18
HETATM   18  C   UNL     1       7.718  22.954  53.875  1.00  0.00    -0.051 A 
HETATM   19  C   UNL     1       7.874  22.602  55.227  1.00  0.00     0.031 A 
HETATM   20  C   UNL     1       8.223  21.301  55.596  1.00  0.00     0.034 A 
HETATM   21  C   UNL     1       8.420  20.320  54.628  1.00  0.00     0.024 A 
HETATM   22 CL   UNL     1       8.403  20.908  57.261  1.00  0.00    -0.084 Cl
HETATM   23  C   UNL     1       8.264  20.644  53.284  1.00  0.00     0.002 A 
HETATM   24  C   UNL     1       7.912  21.947  52.915  1.00  0.00     0.007 A 
ENDBRANCH  16  18
ENDBRANCH  12  15
ENDBRANCH   1  11
BRANCH   8  25
HETATM   25  C   UNL     1       1.499  28.580  47.664  1.00  0.00     0.270 C 
HETATM   26  N   UNL     1       2.133  29.216  46.631  1.00  0.00    -0.365 N 
HETATM   27  H   UNL     1       2.728  30.008  46.841  1.00  0.00     0.159 HD
HETATM   28  H   UNL     1       2.001  28.888  45.688  1.00  0.00     0.159 HD
HETATM   29  O   UNL     1       0.769  27.616  47.462  1.00  0.00    -0.266 OA
ENDBRANCH   8  25
TORSDOF 4
ENDMDL
