MODEL 1
REMARK VINA RESULT:      -8.5      0.000      0.000
REMARK  5 active torsions:
REMARK  status: ('A' for Active; 'I' for Inactive)
REMARK    1  A    between atoms: C_7  and  O_8 
REMARK    2  A    between atoms: O_8  and  C_9 
REMARK    3  A    between atoms: C_12  and  N_13 
REMARK    4  A    between atoms: N_13  and  C_16 
REMARK    5  A    between atoms: C_16  and  C_17 
ROOT
HETATM    1  C   UNL     1       7.654  23.766  54.137  1.00  0.00     0.028 A 
HETATM    2  C   UNL     1       7.983  22.477  54.549  1.00  0.00     0.062 A 
HETATM    3  C   UNL     1       8.042  21.391  53.624  1.00  0.00     0.101 C 
HETATM    4  N   UNL     1       8.098  20.494  52.891  1.00  0.00    -0.191 NA
HETATM    5  C   UNL     1       8.258  22.272  55.897  1.00  0.00     0.142 A 
HETATM    6  N   UNL     1       8.230  23.246  56.847  1.00  0.00    -0.236 NA
HETATM    7  C   UNL     1       7.908  24.484  56.407  1.00  0.00     0.164 A 
HETATM    8  C   UNL     1       7.615  24.786  55.083  1.00  0.00     0.059 A 
ENDROOT
BRANCH   7   9
HETATM    9  O   UNL     1       7.853  25.547  57.276  1.00  0.00    -0.329 OA
BRANCH   9  10
HETATM   10  C   UNL     1       7.526  26.849  56.800  1.00  0.00     0.130 C 
HETATM   11  C   UNL     1       8.534  27.934  57.205  1.00  0.00     0.034 C 
HETATM   12  C   UNL     1       8.191  29.277  56.562  1.00  0.00     0.035 C 
HETATM   13  C   UNL     1       6.738  29.707  56.794  1.00  0.00     0.186 C 
HETATM   14  C   UNL     1       5.750  28.603  56.397  1.00  0.00     0.035 C 
HETATM   15  C   UNL     1       6.066  27.252  57.042  1.00  0.00     0.034 C 
BRANCH  13  16
HETATM   16  N   UNL     1       6.506  30.069  58.232  1.00  0.00    -0.067 N 
HETATM   17  H   UNL     1       5.515  29.906  58.458  1.00  0.00     0.278 HD
HETATM   18  H   UNL     1       7.026  29.445  58.867  1.00  0.00     0.278 HD
BRANCH  16  19
HETATM   19  C   UNL     1       6.813  31.487  58.605  1.00  0.00     0.278 C 
BRANCH  19  20
HETATM   20  C   UNL     1       7.500  31.575  59.928  1.00  0.00     0.009 A 
HETATM   21  S   UNL     1       9.009  30.797  60.171  1.00  0.00    -0.103 SA
HETATM   22  C   UNL     1       9.112  31.349  61.788  1.00  0.00     0.072 A 
HETATM   23  C   UNL     1       8.020  32.110  62.145  1.00  0.00     0.052 A 
HETATM   24  C   UNL     1       7.861  32.694  63.445  1.00  0.00     0.100 C 
HETATM   25  C   UNL     1       7.087  32.238  61.070  1.00  0.00     0.039 A 
HETATM   26  N   UNL     1       7.709  33.166  64.492  1.00  0.00    -0.191 NA
ENDBRANCH  19  20
ENDBRANCH  16  19
ENDBRANCH  13  16
ENDBRANCH   9  10
ENDBRANCH   7   9
TORSDOF 5
ENDMDL
MODEL 2
REMARK VINA RESULT:      -8.2      2.771      3.448
REMARK  5 active torsions:
REMARK  status: ('A' for Active; 'I' for Inactive)
REMARK    1  A    between atoms: C_7  and  O_8 
REMARK    2  A    between atoms: O_8  and  C_9 
REMARK    3  A    between atoms: C_12  and  N_13 
REMARK    4  A    between atoms: N_13  and  C_16 
REMARK    5  A    between atoms: C_16  and  C_17 
ROOT
HETATM    1  C   UNL     1       7.861  23.222  52.513  1.00  0.00     0.028 A 
HETATM    2  C   UNL     1       8.210  22.426  53.600  1.00  0.00     0.062 A 
HETATM    3  C   UNL     1       8.428  21.022  53.457  1.00  0.00     0.101 C 
HETATM    4  N   UNL     1       8.612  19.881  53.364  1.00  0.00    -0.191 NA
HETATM    5  C   UNL     1       8.345  23.038  54.841  1.00  0.00     0.142 A 
HETATM    6  N   UNL     1       8.162  24.366  55.071  1.00  0.00    -0.236 NA
HETATM    7  C   UNL     1       7.824  25.107  53.990  1.00  0.00     0.164 A 
HETATM    8  C   UNL     1       7.664  24.586  52.712  1.00  0.00     0.059 A 
ENDROOT
BRANCH   7   9
HETATM    9  O   UNL     1       7.618  26.460  54.099  1.00  0.00    -0.329 OA
BRANCH   9  10
HETATM   10  C   UNL     1       6.381  26.962  54.597  1.00  0.00     0.130 C 
HETATM   11  C   UNL     1       5.857  28.191  53.842  1.00  0.00     0.034 C 
HETATM   12  C   UNL     1       4.473  28.601  54.346  1.00  0.00     0.035 C 
HETATM   13  C   UNL     1       4.407  28.772  55.868  1.00  0.00     0.186 C 
HETATM   14  C   UNL     1       4.951  27.539  56.600  1.00  0.00     0.035 C 
HETATM   15  C   UNL     1       6.342  27.120  56.122  1.00  0.00     0.034 C 
BRANCH  13  16
HETATM   16  N   UNL     1       5.185  29.978  56.309  1.00  0.00    -0.067 N 
HETATM   17  H   UNL     1       6.094  29.979  55.825  1.00  0.00     0.278 HD
HETATM   18  H   UNL     1       4.729  30.853  56.009  1.00  0.00     0.278 HD
BRANCH  16  19
HETATM   19  C   UNL     1       5.469  30.069  57.776  1.00  0.00     0.278 C 
BRANCH  19  20
HETATM   20  C   UNL     1       6.897  30.415  58.044  1.00  0.00     0.009 A 
HETATM   21  S   UNL     1       7.295  31.562  59.254  1.00  0.00    -0.103 SA
HETATM   22  C   UNL     1       8.974  31.387  58.966  1.00  0.00     0.072 A 
HETATM   23  C   UNL     1       9.234  30.476  57.966  1.00  0.00     0.052 A 
HETATM   24  C   UNL     1      10.559  30.144  57.531  1.00  0.00     0.100 C 
HETATM   25  C   UNL     1       8.032  29.916  57.431  1.00  0.00     0.039 A 
HETATM   26  N   UNL     1      11.622  29.869  57.158  1.00  0.00    -0.191 NA
ENDBRANCH  19  20
ENDBRANCH  16  19
ENDBRANCH  13  16
ENDBRANCH   9  10
ENDBRANCH   7   9
TORSDOF 5
ENDMDL
MODEL 3
REMARK VINA RESULT:      -8.2      2.403      9.817
REMARK  5 active torsions:
REMARK  status: ('A' for Active; 'I' for Inactive)
REMARK    1  A    between atoms: C_7  and  O_8 
REMARK    2  A    between atoms: O_8  and  C_9 
REMARK    3  A    between atoms: C_12  and  N_13 
REMARK    4  A    between atoms: N_13  and  C_16 
REMARK    5  A    between atoms: C_16  and  C_17 
ROOT
HETATM    1  C   UNL     1       8.642  30.992  62.629  1.00  0.00     0.028 A 
HETATM    2  C   UNL     1       7.996  32.213  62.459  1.00  0.00     0.062 A 
HETATM    3  C   UNL     1       7.423  32.914  63.564  1.00  0.00     0.101 C 
HETATM    4  N   UNL     1       6.952  33.502  64.446  1.00  0.00    -0.191 NA
HETATM    5  C   UNL     1       7.923  32.741  61.175  1.00  0.00     0.142 A 
HETATM    6  N   UNL     1       8.442  32.148  60.066  1.00  0.00    -0.236 NA
HETATM    7  C   UNL     1       9.063  30.963  60.272  1.00  0.00     0.164 A 
HETATM    8  C   UNL     1       9.184  30.356  61.515  1.00  0.00     0.059 A 
ENDROOT
BRANCH   7   9
HETATM    9  O   UNL     1       9.629  30.274  59.227  1.00  0.00    -0.329 OA
BRANCH   9  10
HETATM   10  C   UNL     1       8.864  29.973  58.064  1.00  0.00     0.130 C 
HETATM   11  C   UNL     1       7.551  29.232  58.355  1.00  0.00     0.034 C 
HETATM   12  C   UNL     1       6.725  29.050  57.082  1.00  0.00     0.035 C 
HETATM   13  C   UNL     1       7.515  28.418  55.931  1.00  0.00     0.186 C 
HETATM   14  C   UNL     1       8.830  29.164  55.670  1.00  0.00     0.035 C 
HETATM   15  C   UNL     1       9.680  29.344  56.927  1.00  0.00     0.034 C 
BRANCH  13  16
HETATM   16  N   UNL     1       7.826  26.978  56.218  1.00  0.00    -0.067 N 
HETATM   17  H   UNL     1       8.745  26.751  55.812  1.00  0.00     0.278 HD
HETATM   18  H   UNL     1       7.938  26.809  57.229  1.00  0.00     0.278 HD
BRANCH  16  19
HETATM   19  C   UNL     1       6.850  25.979  55.676  1.00  0.00     0.278 C 
BRANCH  19  20
HETATM   20  C   UNL     1       7.435  24.606  55.619  1.00  0.00     0.009 A 
HETATM   21  S   UNL     1       8.440  24.043  56.889  1.00  0.00    -0.103 SA
HETATM   22  C   UNL     1       8.659  22.522  56.134  1.00  0.00     0.072 A 
HETATM   23  C   UNL     1       7.984  22.438  54.936  1.00  0.00     0.052 A 
HETATM   24  C   UNL     1       8.002  21.269  54.105  1.00  0.00     0.100 C 
HETATM   25  C   UNL     1       7.279  23.645  54.637  1.00  0.00     0.039 A 
HETATM   26  N   UNL     1       8.011  20.339  53.415  1.00  0.00    -0.191 NA
ENDBRANCH  19  20
ENDBRANCH  16  19
ENDBRANCH  13  16
ENDBRANCH   9  10
ENDBRANCH   7   9
TORSDOF 5
ENDMDL
MODEL 4
REMARK VINA RESULT:      -8.2      2.961      9.588
REMARK  5 active torsions:
REMARK  status: ('A' for Active; 'I' for Inactive)
REMARK    1  A    between atoms: C_7  and  O_8 
REMARK    2  A    between atoms: O_8  and  C_9 
REMARK    3  A    between atoms: C_12  and  N_13 
REMARK    4  A    between atoms: N_13  and  C_16 
REMARK    5  A    between atoms: C_16  and  C_17 
ROOT
HETATM    1  C   UNL     1       8.068  32.168  62.942  1.00  0.00     0.028 A 
HETATM    2  C   UNL     1       6.762  32.588  62.706  1.00  0.00     0.062 A 
HETATM    3  C   UNL     1       5.826  32.749  63.773  1.00  0.00     0.101 C 
HETATM    4  N   UNL     1       5.050  32.888  64.623  1.00  0.00    -0.191 NA
HETATM    5  C   UNL     1       6.387  32.852  61.393  1.00  0.00     0.142 A 
HETATM    6  N   UNL     1       7.211  32.731  60.317  1.00  0.00    -0.236 NA
HETATM    7  C   UNL     1       8.472  32.322  60.586  1.00  0.00     0.164 A 
HETATM    8  C   UNL     1       8.938  32.032  61.863  1.00  0.00     0.059 A 
ENDROOT
BRANCH   7   9
HETATM    9  O   UNL     1       9.393  32.168  59.579  1.00  0.00    -0.329 OA
BRANCH   9  10
HETATM   10  C   UNL     1       9.524  30.919  58.908  1.00  0.00     0.130 C 
HETATM   11  C   UNL     1      10.381  30.979  57.636  1.00  0.00     0.034 C 
HETATM   12  C   UNL     1      10.580  29.588  57.036  1.00  0.00     0.035 C 
HETATM   13  C   UNL     1       9.269  28.823  56.826  1.00  0.00     0.186 C 
HETATM   14  C   UNL     1       8.422  28.790  58.104  1.00  0.00     0.035 C 
HETATM   15  C   UNL     1       8.197  30.174  58.714  1.00  0.00     0.034 C 
BRANCH  13  16
HETATM   16  N   UNL     1       8.456  29.440  55.725  1.00  0.00    -0.067 N 
HETATM   17  H   UNL     1       8.430  30.460  55.865  1.00  0.00     0.278 HD
HETATM   18  H   UNL     1       8.906  29.315  54.806  1.00  0.00     0.278 HD
BRANCH  16  19
HETATM   19  C   UNL     1       7.036  28.975  55.624  1.00  0.00     0.278 C 
BRANCH  19  20
HETATM   20  C   UNL     1       6.913  27.745  54.785  1.00  0.00     0.009 A 
HETATM   21  S   UNL     1       6.416  27.863  53.149  1.00  0.00    -0.103 SA
HETATM   22  C   UNL     1       6.539  26.171  52.918  1.00  0.00     0.072 A 
HETATM   23  C   UNL     1       6.949  25.521  54.062  1.00  0.00     0.052 A 
HETATM   24  C   UNL     1       7.133  24.101  54.136  1.00  0.00     0.100 C 
HETATM   25  C   UNL     1       7.162  26.432  55.143  1.00  0.00     0.039 A 
HETATM   26  N   UNL     1       7.277  22.955  54.220  1.00  0.00    -0.191 NA
ENDBRANCH  19  20
ENDBRANCH  16  19
ENDBRANCH  13  16
ENDBRANCH   9  10
ENDBRANCH   7   9
TORSDOF 5
ENDMDL
MODEL 5
REMARK VINA RESULT:      -8.1      2.788      9.568
REMARK  5 active torsions:
REMARK  status: ('A' for Active; 'I' for Inactive)
REMARK    1  A    between atoms: C_7  and  O_8 
REMARK    2  A    between atoms: O_8  and  C_9 
REMARK    3  A    between atoms: C_12  and  N_13 
REMARK    4  A    between atoms: N_13  and  C_16 
REMARK    5  A    between atoms: C_16  and  C_17 
ROOT
HETATM    1  C   UNL     1       7.692  32.693  61.020  1.00  0.00     0.028 A 
HETATM    2  C   UNL     1       8.112  32.087  62.201  1.00  0.00     0.062 A 
HETATM    3  C   UNL     1       7.889  32.698  63.472  1.00  0.00     0.101 C 
HETATM    4  N   UNL     1       7.719  33.174  64.515  1.00  0.00    -0.191 NA
HETATM    5  C   UNL     1       8.758  30.859  62.111  1.00  0.00     0.142 A 
HETATM    6  N   UNL     1       9.008  30.202  60.947  1.00  0.00    -0.236 NA
HETATM    7  C   UNL     1       8.585  30.822  59.821  1.00  0.00     0.164 A 
HETATM    8  C   UNL     1       7.934  32.049  59.809  1.00  0.00     0.059 A 
ENDROOT
BRANCH   7   9
HETATM    9  O   UNL     1       8.779  30.251  58.587  1.00  0.00    -0.329 OA
BRANCH   9  10
HETATM   10  C   UNL     1       7.755  29.461  57.990  1.00  0.00     0.130 C 
HETATM   11  C   UNL     1       8.119  27.976  57.842  1.00  0.00     0.034 C 
HETATM   12  C   UNL     1       6.936  27.168  57.311  1.00  0.00     0.035 C 
HETATM   13  C   UNL     1       6.324  27.754  56.034  1.00  0.00     0.186 C 
HETATM   14  C   UNL     1       5.985  29.240  56.200  1.00  0.00     0.035 C 
HETATM   15  C   UNL     1       7.159  30.073  56.716  1.00  0.00     0.034 C 
BRANCH  13  16
HETATM   16  N   UNL     1       7.257  27.599  54.869  1.00  0.00    -0.067 N 
HETATM   17  H   UNL     1       7.563  28.533  54.564  1.00  0.00     0.278 HD
HETATM   18  H   UNL     1       8.127  27.115  55.142  1.00  0.00     0.278 HD
BRANCH  16  19
HETATM   19  C   UNL     1       6.690  26.909  53.666  1.00  0.00     0.278 C 
BRANCH  19  20
HETATM   20  C   UNL     1       7.103  25.475  53.603  1.00  0.00     0.009 A 
HETATM   21  S   UNL     1       7.707  24.815  52.141  1.00  0.00    -0.103 SA
HETATM   22  C   UNL     1       7.943  23.276  52.853  1.00  0.00     0.072 A 
HETATM   23  C   UNL     1       7.570  23.257  54.179  1.00  0.00     0.052 A 
HETATM   24  C   UNL     1       7.668  22.090  55.006  1.00  0.00     0.100 C 
HETATM   25  C   UNL     1       7.081  24.529  54.612  1.00  0.00     0.039 A 
HETATM   26  N   UNL     1       7.730  21.156  55.689  1.00  0.00    -0.191 NA
ENDBRANCH  19  20
ENDBRANCH  16  19
ENDBRANCH  13  16
ENDBRANCH   9  10
ENDBRANCH   7   9
TORSDOF 5
ENDMDL
MODEL 6
REMARK VINA RESULT:      -7.9      1.839      2.196
REMARK  5 active torsions:
REMARK  status: ('A' for Active; 'I' for Inactive)
REMARK    1  A    between atoms: C_7  and  O_8 
REMARK    2  A    between atoms: O_8  and  C_9 
REMARK    3  A    between atoms: C_12  and  N_13 
REMARK    4  A    between atoms: N_13  and  C_16 
REMARK    5  A    between atoms: C_16  and  C_17 
ROOT
HETATM    1  C   UNL     1       7.999  23.403  53.777  1.00  0.00     0.028 A 
HETATM    2  C   UNL     1       8.188  22.185  54.423  1.00  0.00     0.062 A 
HETATM    3  C   UNL     1       8.336  20.967  53.692  1.00  0.00     0.101 C 
HETATM    4  N   UNL     1       8.461  19.967  53.119  1.00  0.00    -0.191 NA
HETATM    5  C   UNL     1       8.231  22.183  55.813  1.00  0.00     0.142 A 
HETATM    6  N   UNL     1       8.103  23.292  56.591  1.00  0.00    -0.236 NA
HETATM    7  C   UNL     1       7.921  24.456  55.926  1.00  0.00     0.164 A 
HETATM    8  C   UNL     1       7.862  24.558  54.542  1.00  0.00     0.059 A 
ENDROOT
BRANCH   7   9
HETATM    9  O   UNL     1       7.784  25.642  56.606  1.00  0.00    -0.329 OA
BRANCH   9  10
HETATM   10  C   UNL     1       6.868  26.632  56.149  1.00  0.00     0.130 C 
HETATM   11  C   UNL     1       7.364  28.073  56.330  1.00  0.00     0.034 C 
HETATM   12  C   UNL     1       6.391  29.075  55.711  1.00  0.00     0.035 C 
HETATM   13  C   UNL     1       4.944  28.888  56.181  1.00  0.00     0.186 C 
HETATM   14  C   UNL     1       4.476  27.437  56.006  1.00  0.00     0.035 C 
HETATM   15  C   UNL     1       5.428  26.417  56.632  1.00  0.00     0.034 C 
BRANCH  13  16
HETATM   16  N   UNL     1       4.793  29.273  57.623  1.00  0.00    -0.067 N 
HETATM   17  H   UNL     1       4.075  28.673  58.052  1.00  0.00     0.278 HD
HETATM   18  H   UNL     1       5.651  29.077  58.160  1.00  0.00     0.278 HD
BRANCH  16  19
HETATM   19  C   UNL     1       4.388  30.692  57.880  1.00  0.00     0.278 C 
BRANCH  19  20
HETATM   20  C   UNL     1       5.358  31.392  58.775  1.00  0.00     0.009 A 
HETATM   21  S   UNL     1       4.791  32.418  60.026  1.00  0.00    -0.103 SA
HETATM   22  C   UNL     1       6.383  32.777  60.546  1.00  0.00     0.072 A 
HETATM   23  C   UNL     1       7.333  32.134  59.784  1.00  0.00     0.052 A 
HETATM   24  C   UNL     1       8.743  32.264  60.012  1.00  0.00     0.100 C 
HETATM   25  C   UNL     1       6.740  31.335  58.758  1.00  0.00     0.039 A 
HETATM   26  N   UNL     1       9.886  32.363  60.173  1.00  0.00    -0.191 NA
ENDBRANCH  19  20
ENDBRANCH  16  19
ENDBRANCH  13  16
ENDBRANCH   9  10
ENDBRANCH   7   9
TORSDOF 5
ENDMDL
MODEL 7
REMARK VINA RESULT:      -7.8      1.533      1.957
REMARK  5 active torsions:
REMARK  status: ('A' for Active; 'I' for Inactive)
REMARK    1  A    between atoms: C_7  and  O_8 
REMARK    2  A    between atoms: O_8  and  C_9 
REMARK    3  A    between atoms: C_12  and  N_13 
REMARK    4  A    between atoms: N_13  and  C_16 
REMARK    5  A    between atoms: C_16  and  C_17 
ROOT
HETATM    1  C   UNL     1       8.468  22.499  56.124  1.00  0.00     0.028 A 
HETATM    2  C   UNL     1       7.991  22.333  54.828  1.00  0.00     0.062 A 
HETATM    3  C   UNL     1       8.409  21.237  54.014  1.00  0.00     0.101 C 
HETATM    4  N   UNL     1       8.733  20.355  53.335  1.00  0.00    -0.191 NA
HETATM    5  C   UNL     1       7.085  23.269  54.339  1.00  0.00     0.142 A 
HETATM    6  N   UNL     1       6.628  24.340  55.043  1.00  0.00    -0.236 NA
HETATM    7  C   UNL     1       7.114  24.467  56.299  1.00  0.00     0.164 A 
HETATM    8  C   UNL     1       8.022  23.586  56.873  1.00  0.00     0.059 A 
ENDROOT
BRANCH   7   9
HETATM    9  O   UNL     1       6.721  25.508  57.105  1.00  0.00    -0.329 OA
BRANCH   9  10
HETATM   10  C   UNL     1       7.120  26.841  56.805  1.00  0.00     0.130 C 
HETATM   11  C   UNL     1       8.565  27.167  57.210  1.00  0.00     0.034 C 
HETATM   12  C   UNL     1       8.966  28.568  56.751  1.00  0.00     0.035 C 
HETATM   13  C   UNL     1       7.975  29.655  57.181  1.00  0.00     0.186 C 
HETATM   14  C   UNL     1       6.537  29.301  56.781  1.00  0.00     0.035 C 
HETATM   15  C   UNL     1       6.109  27.908  57.244  1.00  0.00     0.034 C 
BRANCH  13  16
HETATM   16  N   UNL     1       8.023  29.871  58.666  1.00  0.00    -0.067 N 
HETATM   17  H   UNL     1       7.133  29.554  59.075  1.00  0.00     0.278 HD
HETATM   18  H   UNL     1       8.741  29.279  59.111  1.00  0.00     0.278 HD
BRANCH  16  19
HETATM   19  C   UNL     1       8.232  31.285  59.113  1.00  0.00     0.278 C 
BRANCH  19  20
HETATM   20  C   UNL     1       7.086  31.783  59.931  1.00  0.00     0.009 A 
HETATM   21  S   UNL     1       5.689  32.415  59.165  1.00  0.00    -0.103 SA
HETATM   22  C   UNL     1       4.919  32.717  60.663  1.00  0.00     0.072 A 
HETATM   23  C   UNL     1       5.705  32.348  61.733  1.00  0.00     0.052 A 
HETATM   24  C   UNL     1       5.294  32.495  63.098  1.00  0.00     0.100 C 
HETATM   25  C   UNL     1       6.960  31.811  61.308  1.00  0.00     0.039 A 
HETATM   26  N   UNL     1       4.985  32.614  64.209  1.00  0.00    -0.191 NA
ENDBRANCH  19  20
ENDBRANCH  16  19
ENDBRANCH  13  16
ENDBRANCH   9  10
ENDBRANCH   7   9
TORSDOF 5
ENDMDL
MODEL 8
REMARK VINA RESULT:      -7.7      1.788      2.309
REMARK  5 active torsions:
REMARK  status: ('A' for Active; 'I' for Inactive)
REMARK    1  A    between atoms: C_7  and  O_8 
REMARK    2  A    between atoms: O_8  and  C_9 
REMARK    3  A    between atoms: C_12  and  N_13 
REMARK    4  A    between atoms: N_13  and  C_16 
REMARK    5  A    between atoms: C_16  and  C_17 
ROOT
HETATM    1  C   UNL     1       8.004  23.302  52.820  1.00  0.00     0.028 A 
HETATM    2  C   UNL     1       7.932  22.459  53.925  1.00  0.00     0.062 A 
HETATM    3  C   UNL     1       8.300  21.082  53.838  1.00  0.00     0.101 C 
HETATM    4  N   UNL     1       8.594  19.961  53.791  1.00  0.00    -0.191 NA
HETATM    5  C   UNL     1       7.492  22.997  55.129  1.00  0.00     0.142 A 
HETATM    6  N   UNL     1       7.125  24.295  55.306  1.00  0.00    -0.236 NA
HETATM    7  C   UNL     1       7.209  25.083  54.209  1.00  0.00     0.164 A 
HETATM    8  C   UNL     1       7.635  24.637  52.965  1.00  0.00     0.059 A 
ENDROOT
BRANCH   7   9
HETATM    9  O   UNL     1       6.870  26.413  54.269  1.00  0.00    -0.329 OA
BRANCH   9  10
HETATM   10  C   UNL     1       6.548  27.018  55.517  1.00  0.00     0.130 C 
HETATM   11  C   UNL     1       5.324  27.943  55.466  1.00  0.00     0.034 C 
HETATM   12  C   UNL     1       4.962  28.461  56.857  1.00  0.00     0.035 C 
HETATM   13  C   UNL     1       6.146  29.091  57.598  1.00  0.00     0.186 C 
HETATM   14  C   UNL     1       7.362  28.156  57.623  1.00  0.00     0.035 C 
HETATM   15  C   UNL     1       7.752  27.638  56.238  1.00  0.00     0.034 C 
BRANCH  13  16
HETATM   16  N   UNL     1       6.549  30.390  56.962  1.00  0.00    -0.067 N 
HETATM   17  H   UNL     1       7.530  30.586  57.205  1.00  0.00     0.278 HD
HETATM   18  H   UNL     1       6.543  30.325  55.933  1.00  0.00     0.278 HD
BRANCH  16  19
HETATM   19  C   UNL     1       5.749  31.590  57.366  1.00  0.00     0.278 C 
BRANCH  19  20
HETATM   20  C   UNL     1       5.909  31.899  58.819  1.00  0.00     0.009 A 
HETATM   21  S   UNL     1       7.470  31.926  59.528  1.00  0.00    -0.103 SA
HETATM   22  C   UNL     1       6.839  32.338  61.066  1.00  0.00     0.072 A 
HETATM   23  C   UNL     1       5.467  32.453  61.048  1.00  0.00     0.052 A 
HETATM   24  C   UNL     1       4.691  32.791  62.205  1.00  0.00     0.100 C 
HETATM   25  C   UNL     1       4.929  32.196  59.748  1.00  0.00     0.039 A 
HETATM   26  N   UNL     1       4.046  33.054  63.131  1.00  0.00    -0.191 NA
ENDBRANCH  19  20
ENDBRANCH  16  19
ENDBRANCH  13  16
ENDBRANCH   9  10
ENDBRANCH   7   9
TORSDOF 5
ENDMDL
MODEL 9
REMARK VINA RESULT:      -7.5      7.063     10.243
REMARK  5 active torsions:
REMARK  status: ('A' for Active; 'I' for Inactive)
REMARK    1  A    between atoms: C_7  and  O_8 
REMARK    2  A    between atoms: O_8  and  C_9 
REMARK    3  A    between atoms: C_12  and  N_13 
REMARK    4  A    between atoms: N_13  and  C_16 
REMARK    5  A    between atoms: C_16  and  C_17 
ROOT
HETATM    1  C   UNL     1       8.429  22.865  53.987  1.00  0.00     0.028 A 
HETATM    2  C   UNL     1       7.855  22.705  55.245  1.00  0.00     0.062 A 
HETATM    3  C   UNL     1       7.976  21.481  55.970  1.00  0.00     0.101 C 
HETATM    4  N   UNL     1       8.062  20.497  56.578  1.00  0.00    -0.191 NA
HETATM    5  C   UNL     1       7.156  23.779  55.786  1.00  0.00     0.142 A 
HETATM    6  N   UNL     1       6.993  24.982  55.170  1.00  0.00    -0.236 NA
HETATM    7  C   UNL     1       7.566  25.099  53.950  1.00  0.00     0.164 A 
HETATM    8  C   UNL     1       8.281  24.083  53.328  1.00  0.00     0.059 A 
ENDROOT
BRANCH   7   9
HETATM    9  O   UNL     1       7.471  26.269  53.237  1.00  0.00    -0.329 OA
BRANCH   9  10
HETATM   10  C   UNL     1       6.289  26.570  52.503  1.00  0.00     0.130 C 
HETATM   11  C   UNL     1       6.053  25.654  51.294  1.00  0.00     0.034 C 
HETATM   12  C   UNL     1       4.711  25.952  50.627  1.00  0.00     0.035 C 
HETATM   13  C   UNL     1       4.517  27.435  50.288  1.00  0.00     0.186 C 
HETATM   14  C   UNL     1       4.775  28.332  51.505  1.00  0.00     0.035 C 
HETATM   15  C   UNL     1       6.120  28.061  52.180  1.00  0.00     0.034 C 
BRANCH  13  16
HETATM   16  N   UNL     1       5.432  27.856  49.175  1.00  0.00    -0.067 N 
HETATM   17  H   UNL     1       5.495  28.884  49.171  1.00  0.00     0.278 HD
HETATM   18  H   UNL     1       6.399  27.537  49.338  1.00  0.00     0.278 HD
BRANCH  16  19
HETATM   19  C   UNL     1       5.020  27.436  47.798  1.00  0.00     0.278 C 
BRANCH  19  20
HETATM   20  C   UNL     1       3.697  28.014  47.415  1.00  0.00     0.009 A 
HETATM   21  S   UNL     1       3.513  29.710  47.244  1.00  0.00    -0.103 SA
HETATM   22  C   UNL     1       1.864  29.557  46.812  1.00  0.00     0.072 A 
HETATM   23  C   UNL     1       1.453  28.242  46.798  1.00  0.00     0.052 A 
HETATM   24  C   UNL     1       0.117  27.840  46.467  1.00  0.00     0.100 C 
HETATM   25  C   UNL     1       2.513  27.350  47.150  1.00  0.00     0.039 A 
HETATM   26  N   UNL     1      -0.960  27.495  46.212  1.00  0.00    -0.191 NA
ENDBRANCH  19  20
ENDBRANCH  16  19
ENDBRANCH  13  16
ENDBRANCH   9  10
ENDBRANCH   7   9
TORSDOF 5
ENDMDL
MODEL 10
REMARK VINA RESULT:      -7.5      5.779      8.454
REMARK  5 active torsions:
REMARK  status: ('A' for Active; 'I' for Inactive)
REMARK    1  A    between atoms: C_7  and  O_8 
REMARK    2  A    between atoms: O_8  and  C_9 
REMARK    3  A    between atoms: C_12  and  N_13 
REMARK    4  A    between atoms: N_13  and  C_16 
REMARK    5  A    between atoms: C_16  and  C_17 
ROOT
HETATM    1  C   UNL     1       8.483  22.292  53.542  1.00  0.00     0.028 A 
HETATM    2  C   UNL     1       8.360  22.201  54.925  1.00  0.00     0.062 A 
HETATM    3  C   UNL     1       8.934  21.116  55.655  1.00  0.00     0.101 C 
HETATM    4  N   UNL     1       9.393  20.247  56.269  1.00  0.00    -0.191 NA
HETATM    5  C   UNL     1       7.658  23.204  55.586  1.00  0.00     0.142 A 
HETATM    6  N   UNL     1       7.082  24.274  54.974  1.00  0.00    -0.236 NA
HETATM    7  C   UNL     1       7.225  24.328  53.630  1.00  0.00     0.164 A 
HETATM    8  C   UNL     1       7.905  23.374  52.883  1.00  0.00     0.059 A 
ENDROOT
BRANCH   7   9
HETATM    9  O   UNL     1       6.689  25.365  52.906  1.00  0.00    -0.329 OA
BRANCH   9  10
HETATM   10  C   UNL     1       6.080  26.468  53.570  1.00  0.00     0.130 C 
HETATM   11  C   UNL     1       4.647  26.762  53.107  1.00  0.00     0.034 C 
HETATM   12  C   UNL     1       4.012  27.873  53.943  1.00  0.00     0.035 C 
HETATM   13  C   UNL     1       4.874  29.138  54.026  1.00  0.00     0.186 C 
HETATM   14  C   UNL     1       6.306  28.818  54.474  1.00  0.00     0.035 C 
HETATM   15  C   UNL     1       6.967  27.718  53.642  1.00  0.00     0.034 C 
BRANCH  13  16
HETATM   16  N   UNL     1       4.929  29.841  52.701  1.00  0.00    -0.067 N 
HETATM   17  H   UNL     1       5.420  30.737  52.823  1.00  0.00     0.278 HD
HETATM   18  H   UNL     1       5.501  29.320  52.019  1.00  0.00     0.278 HD
BRANCH  16  19
HETATM   19  C   UNL     1       3.605  30.148  52.072  1.00  0.00     0.278 C 
BRANCH  19  20
HETATM   20  C   UNL     1       3.382  29.347  50.831  1.00  0.00     0.009 A 
HETATM   21  S   UNL     1       1.803  29.175  50.187  1.00  0.00    -0.103 SA
HETATM   22  C   UNL     1       2.364  28.220  48.881  1.00  0.00     0.072 A 
HETATM   23  C   UNL     1       3.727  28.029  48.929  1.00  0.00     0.052 A 
HETATM   24  C   UNL     1       4.449  27.267  47.953  1.00  0.00     0.100 C 
HETATM   25  C   UNL     1       4.316  28.678  50.059  1.00  0.00     0.039 A 
HETATM   26  N   UNL     1       5.049  26.646  47.179  1.00  0.00    -0.191 NA
ENDBRANCH  19  20
ENDBRANCH  16  19
ENDBRANCH  13  16
ENDBRANCH   9  10
ENDBRANCH   7   9
TORSDOF 5
ENDMDL
