MODEL 1
REMARK VINA RESULT:     -12.2      0.000      0.000
REMARK  4 active torsions:
REMARK  status: ('A' for Active; 'I' for Inactive)
REMARK    1  A    between atoms: C_2  and  C_3 
REMARK    2  A    between atoms: N_16  and  C_17 
REMARK    3  A    between atoms: C_17  and  C_18 
REMARK       I    between atoms: C_18  and  N_19 
REMARK    4  A    between atoms: N_19  and  C_20 
ROOT
HETATM    1  C   UNL     1       6.026  28.667  56.154  1.00  0.00     0.054 C 
HETATM    2  C   UNL     1       7.436  28.071  56.129  1.00  0.00     0.140 A 
HETATM    3  N   UNL     1       8.226  28.768  55.133  1.00  0.00    -0.321 N 
HETATM    4  C   UNL     1       9.325  29.396  55.668  1.00  0.00     0.326 A 
HETATM    5  O   UNL     1      10.186  29.941  55.003  1.00  0.00    -0.247 OA
HETATM    6  N   UNL     1       9.289  29.252  57.019  1.00  0.00    -0.259 N 
HETATM    7  C   UNL     1       8.192  28.530  57.401  1.00  0.00     0.261 A 
HETATM    8  O   UNL     1       7.871  28.322  58.566  1.00  0.00    -0.270 OA
HETATM    9  H   UNL     1       8.128  28.660  54.132  1.00  0.00     0.165 HD
ENDROOT
BRANCH   6  10
HETATM   10  C   UNL     1      10.291  29.776  57.920  1.00  0.00     0.240 C 
BRANCH  10  11
HETATM   11  C   UNL     1       9.732  30.958  58.708  1.00  0.00     0.240 C 
HETATM   12  N   UNL     1       8.990  30.580  59.820  1.00  0.00    -0.325 N 
HETATM   13  H   UNL     1       8.989  29.587  60.037  1.00  0.00     0.169 HD
HETATM   14  O   UNL     1      10.023  32.109  58.393  1.00  0.00    -0.271 OA
BRANCH  12  15
HETATM   15  C   UNL     1       8.337  31.443  60.742  1.00  0.00     0.047 A 
HETATM   16  C   UNL     1       7.108  32.080  60.377  1.00  0.00     0.019 A 
HETATM   17  C   UNL     1       6.474  32.942  61.306  1.00  0.00     0.069 A 
HETATM   18  C   UNL     1       6.428  31.901  59.148  1.00  0.00     0.017 A 
HETATM   19  N   UNL     1       5.309  33.568  61.064  1.00  0.00    -0.260 NA
HETATM   20  C   UNL     1       7.061  33.162  62.540  1.00  0.00     0.032 A 
HETATM   21  C   UNL     1       4.703  33.358  59.879  1.00  0.00     0.117 A 
HETATM   22  C   UNL     1       5.217  32.541  58.897  1.00  0.00     0.020 A 
HETATM   23  C   UNL     1       8.260  32.554  62.896  1.00  0.00     0.005 A 
HETATM   24  C   UNL     1       8.893  31.699  62.002  1.00  0.00     0.030 A 
ENDBRANCH  12  15
ENDBRANCH  10  11
ENDBRANCH   6  10
BRANCH   2  25
HETATM   25  C   UNL     1       7.528  26.559  55.920  1.00  0.00    -0.020 A 
HETATM   26  C   UNL     1       7.619  26.022  54.616  1.00  0.00     0.022 A 
HETATM   27  C   UNL     1       7.667  24.636  54.375  1.00  0.00    -0.025 A 
HETATM   28  C   UNL     1       7.637  23.747  55.466  1.00  0.00    -0.026 A 
HETATM   29  C   UNL     1       7.735  24.120  53.070  1.00  0.00     0.012 A 
HETATM   30  C   UNL     1       7.567  24.269  56.766  1.00  0.00     0.013 A 
HETATM   31  C   UNL     1       7.676  22.362  55.228  1.00  0.00     0.012 A 
HETATM   32  C   UNL     1       7.514  25.650  56.989  1.00  0.00     0.011 A 
HETATM   33  C   UNL     1       7.742  21.864  53.926  1.00  0.00     0.001 A 
HETATM   34  C   UNL     1       7.772  22.743  52.847  1.00  0.00     0.001 A 
ENDBRANCH   2  25
TORSDOF 4
ENDMDL
MODEL 2
REMARK VINA RESULT:     -11.7      1.121      2.528
REMARK  4 active torsions:
REMARK  status: ('A' for Active; 'I' for Inactive)
REMARK    1  A    between atoms: C_2  and  C_3 
REMARK    2  A    between atoms: N_16  and  C_17 
REMARK    3  A    between atoms: C_17  and  C_18 
REMARK       I    between atoms: C_18  and  N_19 
REMARK    4  A    between atoms: N_19  and  C_20 
ROOT
HETATM    1  C   UNL     1       5.723  28.294  54.437  1.00  0.00     0.054 C 
HETATM    2  C   UNL     1       7.095  27.685  54.735  1.00  0.00     0.140 A 
HETATM    3  N   UNL     1       8.125  28.568  54.221  1.00  0.00    -0.321 N 
HETATM    4  C   UNL     1       8.965  29.035  55.203  1.00  0.00     0.326 A 
HETATM    5  O   UNL     1       9.964  29.694  54.983  1.00  0.00    -0.247 OA
HETATM    6  N   UNL     1       8.510  28.595  56.406  1.00  0.00    -0.259 N 
HETATM    7  C   UNL     1       7.387  27.833  56.249  1.00  0.00     0.261 A 
HETATM    8  O   UNL     1       6.723  27.378  57.175  1.00  0.00    -0.270 OA
HETATM    9  H   UNL     1       8.354  28.688  53.243  1.00  0.00     0.165 HD
ENDROOT
BRANCH   6  10
HETATM   10  C   UNL     1       9.148  28.882  57.671  1.00  0.00     0.240 C 
BRANCH  10  11
HETATM   11  C   UNL     1       8.714  30.252  58.187  1.00  0.00     0.240 C 
HETATM   12  N   UNL     1       7.469  30.240  58.805  1.00  0.00    -0.325 N 
HETATM   13  H   UNL     1       7.045  29.327  58.932  1.00  0.00     0.169 HD
HETATM   14  O   UNL     1       9.475  31.213  58.116  1.00  0.00    -0.271 OA
BRANCH  12  15
HETATM   15  C   UNL     1       6.792  31.353  59.376  1.00  0.00     0.047 A 
HETATM   16  C   UNL     1       7.116  31.783  60.702  1.00  0.00     0.019 A 
HETATM   17  C   UNL     1       6.426  32.889  61.257  1.00  0.00     0.069 A 
HETATM   18  C   UNL     1       8.113  31.208  61.527  1.00  0.00     0.017 A 
HETATM   19  N   UNL     1       6.674  33.379  62.485  1.00  0.00    -0.260 NA
HETATM   20  C   UNL     1       5.445  33.522  60.514  1.00  0.00     0.032 A 
HETATM   21  C   UNL     1       7.637  32.797  63.225  1.00  0.00     0.117 A 
HETATM   22  C   UNL     1       8.378  31.719  62.795  1.00  0.00     0.020 A 
HETATM   23  C   UNL     1       5.119  33.102  59.229  1.00  0.00     0.005 A 
HETATM   24  C   UNL     1       5.790  32.024  58.664  1.00  0.00     0.030 A 
ENDBRANCH  12  15
ENDBRANCH  10  11
ENDBRANCH   6  10
BRANCH   2  25
HETATM   25  C   UNL     1       7.325  26.256  54.242  1.00  0.00    -0.020 A 
HETATM   26  C   UNL     1       7.304  25.174  55.150  1.00  0.00     0.022 A 
HETATM   27  C   UNL     1       7.549  23.848  54.746  1.00  0.00    -0.025 A 
HETATM   28  C   UNL     1       7.812  23.580  53.389  1.00  0.00    -0.026 A 
HETATM   29  C   UNL     1       7.545  22.787  55.668  1.00  0.00     0.012 A 
HETATM   30  C   UNL     1       7.816  24.643  52.475  1.00  0.00     0.013 A 
HETATM   31  C   UNL     1       8.066  22.258  52.984  1.00  0.00     0.012 A 
HETATM   32  C   UNL     1       7.576  25.958  52.894  1.00  0.00     0.011 A 
HETATM   33  C   UNL     1       8.060  21.215  53.911  1.00  0.00     0.001 A 
HETATM   34  C   UNL     1       7.800  21.480  55.253  1.00  0.00     0.001 A 
ENDBRANCH   2  25
TORSDOF 4
ENDMDL
MODEL 3
REMARK VINA RESULT:     -11.7      2.478      9.533
REMARK  4 active torsions:
REMARK  status: ('A' for Active; 'I' for Inactive)
REMARK    1  A    between atoms: C_2  and  C_3 
REMARK    2  A    between atoms: N_16  and  C_17 
REMARK    3  A    between atoms: C_17  and  C_18 
REMARK       I    between atoms: C_18  and  N_19 
REMARK    4  A    between atoms: N_19  and  C_20 
ROOT
HETATM    1  C   UNL     1       9.296  29.184  56.656  1.00  0.00     0.054 C 
HETATM    2  C   UNL     1       7.834  29.349  57.074  1.00  0.00     0.140 A 
HETATM    3  N   UNL     1       7.047  29.709  55.909  1.00  0.00    -0.321 N 
HETATM    4  C   UNL     1       6.068  28.789  55.624  1.00  0.00     0.326 A 
HETATM    5  O   UNL     1       5.221  28.945  54.763  1.00  0.00    -0.247 OA
HETATM    6  N   UNL     1       6.193  27.743  56.482  1.00  0.00    -0.259 N 
HETATM    7  C   UNL     1       7.233  27.948  57.346  1.00  0.00     0.261 A 
HETATM    8  O   UNL     1       7.620  27.127  58.171  1.00  0.00    -0.270 OA
HETATM    9  H   UNL     1       7.055  30.615  55.459  1.00  0.00     0.165 HD
ENDROOT
BRANCH   6  10
HETATM   10  C   UNL     1       5.327  26.585  56.486  1.00  0.00     0.240 C 
BRANCH  10  11
HETATM   11  C   UNL     1       5.685  25.648  55.335  1.00  0.00     0.240 C 
HETATM   12  N   UNL     1       6.722  24.773  55.637  1.00  0.00    -0.325 N 
HETATM   13  H   UNL     1       7.047  24.785  56.599  1.00  0.00     0.169 HD
HETATM   14  O   UNL     1       5.024  25.653  54.301  1.00  0.00    -0.271 OA
BRANCH  12  15
HETATM   15  C   UNL     1       7.286  23.792  54.776  1.00  0.00     0.047 A 
HETATM   16  C   UNL     1       7.867  22.606  55.328  1.00  0.00     0.019 A 
HETATM   17  C   UNL     1       8.430  21.642  54.456  1.00  0.00     0.069 A 
HETATM   18  C   UNL     1       7.907  22.281  56.706  1.00  0.00     0.017 A 
HETATM   19  N   UNL     1       8.980  20.490  54.878  1.00  0.00    -0.260 NA
HETATM   20  C   UNL     1       8.420  21.872  53.091  1.00  0.00     0.032 A 
HETATM   21  C   UNL     1       8.986  20.229  56.199  1.00  0.00     0.117 A 
HETATM   22  C   UNL     1       8.467  21.084  57.145  1.00  0.00     0.020 A 
HETATM   23  C   UNL     1       7.866  23.026  52.550  1.00  0.00     0.005 A 
HETATM   24  C   UNL     1       7.302  23.980  53.388  1.00  0.00     0.030 A 
ENDBRANCH  12  15
ENDBRANCH  10  11
ENDBRANCH   6  10
BRANCH   2  25
HETATM   25  C   UNL     1       7.563  30.324  58.221  1.00  0.00    -0.020 A 
HETATM   26  C   UNL     1       8.320  30.255  59.412  1.00  0.00     0.022 A 
HETATM   27  C   UNL     1       8.078  31.106  60.507  1.00  0.00    -0.025 A 
HETATM   28  C   UNL     1       7.057  32.071  60.416  1.00  0.00    -0.026 A 
HETATM   29  C   UNL     1       8.828  31.008  61.692  1.00  0.00     0.012 A 
HETATM   30  C   UNL     1       6.311  32.161  59.232  1.00  0.00     0.013 A 
HETATM   31  C   UNL     1       6.807  32.916  61.512  1.00  0.00     0.012 A 
HETATM   32  C   UNL     1       6.560  31.303  58.154  1.00  0.00     0.011 A 
HETATM   33  C   UNL     1       7.559  32.806  62.683  1.00  0.00     0.001 A 
HETATM   34  C   UNL     1       8.569  31.852  62.772  1.00  0.00     0.001 A 
ENDBRANCH   2  25
TORSDOF 4
ENDMDL
MODEL 4
REMARK VINA RESULT:     -11.5      1.455      2.916
REMARK  4 active torsions:
REMARK  status: ('A' for Active; 'I' for Inactive)
REMARK    1  A    between atoms: C_2  and  C_3 
REMARK    2  A    between atoms: N_16  and  C_17 
REMARK    3  A    between atoms: C_17  and  C_18 
REMARK       I    between atoms: C_18  and  N_19 
REMARK    4  A    between atoms: N_19  and  C_20 
ROOT
HETATM    1  C   UNL     1       5.356  25.722  57.025  1.00  0.00     0.054 C 
HETATM    2  C   UNL     1       6.591  25.907  56.141  1.00  0.00     0.140 A 
HETATM    3  N   UNL     1       6.432  27.115  55.354  1.00  0.00    -0.321 N 
HETATM    4  C   UNL     1       7.411  28.046  55.603  1.00  0.00     0.326 A 
HETATM    5  O   UNL     1       7.539  29.081  54.975  1.00  0.00    -0.247 OA
HETATM    6  N   UNL     1       8.201  27.584  56.608  1.00  0.00    -0.259 N 
HETATM    7  C   UNL     1       7.777  26.355  57.031  1.00  0.00     0.261 A 
HETATM    8  O   UNL     1       8.258  25.745  57.980  1.00  0.00    -0.270 OA
HETATM    9  H   UNL     1       5.810  27.216  54.562  1.00  0.00     0.165 HD
ENDROOT
BRANCH   6  10
HETATM   10  C   UNL     1       9.345  28.294  57.136  1.00  0.00     0.240 C 
BRANCH  10  11
HETATM   11  C   UNL     1       8.935  29.687  57.607  1.00  0.00     0.240 C 
HETATM   12  N   UNL     1       7.761  29.696  58.351  1.00  0.00    -0.325 N 
HETATM   13  H   UNL     1       7.374  28.786  58.580  1.00  0.00     0.169 HD
HETATM   14  O   UNL     1       9.662  30.654  57.395  1.00  0.00    -0.271 OA
BRANCH  12  15
HETATM   15  C   UNL     1       7.121  30.832  58.918  1.00  0.00     0.047 A 
HETATM   16  C   UNL     1       7.504  31.293  60.218  1.00  0.00     0.019 A 
HETATM   17  C   UNL     1       6.851  32.423  60.771  1.00  0.00     0.069 A 
HETATM   18  C   UNL     1       8.528  30.727  61.017  1.00  0.00     0.017 A 
HETATM   19  N   UNL     1       7.155  32.942  61.973  1.00  0.00    -0.260 NA
HETATM   20  C   UNL     1       5.848  33.049  60.051  1.00  0.00     0.032 A 
HETATM   21  C   UNL     1       8.140  32.367  62.689  1.00  0.00     0.117 A 
HETATM   22  C   UNL     1       8.850  31.268  62.259  1.00  0.00     0.020 A 
HETATM   23  C   UNL     1       5.465  32.599  58.792  1.00  0.00     0.005 A 
HETATM   24  C   UNL     1       6.099  31.497  58.230  1.00  0.00     0.030 A 
ENDBRANCH  12  15
ENDBRANCH  10  11
ENDBRANCH   6  10
BRANCH   2  25
HETATM   25  C   UNL     1       6.962  24.729  55.239  1.00  0.00    -0.020 A 
HETATM   26  C   UNL     1       7.310  23.480  55.801  1.00  0.00     0.022 A 
HETATM   27  C   UNL     1       7.695  22.381  55.011  1.00  0.00    -0.025 A 
HETATM   28  C   UNL     1       7.726  22.518  53.609  1.00  0.00    -0.026 A 
HETATM   29  C   UNL     1       8.058  21.152  55.589  1.00  0.00     0.012 A 
HETATM   30  C   UNL     1       7.365  23.747  53.040  1.00  0.00     0.013 A 
HETATM   31  C   UNL     1       8.120  21.425  52.818  1.00  0.00     0.012 A 
HETATM   32  C   UNL     1       6.989  24.833  53.840  1.00  0.00     0.011 A 
HETATM   33  C   UNL     1       8.479  20.211  53.407  1.00  0.00     0.001 A 
HETATM   34  C   UNL     1       8.448  20.076  54.791  1.00  0.00     0.001 A 
ENDBRANCH   2  25
TORSDOF 4
ENDMDL
MODEL 5
REMARK VINA RESULT:     -11.4      5.575      9.441
REMARK  4 active torsions:
REMARK  status: ('A' for Active; 'I' for Inactive)
REMARK    1  A    between atoms: C_2  and  C_3 
REMARK    2  A    between atoms: N_16  and  C_17 
REMARK    3  A    between atoms: C_17  and  C_18 
REMARK       I    between atoms: C_18  and  N_19 
REMARK    4  A    between atoms: N_19  and  C_20 
ROOT
HETATM    1  C   UNL     1       6.743  27.034  56.012  1.00  0.00     0.054 C 
HETATM    2  C   UNL     1       6.295  26.605  54.613  1.00  0.00     0.140 A 
HETATM    3  N   UNL     1       4.847  26.669  54.541  1.00  0.00    -0.321 N 
HETATM    4  C   UNL     1       4.400  27.548  53.584  1.00  0.00     0.326 A 
HETATM    5  O   UNL     1       3.230  27.676  53.274  1.00  0.00    -0.247 OA
HETATM    6  N   UNL     1       5.474  28.183  53.045  1.00  0.00    -0.259 N 
HETATM    7  C   UNL     1       6.635  27.739  53.613  1.00  0.00     0.261 A 
HETATM    8  O   UNL     1       7.746  28.200  53.372  1.00  0.00    -0.270 OA
HETATM    9  H   UNL     1       4.213  26.014  54.979  1.00  0.00     0.165 HD
ENDROOT
BRANCH   6  10
HETATM   10  C   UNL     1       5.391  29.177  51.998  1.00  0.00     0.240 C 
BRANCH  10  11
HETATM   11  C   UNL     1       5.205  28.506  50.640  1.00  0.00     0.240 C 
HETATM   12  N   UNL     1       3.932  27.983  50.451  1.00  0.00    -0.325 N 
HETATM   13  H   UNL     1       3.253  28.192  51.177  1.00  0.00     0.169 HD
HETATM   14  O   UNL     1       6.103  28.537  49.802  1.00  0.00    -0.271 OA
BRANCH  12  15
HETATM   15  C   UNL     1       3.455  27.295  49.301  1.00  0.00     0.047 A 
HETATM   16  C   UNL     1       2.429  27.879  48.493  1.00  0.00     0.019 A 
HETATM   17  C   UNL     1       1.961  27.176  47.354  1.00  0.00     0.069 A 
HETATM   18  C   UNL     1       1.838  29.147  48.713  1.00  0.00     0.017 A 
HETATM   19  N   UNL     1       1.017  27.651  46.524  1.00  0.00    -0.260 NA
HETATM   20  C   UNL     1       2.496  25.935  47.055  1.00  0.00     0.032 A 
HETATM   21  C   UNL     1       0.492  28.866  46.778  1.00  0.00     0.117 A 
HETATM   22  C   UNL     1       0.865  29.645  47.850  1.00  0.00     0.020 A 
HETATM   23  C   UNL     1       3.486  25.358  47.842  1.00  0.00     0.005 A 
HETATM   24  C   UNL     1       3.963  26.035  48.958  1.00  0.00     0.030 A 
ENDBRANCH  12  15
ENDBRANCH  10  11
ENDBRANCH   6  10
BRANCH   2  25
HETATM   25  C   UNL     1       6.793  25.243  54.129  1.00  0.00    -0.020 A 
HETATM   26  C   UNL     1       6.950  24.174  55.039  1.00  0.00     0.022 A 
HETATM   27  C   UNL     1       7.442  22.916  54.645  1.00  0.00    -0.025 A 
HETATM   28  C   UNL     1       7.780  22.702  53.294  1.00  0.00    -0.026 A 
HETATM   29  C   UNL     1       7.611  21.871  55.569  1.00  0.00     0.012 A 
HETATM   30  C   UNL     1       7.610  23.750  52.378  1.00  0.00     0.013 A 
HETATM   31  C   UNL     1       8.280  21.449  52.899  1.00  0.00     0.012 A 
HETATM   32  C   UNL     1       7.125  24.997  52.788  1.00  0.00     0.011 A 
HETATM   33  C   UNL     1       8.444  20.421  53.829  1.00  0.00     0.001 A 
HETATM   34  C   UNL     1       8.110  20.633  55.163  1.00  0.00     0.001 A 
ENDBRANCH   2  25
TORSDOF 4
ENDMDL
MODEL 6
REMARK VINA RESULT:     -11.2      4.515      8.041
REMARK  4 active torsions:
REMARK  status: ('A' for Active; 'I' for Inactive)
REMARK    1  A    between atoms: C_2  and  C_3 
REMARK    2  A    between atoms: N_16  and  C_17 
REMARK    3  A    between atoms: C_17  and  C_18 
REMARK       I    between atoms: C_18  and  N_19 
REMARK    4  A    between atoms: N_19  and  C_20 
ROOT
HETATM    1  C   UNL     1       8.386  26.812  57.047  1.00  0.00     0.054 C 
HETATM    2  C   UNL     1       7.308  26.587  55.983  1.00  0.00     0.140 A 
HETATM    3  N   UNL     1       6.003  26.651  56.613  1.00  0.00    -0.321 N 
HETATM    4  C   UNL     1       5.216  27.656  56.107  1.00  0.00     0.326 A 
HETATM    5  O   UNL     1       4.047  27.819  56.406  1.00  0.00    -0.247 OA
HETATM    6  N   UNL     1       5.949  28.370  55.212  1.00  0.00    -0.259 N 
HETATM    7  C   UNL     1       7.210  27.856  55.100  1.00  0.00     0.261 A 
HETATM    8  O   UNL     1       8.105  28.355  54.425  1.00  0.00    -0.270 OA
HETATM    9  H   UNL     1       5.609  25.935  57.209  1.00  0.00     0.165 HD
ENDROOT
BRANCH   6  10
HETATM   10  C   UNL     1       5.446  29.505  54.469  1.00  0.00     0.240 C 
BRANCH  10  11
HETATM   11  C   UNL     1       4.741  29.039  53.198  1.00  0.00     0.240 C 
HETATM   12  N   UNL     1       5.614  28.585  52.217  1.00  0.00    -0.325 N 
HETATM   13  H   UNL     1       6.591  28.519  52.487  1.00  0.00     0.169 HD
HETATM   14  O   UNL     1       3.514  29.007  53.144  1.00  0.00    -0.271 OA
BRANCH  12  15
HETATM   15  C   UNL     1       5.266  28.097  50.927  1.00  0.00     0.047 A 
HETATM   16  C   UNL     1       5.113  29.010  49.835  1.00  0.00     0.019 A 
HETATM   17  C   UNL     1       4.760  28.508  48.558  1.00  0.00     0.069 A 
HETATM   18  C   UNL     1       5.317  30.410  49.906  1.00  0.00     0.017 A 
HETATM   19  N   UNL     1       4.613  29.282  47.469  1.00  0.00    -0.260 NA
HETATM   20  C   UNL     1       4.555  27.148  48.395  1.00  0.00     0.032 A 
HETATM   21  C   UNL     1       4.825  30.607  47.592  1.00  0.00     0.117 A 
HETATM   22  C   UNL     1       5.175  31.213  48.778  1.00  0.00     0.020 A 
HETATM   23  C   UNL     1       4.693  26.258  49.454  1.00  0.00     0.005 A 
HETATM   24  C   UNL     1       5.046  26.731  50.712  1.00  0.00     0.030 A 
ENDBRANCH  12  15
ENDBRANCH  10  11
ENDBRANCH   6  10
BRANCH   2  25
HETATM   25  C   UNL     1       7.435  25.313  55.148  1.00  0.00    -0.020 A 
HETATM   26  C   UNL     1       7.552  24.054  55.777  1.00  0.00     0.022 A 
HETATM   27  C   UNL     1       7.710  22.860  55.048  1.00  0.00    -0.025 A 
HETATM   28  C   UNL     1       7.740  22.912  53.641  1.00  0.00    -0.026 A 
HETATM   29  C   UNL     1       7.846  21.619  55.693  1.00  0.00     0.012 A 
HETATM   30  C   UNL     1       7.606  24.154  53.005  1.00  0.00     0.013 A 
HETATM   31  C   UNL     1       7.907  21.723  52.911  1.00  0.00     0.012 A 
HETATM   32  C   UNL     1       7.455  25.333  53.745  1.00  0.00     0.011 A 
HETATM   33  C   UNL     1       8.042  20.497  53.565  1.00  0.00     0.001 A 
HETATM   34  C   UNL     1       8.012  20.446  54.956  1.00  0.00     0.001 A 
ENDBRANCH   2  25
TORSDOF 4
ENDMDL
MODEL 7
REMARK VINA RESULT:     -11.0      1.677      2.634
REMARK  4 active torsions:
REMARK  status: ('A' for Active; 'I' for Inactive)
REMARK    1  A    between atoms: C_2  and  C_3 
REMARK    2  A    between atoms: N_16  and  C_17 
REMARK    3  A    between atoms: C_17  and  C_18 
REMARK       I    between atoms: C_18  and  N_19 
REMARK    4  A    between atoms: N_19  and  C_20 
ROOT
HETATM    1  C   UNL     1       5.159  25.401  57.335  1.00  0.00     0.054 C 
HETATM    2  C   UNL     1       6.071  25.836  56.186  1.00  0.00     0.140 A 
HETATM    3  N   UNL     1       5.413  26.886  55.431  1.00  0.00    -0.321 N 
HETATM    4  C   UNL     1       6.120  28.064  55.429  1.00  0.00     0.326 A 
HETATM    5  O   UNL     1       5.812  29.038  54.766  1.00  0.00    -0.247 OA
HETATM    6  N   UNL     1       7.205  27.919  56.234  1.00  0.00    -0.259 N 
HETATM    7  C   UNL     1       7.246  26.662  56.770  1.00  0.00     0.261 A 
HETATM    8  O   UNL     1       8.071  26.286  57.595  1.00  0.00    -0.270 OA
HETATM    9  H   UNL     1       4.633  26.748  54.802  1.00  0.00     0.165 HD
ENDROOT
BRANCH   6  10
HETATM   10  C   UNL     1       8.187  28.953  56.470  1.00  0.00     0.240 C 
BRANCH  10  11
HETATM   11  C   UNL     1       8.041  29.515  57.881  1.00  0.00     0.240 C 
HETATM   12  N   UNL     1       7.485  30.788  57.914  1.00  0.00    -0.325 N 
HETATM   13  H   UNL     1       7.151  31.151  57.026  1.00  0.00     0.169 HD
HETATM   14  O   UNL     1       8.319  28.825  58.858  1.00  0.00    -0.271 OA
BRANCH  12  15
HETATM   15  C   UNL     1       7.230  31.577  59.070  1.00  0.00     0.047 A 
HETATM   16  C   UNL     1       5.896  32.004  59.364  1.00  0.00     0.019 A 
HETATM   17  C   UNL     1       5.661  32.794  60.516  1.00  0.00     0.069 A 
HETATM   18  C   UNL     1       4.747  31.675  58.604  1.00  0.00     0.017 A 
HETATM   19  N   UNL     1       4.443  33.225  60.886  1.00  0.00    -0.260 NA
HETATM   20  C   UNL     1       6.727  33.150  61.325  1.00  0.00     0.032 A 
HETATM   21  C   UNL     1       3.384  32.879  60.129  1.00  0.00     0.117 A 
HETATM   22  C   UNL     1       3.483  32.113  58.990  1.00  0.00     0.020 A 
HETATM   23  C   UNL     1       8.026  32.746  61.040  1.00  0.00     0.005 A 
HETATM   24  C   UNL     1       8.275  31.964  59.918  1.00  0.00     0.030 A 
ENDBRANCH  12  15
ENDBRANCH  10  11
ENDBRANCH   6  10
BRANCH   2  25
HETATM   25  C   UNL     1       6.556  24.730  55.248  1.00  0.00    -0.020 A 
HETATM   26  C   UNL     1       7.050  23.514  55.772  1.00  0.00     0.022 A 
HETATM   27  C   UNL     1       7.542  22.485  54.947  1.00  0.00    -0.025 A 
HETATM   28  C   UNL     1       7.534  22.660  53.550  1.00  0.00    -0.026 A 
HETATM   29  C   UNL     1       8.048  21.290  55.488  1.00  0.00     0.012 A 
HETATM   30  C   UNL     1       7.030  23.855  53.018  1.00  0.00     0.013 A 
HETATM   31  C   UNL     1       8.034  21.637  52.724  1.00  0.00     0.012 A 
HETATM   32  C   UNL     1       6.548  24.871  53.852  1.00  0.00     0.011 A 
HETATM   33  C   UNL     1       8.535  20.457  53.276  1.00  0.00     0.001 A 
HETATM   34  C   UNL     1       8.542  20.284  54.657  1.00  0.00     0.001 A 
ENDBRANCH   2  25
TORSDOF 4
ENDMDL
MODEL 8
REMARK VINA RESULT:     -10.8      1.473      2.499
REMARK  4 active torsions:
REMARK  status: ('A' for Active; 'I' for Inactive)
REMARK    1  A    between atoms: C_2  and  C_3 
REMARK    2  A    between atoms: N_16  and  C_17 
REMARK    3  A    between atoms: C_17  and  C_18 
REMARK       I    between atoms: C_18  and  N_19 
REMARK    4  A    between atoms: N_19  and  C_20 
ROOT
HETATM    1  C   UNL     1       6.147  28.558  54.633  1.00  0.00     0.054 C 
HETATM    2  C   UNL     1       7.226  27.995  55.560  1.00  0.00     0.140 A 
HETATM    3  N   UNL     1       8.468  28.708  55.326  1.00  0.00    -0.321 N 
HETATM    4  C   UNL     1       8.925  29.363  56.444  1.00  0.00     0.326 A 
HETATM    5  O   UNL     1      10.002  29.926  56.508  1.00  0.00    -0.247 OA
HETATM    6  N   UNL     1       8.003  29.223  57.434  1.00  0.00    -0.259 N 
HETATM    7  C   UNL     1       6.941  28.477  57.005  1.00  0.00     0.261 A 
HETATM    8  O   UNL     1       5.931  28.265  57.666  1.00  0.00    -0.270 OA
HETATM    9  H   UNL     1       9.060  28.594  54.514  1.00  0.00     0.165 HD
ENDROOT
BRANCH   6  10
HETATM   10  C   UNL     1       8.147  29.774  58.763  1.00  0.00     0.240 C 
BRANCH  10  11
HETATM   11  C   UNL     1       7.629  31.209  58.803  1.00  0.00     0.240 C 
HETATM   12  N   UNL     1       6.245  31.296  58.890  1.00  0.00    -0.325 N 
HETATM   13  H   UNL     1       5.752  30.417  59.019  1.00  0.00     0.169 HD
HETATM   14  O   UNL     1       8.415  32.153  58.844  1.00  0.00    -0.271 OA
BRANCH  12  15
HETATM   15  C   UNL     1       5.467  32.485  58.936  1.00  0.00     0.047 A 
HETATM   16  C   UNL     1       5.242  33.143  60.187  1.00  0.00     0.019 A 
HETATM   17  C   UNL     1       4.459  34.324  60.215  1.00  0.00     0.069 A 
HETATM   18  C   UNL     1       5.769  32.730  61.435  1.00  0.00     0.017 A 
HETATM   19  N   UNL     1       4.209  35.023  61.336  1.00  0.00    -0.260 NA
HETATM   20  C   UNL     1       3.917  34.809  59.038  1.00  0.00     0.032 A 
HETATM   21  C   UNL     1       4.740  34.587  62.495  1.00  0.00     0.117 A 
HETATM   22  C   UNL     1       5.519  33.457  62.596  1.00  0.00     0.020 A 
HETATM   23  C   UNL     1       4.124  34.168  57.821  1.00  0.00     0.005 A 
HETATM   24  C   UNL     1       4.895  33.013  57.772  1.00  0.00     0.030 A 
ENDBRANCH  12  15
ENDBRANCH  10  11
ENDBRANCH   6  10
BRANCH   2  25
HETATM   25  C   UNL     1       7.458  26.485  55.492  1.00  0.00    -0.020 A 
HETATM   26  C   UNL     1       7.457  25.817  54.248  1.00  0.00     0.022 A 
HETATM   27  C   UNL     1       7.628  24.423  54.142  1.00  0.00    -0.025 A 
HETATM   28  C   UNL     1       7.819  23.663  55.312  1.00  0.00    -0.026 A 
HETATM   29  C   UNL     1       7.603  23.773  52.897  1.00  0.00     0.012 A 
HETATM   30  C   UNL     1       7.840  24.319  56.552  1.00  0.00     0.013 A 
HETATM   31  C   UNL     1       7.980  22.270  55.211  1.00  0.00     0.012 A 
HETATM   32  C   UNL     1       7.664  25.705  56.640  1.00  0.00     0.011 A 
HETATM   33  C   UNL     1       7.952  21.638  53.967  1.00  0.00     0.001 A 
HETATM   34  C   UNL     1       7.763  22.390  52.811  1.00  0.00     0.001 A 
ENDBRANCH   2  25
TORSDOF 4
ENDMDL
MODEL 9
REMARK VINA RESULT:     -10.8      2.278      3.372
REMARK  4 active torsions:
REMARK  status: ('A' for Active; 'I' for Inactive)
REMARK    1  A    between atoms: C_2  and  C_3 
REMARK    2  A    between atoms: N_16  and  C_17 
REMARK    3  A    between atoms: C_17  and  C_18 
REMARK       I    between atoms: C_18  and  N_19 
REMARK    4  A    between atoms: N_19  and  C_20 
ROOT
HETATM    1  C   UNL     1       5.694  28.024  53.435  1.00  0.00     0.054 C 
HETATM    2  C   UNL     1       6.863  27.395  54.197  1.00  0.00     0.140 A 
HETATM    3  N   UNL     1       8.029  28.248  54.060  1.00  0.00    -0.321 N 
HETATM    4  C   UNL     1       8.489  28.719  55.265  1.00  0.00     0.326 A 
HETATM    5  O   UNL     1       9.518  29.355  55.397  1.00  0.00    -0.247 OA
HETATM    6  N   UNL     1       7.635  28.313  56.243  1.00  0.00    -0.259 N 
HETATM    7  C   UNL     1       6.616  27.569  55.717  1.00  0.00     0.261 A 
HETATM    8  O   UNL     1       5.663  27.146  56.362  1.00  0.00    -0.270 OA
HETATM    9  H   UNL     1       8.585  28.343  53.220  1.00  0.00     0.165 HD
ENDROOT
BRANCH   6  10
HETATM   10  C   UNL     1       7.803  28.615  57.647  1.00  0.00     0.240 C 
BRANCH  10  11
HETATM   11  C   UNL     1       7.305  30.025  57.951  1.00  0.00     0.240 C 
HETATM   12  N   UNL     1       5.919  30.126  57.985  1.00  0.00    -0.325 N 
HETATM   13  H   UNL     1       5.408  29.252  57.907  1.00  0.00     0.169 HD
HETATM   14  O   UNL     1       8.100  30.920  58.223  1.00  0.00    -0.271 OA
BRANCH  12  15
HETATM   15  C   UNL     1       5.157  31.301  58.232  1.00  0.00     0.047 A 
HETATM   16  C   UNL     1       4.233  31.774  57.247  1.00  0.00     0.019 A 
HETATM   17  C   UNL     1       3.486  32.949  57.508  1.00  0.00     0.069 A 
HETATM   18  C   UNL     1       3.963  31.141  56.009  1.00  0.00     0.017 A 
HETATM   19  N   UNL     1       2.581  33.459  56.655  1.00  0.00    -0.260 NA
HETATM   20  C   UNL     1       3.675  33.624  58.702  1.00  0.00     0.032 A 
HETATM   21  C   UNL     1       2.360  32.813  55.493  1.00  0.00     0.117 A 
HETATM   22  C   UNL     1       3.020  31.662  55.127  1.00  0.00     0.020 A 
HETATM   23  C   UNL     1       4.578  33.175  59.658  1.00  0.00     0.005 A 
HETATM   24  C   UNL     1       5.314  32.020  59.424  1.00  0.00     0.030 A 
ENDBRANCH  12  15
ENDBRANCH  10  11
ENDBRANCH   6  10
BRANCH   2  25
HETATM   25  C   UNL     1       7.213  25.952  53.832  1.00  0.00    -0.020 A 
HETATM   26  C   UNL     1       7.228  24.947  54.825  1.00  0.00     0.022 A 
HETATM   27  C   UNL     1       7.582  23.615  54.541  1.00  0.00    -0.025 A 
HETATM   28  C   UNL     1       7.922  23.259  53.222  1.00  0.00    -0.026 A 
HETATM   29  C   UNL     1       7.611  22.633  55.547  1.00  0.00     0.012 A 
HETATM   30  C   UNL     1       7.893  24.245  52.225  1.00  0.00     0.013 A 
HETATM   31  C   UNL     1       8.285  21.932  52.938  1.00  0.00     0.012 A 
HETATM   32  C   UNL     1       7.544  25.567  52.524  1.00  0.00     0.011 A 
HETATM   33  C   UNL     1       8.312  20.968  53.947  1.00  0.00     0.001 A 
HETATM   34  C   UNL     1       7.975  21.319  55.251  1.00  0.00     0.001 A 
ENDBRANCH   2  25
TORSDOF 4
ENDMDL
MODEL 10
REMARK VINA RESULT:     -10.5      3.805      8.414
REMARK  4 active torsions:
REMARK  status: ('A' for Active; 'I' for Inactive)
REMARK    1  A    between atoms: C_2  and  C_3 
REMARK    2  A    between atoms: N_16  and  C_17 
REMARK    3  A    between atoms: C_17  and  C_18 
REMARK       I    between atoms: C_18  and  N_19 
REMARK    4  A    between atoms: N_19  and  C_20 
ROOT
HETATM    1  C   UNL     1       4.471  30.601  56.191  1.00  0.00     0.054 C 
HETATM    2  C   UNL     1       5.215  29.488  55.449  1.00  0.00     0.140 A 
HETATM    3  N   UNL     1       6.635  29.782  55.458  1.00  0.00    -0.321 N 
HETATM    4  C   UNL     1       7.376  28.812  56.090  1.00  0.00     0.326 A 
HETATM    5  O   UNL     1       8.593  28.796  56.114  1.00  0.00    -0.247 OA
HETATM    6  N   UNL     1       6.524  27.892  56.615  1.00  0.00    -0.259 N 
HETATM    7  C   UNL     1       5.226  28.220  56.339  1.00  0.00     0.261 A 
HETATM    8  O   UNL     1       4.252  27.608  56.762  1.00  0.00    -0.270 OA
HETATM    9  H   UNL     1       7.085  30.498  54.902  1.00  0.00     0.165 HD
ENDROOT
BRANCH   6  10
HETATM   10  C   UNL     1       6.946  26.718  57.347  1.00  0.00     0.240 C 
BRANCH  10  11
HETATM   11  C   UNL     1       6.705  25.459  56.518  1.00  0.00     0.240 C 
HETATM   12  N   UNL     1       7.752  25.157  55.655  1.00  0.00    -0.325 N 
HETATM   13  H   UNL     1       8.583  25.735  55.745  1.00  0.00     0.169 HD
HETATM   14  O   UNL     1       5.706  24.771  56.707  1.00  0.00    -0.271 OA
BRANCH  12  15
HETATM   15  C   UNL     1       7.823  24.061  54.752  1.00  0.00     0.047 A 
HETATM   16  C   UNL     1       8.108  22.747  55.245  1.00  0.00     0.019 A 
HETATM   17  C   UNL     1       8.181  21.667  54.330  1.00  0.00     0.069 A 
HETATM   18  C   UNL     1       8.301  22.409  56.607  1.00  0.00     0.017 A 
HETATM   19  N   UNL     1       8.422  20.397  54.699  1.00  0.00    -0.260 NA
HETATM   20  C   UNL     1       7.989  21.905  52.980  1.00  0.00     0.032 A 
HETATM   21  C   UNL     1       8.593  20.131  56.008  1.00  0.00     0.117 A 
HETATM   22  C   UNL     1       8.543  21.093  56.992  1.00  0.00     0.020 A 
HETATM   23  C   UNL     1       7.722  23.180  52.495  1.00  0.00     0.005 A 
HETATM   24  C   UNL     1       7.639  24.251  53.377  1.00  0.00     0.030 A 
ENDBRANCH  12  15
ENDBRANCH  10  11
ENDBRANCH   6  10
BRANCH   2  25
HETATM   25  C   UNL     1       4.742  29.189  54.026  1.00  0.00    -0.020 A 
HETATM   26  C   UNL     1       5.201  28.038  53.347  1.00  0.00     0.022 A 
HETATM   27  C   UNL     1       4.823  27.744  52.024  1.00  0.00    -0.025 A 
HETATM   28  C   UNL     1       3.946  28.616  51.350  1.00  0.00    -0.026 A 
HETATM   29  C   UNL     1       5.307  26.605  51.358  1.00  0.00     0.012 A 
HETATM   30  C   UNL     1       3.469  29.751  52.020  1.00  0.00     0.013 A 
HETATM   31  C   UNL     1       3.574  28.330  50.025  1.00  0.00     0.012 A 
HETATM   32  C   UNL     1       3.859  30.032  53.335  1.00  0.00     0.011 A 
HETATM   33  C   UNL     1       4.064  27.195  49.375  1.00  0.00     0.001 A 
HETATM   34  C   UNL     1       4.931  26.334  50.042  1.00  0.00     0.001 A 
ENDBRANCH   2  25
TORSDOF 4
ENDMDL
