MODEL 1
REMARK VINA RESULT:      -8.9      0.000      0.000
REMARK  7 active torsions:
REMARK  status: ('A' for Active; 'I' for Inactive)
REMARK    1  A    between atoms: C_2  and  C_3 
REMARK    2  A    between atoms: C_3  and  N_4 
REMARK    3  A    between atoms: C_7  and  C_8 
REMARK    4  A    between atoms: C_8  and  N_9 
REMARK       I    between atoms: N_9  and  C_10 
REMARK       I    between atoms: C_10  and  N_11 
REMARK    5  A    between atoms: N_11  and  C_12 
REMARK    6  A    between atoms: C_15  and  N_16 
REMARK       I    between atoms: N_16  and  C_17 
REMARK    7  A    between atoms: C_17  and  C_18 
ROOT
HETATM    1  N   UNL     1       6.703  27.015  55.360  1.00  0.00    -0.342 N 
HETATM    2  C   UNL     1       7.537  27.855  54.684  1.00  0.00     0.320 C 
HETATM    3  N   UNL     1       7.726  29.099  55.209  1.00  0.00    -0.309 N 
HETATM    4  O   UNL     1       8.031  27.551  53.601  1.00  0.00    -0.247 OA
HETATM    5  H   UNL     1       6.071  27.453  56.016  1.00  0.00     0.164 HD
HETATM    6  H   UNL     1       8.147  29.732  54.538  1.00  0.00     0.170 HD
ENDROOT
BRANCH   3   7
HETATM    7  C   UNL     1       7.406  29.637  56.470  1.00  0.00     0.036 A 
HETATM    8  C   UNL     1       6.261  30.393  56.721  1.00  0.00     0.032 A 
HETATM    9  C   UNL     1       6.061  30.995  57.970  1.00  0.00     0.032 A 
HETATM   10  C   UNL     1       6.990  30.826  58.994  1.00  0.00     0.035 A 
HETATM   11  C   UNL     1       8.081  29.978  58.777  1.00  0.00     0.032 A 
HETATM   12  C   UNL     1       8.284  29.380  57.526  1.00  0.00     0.032 A 
BRANCH  10  13
HETATM   13  N   UNL     1       6.916  31.483  60.235  1.00  0.00    -0.321 N 
HETATM   14  C   UNL     1       7.823  32.375  60.783  1.00  0.00     0.279 C 
HETATM   15  O   UNL     1       8.819  32.813  60.215  1.00  0.00    -0.265 OA
HETATM   16  H   UNL     1       6.162  31.216  60.861  1.00  0.00     0.169 HD
BRANCH  14  17
HETATM   17  C   UNL     1       7.505  32.723  62.157  1.00  0.00     0.142 A 
HETATM   18  O   UNL     1       6.252  33.196  62.459  1.00  0.00    -0.317 OA
HETATM   19  C   UNL     1       6.217  33.406  63.800  1.00  0.00     0.143 A 
HETATM   20  C   UNL     1       7.423  33.078  64.372  1.00  0.00     0.027 A 
HETATM   21  C   UNL     1       8.255  32.641  63.314  1.00  0.00     0.045 A 
ENDBRANCH  14  17
ENDBRANCH  10  13
ENDBRANCH   3   7
BRANCH   1  22
HETATM   22  C   UNL     1       6.403  25.676  54.908  1.00  0.00     0.130 C 
BRANCH  22  23
HETATM   23  C   UNL     1       7.463  24.677  55.356  1.00  0.00     0.031 C 
HETATM   24  C   UNL     1       7.091  23.251  54.989  1.00  0.00     0.241 C 
HETATM   25  N   UNL     1       7.990  22.396  55.869  1.00  0.00    -0.071 N 
HETATM   26  H   UNL     1       7.404  21.647  56.264  1.00  0.00     0.279 HD
HETATM   27  C   UNL     1       8.451  23.288  57.018  1.00  0.00     0.235 C 
HETATM   28  C   UNL     1       7.652  24.568  56.862  1.00  0.00     0.035 C 
BRANCH  25  29
HETATM   29  C   UNL     1       9.116  21.741  55.105  1.00  0.00     0.234 C 
BRANCH  29  30
HETATM   30  C   UNL     1       8.845  21.794  53.605  1.00  0.00     0.023 C 
HETATM   31  C   UNL     1       8.600  20.400  53.051  1.00  0.00     0.007 C 
ENDBRANCH  29  30
ENDBRANCH  25  29
ENDBRANCH  22  23
ENDBRANCH   1  22
TORSDOF 7
ENDMDL
MODEL 2
REMARK VINA RESULT:      -8.8      2.222      2.935
REMARK  7 active torsions:
REMARK  status: ('A' for Active; 'I' for Inactive)
REMARK    1  A    between atoms: C_2  and  C_3 
REMARK    2  A    between atoms: C_3  and  N_4 
REMARK    3  A    between atoms: C_7  and  C_8 
REMARK    4  A    between atoms: C_8  and  N_9 
REMARK       I    between atoms: N_9  and  C_10 
REMARK       I    between atoms: C_10  and  N_11 
REMARK    5  A    between atoms: N_11  and  C_12 
REMARK    6  A    between atoms: C_15  and  N_16 
REMARK       I    between atoms: N_16  and  C_17 
REMARK    7  A    between atoms: C_17  and  C_18 
ROOT
HETATM    1  N   UNL     1       4.732  26.420  53.514  1.00  0.00    -0.342 N 
HETATM    2  C   UNL     1       4.590  27.603  52.851  1.00  0.00     0.320 C 
HETATM    3  N   UNL     1       4.704  28.746  53.587  1.00  0.00    -0.309 N 
HETATM    4  O   UNL     1       4.280  27.652  51.663  1.00  0.00    -0.247 OA
HETATM    5  H   UNL     1       4.620  26.459  54.517  1.00  0.00     0.164 HD
HETATM    6  H   UNL     1       4.347  29.553  53.088  1.00  0.00     0.170 HD
ENDROOT
BRANCH   3   7
HETATM    7  C   UNL     1       5.182  28.970  54.892  1.00  0.00     0.036 A 
HETATM    8  C   UNL     1       4.360  29.283  55.974  1.00  0.00     0.032 A 
HETATM    9  C   UNL     1       4.911  29.606  57.221  1.00  0.00     0.032 A 
HETATM   10  C   UNL     1       6.291  29.594  57.409  1.00  0.00     0.035 A 
HETATM   11  C   UNL     1       7.108  29.173  56.356  1.00  0.00     0.032 A 
HETATM   12  C   UNL     1       6.558  28.854  55.108  1.00  0.00     0.032 A 
BRANCH  10  13
HETATM   13  N   UNL     1       6.923  30.010  58.595  1.00  0.00    -0.321 N 
HETATM   14  C   UNL     1       7.161  31.305  59.025  1.00  0.00     0.279 C 
HETATM   15  O   UNL     1       6.766  32.322  58.463  1.00  0.00    -0.265 OA
HETATM   16  H   UNL     1       7.345  29.292  59.176  1.00  0.00     0.169 HD
BRANCH  14  17
HETATM   17  C   UNL     1       7.990  31.355  60.216  1.00  0.00     0.142 A 
HETATM   18  O   UNL     1       8.712  30.247  60.582  1.00  0.00    -0.317 OA
HETATM   19  C   UNL     1       9.414  30.577  61.697  1.00  0.00     0.143 A 
HETATM   20  C   UNL     1       9.159  31.878  62.059  1.00  0.00     0.027 A 
HETATM   21  C   UNL     1       8.239  32.380  61.109  1.00  0.00     0.045 A 
ENDBRANCH  14  17
ENDBRANCH  10  13
ENDBRANCH   3   7
BRANCH   1  22
HETATM   22  C   UNL     1       4.621  25.137  52.860  1.00  0.00     0.130 C 
BRANCH  22  23
HETATM   23  C   UNL     1       5.908  24.330  52.972  1.00  0.00     0.031 C 
HETATM   24  C   UNL     1       6.466  24.343  54.384  1.00  0.00     0.241 C 
HETATM   25  N   UNL     1       7.911  23.897  54.216  1.00  0.00    -0.071 N 
HETATM   26  H   UNL     1       8.491  24.526  54.789  1.00  0.00     0.279 HD
HETATM   27  C   UNL     1       8.270  24.129  52.752  1.00  0.00     0.235 C 
HETATM   28  C   UNL     1       7.083  24.874  52.172  1.00  0.00     0.035 C 
BRANCH  25  29
HETATM   29  C   UNL     1       8.154  22.486  54.697  1.00  0.00     0.234 C 
BRANCH  29  30
HETATM   30  C   UNL     1       8.873  21.673  53.626  1.00  0.00     0.023 C 
HETATM   31  C   UNL     1       7.959  20.596  53.061  1.00  0.00     0.007 C 
ENDBRANCH  29  30
ENDBRANCH  25  29
ENDBRANCH  22  23
ENDBRANCH   1  22
TORSDOF 7
ENDMDL
MODEL 3
REMARK VINA RESULT:      -8.5      2.770      4.520
REMARK  7 active torsions:
REMARK  status: ('A' for Active; 'I' for Inactive)
REMARK    1  A    between atoms: C_2  and  C_3 
REMARK    2  A    between atoms: C_3  and  N_4 
REMARK    3  A    between atoms: C_7  and  C_8 
REMARK    4  A    between atoms: C_8  and  N_9 
REMARK       I    between atoms: N_9  and  C_10 
REMARK       I    between atoms: C_10  and  N_11 
REMARK    5  A    between atoms: N_11  and  C_12 
REMARK    6  A    between atoms: C_15  and  N_16 
REMARK       I    between atoms: N_16  and  C_17 
REMARK    7  A    between atoms: C_17  and  C_18 
ROOT
HETATM    1  N   UNL     1       9.048  29.658  58.063  1.00  0.00    -0.342 N 
HETATM    2  C   UNL     1      10.046  30.585  58.030  1.00  0.00     0.320 C 
HETATM    3  N   UNL     1       9.904  31.680  58.831  1.00  0.00    -0.309 N 
HETATM    4  O   UNL     1      10.991  30.499  57.250  1.00  0.00    -0.247 OA
HETATM    5  H   UNL     1       8.163  29.972  58.438  1.00  0.00     0.164 HD
HETATM    6  H   UNL     1      10.544  32.423  58.572  1.00  0.00     0.170 HD
ENDROOT
BRANCH   3   7
HETATM    7  C   UNL     1       9.019  31.950  59.892  1.00  0.00     0.036 A 
HETATM    8  C   UNL     1       7.674  32.274  59.715  1.00  0.00     0.032 A 
HETATM    9  C   UNL     1       6.877  32.643  60.806  1.00  0.00     0.032 A 
HETATM   10  C   UNL     1       7.408  32.667  62.094  1.00  0.00     0.035 A 
HETATM   11  C   UNL     1       8.725  32.237  62.285  1.00  0.00     0.032 A 
HETATM   12  C   UNL     1       9.523  31.872  61.193  1.00  0.00     0.032 A 
BRANCH  10  13
HETATM   13  N   UNL     1       6.706  33.129  63.221  1.00  0.00    -0.321 N 
HETATM   14  C   UNL     1       5.546  32.612  63.774  1.00  0.00     0.279 C 
HETATM   15  O   UNL     1       4.983  31.584  63.408  1.00  0.00    -0.265 OA
HETATM   16  H   UNL     1       7.017  34.000  63.641  1.00  0.00     0.169 HD
BRANCH  14  17
HETATM   17  C   UNL     1       5.010  33.448  64.834  1.00  0.00     0.142 A 
HETATM   18  O   UNL     1       3.688  33.816  64.799  1.00  0.00    -0.317 OA
HETATM   19  C   UNL     1       3.449  34.555  65.912  1.00  0.00     0.143 A 
HETATM   20  C   UNL     1       4.592  34.674  66.667  1.00  0.00     0.027 A 
HETATM   21  C   UNL     1       5.599  33.963  65.972  1.00  0.00     0.045 A 
ENDBRANCH  14  17
ENDBRANCH  10  13
ENDBRANCH   3   7
BRANCH   1  22
HETATM   22  C   UNL     1       9.063  28.460  57.255  1.00  0.00     0.130 C 
BRANCH  22  23
HETATM   23  C   UNL     1       7.655  27.976  56.933  1.00  0.00     0.031 C 
HETATM   24  C   UNL     1       7.375  27.996  55.441  1.00  0.00     0.241 C 
HETATM   25  N   UNL     1       5.858  27.923  55.348  1.00  0.00    -0.071 N 
HETATM   26  H   UNL     1       5.564  28.619  54.647  1.00  0.00     0.279 HD
HETATM   27  C   UNL     1       5.317  28.364  56.704  1.00  0.00     0.235 C 
HETATM   28  C   UNL     1       6.532  28.854  57.468  1.00  0.00     0.035 C 
BRANCH  25  29
HETATM   29  C   UNL     1       5.357  26.574  54.891  1.00  0.00     0.234 C 
BRANCH  29  30
HETATM   30  C   UNL     1       6.426  25.858  54.073  1.00  0.00     0.023 C 
HETATM   31  C   UNL     1       6.541  24.400  54.492  1.00  0.00     0.007 C 
ENDBRANCH  29  30
ENDBRANCH  25  29
ENDBRANCH  22  23
ENDBRANCH   1  22
TORSDOF 7
ENDMDL
MODEL 4
REMARK VINA RESULT:      -8.3      4.023     10.564
REMARK  7 active torsions:
REMARK  status: ('A' for Active; 'I' for Inactive)
REMARK    1  A    between atoms: C_2  and  C_3 
REMARK    2  A    between atoms: C_3  and  N_4 
REMARK    3  A    between atoms: C_7  and  C_8 
REMARK    4  A    between atoms: C_8  and  N_9 
REMARK       I    between atoms: N_9  and  C_10 
REMARK       I    between atoms: C_10  and  N_11 
REMARK    5  A    between atoms: N_11  and  C_12 
REMARK    6  A    between atoms: C_15  and  N_16 
REMARK       I    between atoms: N_16  and  C_17 
REMARK    7  A    between atoms: C_17  and  C_18 
ROOT
HETATM    1  N   UNL     1       8.110  27.633  56.405  1.00  0.00    -0.342 N 
HETATM    2  C   UNL     1       7.852  26.372  56.851  1.00  0.00     0.320 C 
HETATM    3  N   UNL     1       6.970  25.624  56.127  1.00  0.00    -0.309 N 
HETATM    4  O   UNL     1       8.314  25.946  57.907  1.00  0.00    -0.247 OA
HETATM    5  H   UNL     1       7.432  28.023  55.764  1.00  0.00     0.164 HD
HETATM    6  H   UNL     1       6.647  24.814  56.645  1.00  0.00     0.170 HD
ENDROOT
BRANCH   3   7
HETATM    7  C   UNL     1       6.425  25.810  54.842  1.00  0.00     0.036 A 
HETATM    8  C   UNL     1       5.330  26.633  54.578  1.00  0.00     0.032 A 
HETATM    9  C   UNL     1       4.768  26.685  53.296  1.00  0.00     0.032 A 
HETATM   10  C   UNL     1       5.309  25.934  52.255  1.00  0.00     0.035 A 
HETATM   11  C   UNL     1       6.472  25.196  52.494  1.00  0.00     0.032 A 
HETATM   12  C   UNL     1       7.032  25.141  53.777  1.00  0.00     0.032 A 
BRANCH  10  13
HETATM   13  N   UNL     1       4.738  25.849  50.973  1.00  0.00    -0.321 N 
HETATM   14  C   UNL     1       4.842  26.757  49.931  1.00  0.00     0.279 C 
HETATM   15  O   UNL     1       5.543  27.764  49.935  1.00  0.00    -0.265 OA
HETATM   16  H   UNL     1       4.093  25.085  50.798  1.00  0.00     0.169 HD
BRANCH  14  17
HETATM   17  C   UNL     1       3.980  26.423  48.811  1.00  0.00     0.142 A 
HETATM   18  O   UNL     1       3.517  25.137  48.676  1.00  0.00    -0.317 OA
HETATM   19  C   UNL     1       2.717  25.114  47.579  1.00  0.00     0.143 A 
HETATM   20  C   UNL     1       2.654  26.359  47.001  1.00  0.00     0.027 A 
HETATM   21  C   UNL     1       3.470  27.203  47.791  1.00  0.00     0.045 A 
ENDBRANCH  14  17
ENDBRANCH  10  13
ENDBRANCH   3   7
BRANCH   1  22
HETATM   22  C   UNL     1       9.011  28.536  57.083  1.00  0.00     0.130 C 
BRANCH  22  23
HETATM   23  C   UNL     1       8.295  29.789  57.572  1.00  0.00     0.031 C 
HETATM   24  C   UNL     1       8.275  29.878  59.087  1.00  0.00     0.241 C 
HETATM   25  N   UNL     1       7.183  30.895  59.384  1.00  0.00    -0.071 N 
HETATM   26  H   UNL     1       6.613  30.512  60.152  1.00  0.00     0.279 HD
HETATM   27  C   UNL     1       6.306  30.969  58.139  1.00  0.00     0.235 C 
HETATM   28  C   UNL     1       6.811  29.856  57.240  1.00  0.00     0.035 C 
BRANCH  25  29
HETATM   29  C   UNL     1       7.726  32.229  59.839  1.00  0.00     0.234 C 
BRANCH  29  30
HETATM   30  C   UNL     1       9.046  32.044  60.580  1.00  0.00     0.023 C 
HETATM   31  C   UNL     1       8.813  31.938  62.079  1.00  0.00     0.007 C 
ENDBRANCH  29  30
ENDBRANCH  25  29
ENDBRANCH  22  23
ENDBRANCH   1  22
TORSDOF 7
ENDMDL
MODEL 5
REMARK VINA RESULT:      -8.2      4.251      8.657
REMARK  7 active torsions:
REMARK  status: ('A' for Active; 'I' for Inactive)
REMARK    1  A    between atoms: C_2  and  C_3 
REMARK    2  A    between atoms: C_3  and  N_4 
REMARK    3  A    between atoms: C_7  and  C_8 
REMARK    4  A    between atoms: C_8  and  N_9 
REMARK       I    between atoms: N_9  and  C_10 
REMARK       I    between atoms: C_10  and  N_11 
REMARK    5  A    between atoms: N_11  and  C_12 
REMARK    6  A    between atoms: C_15  and  N_16 
REMARK       I    between atoms: N_16  and  C_17 
REMARK    7  A    between atoms: C_17  and  C_18 
ROOT
HETATM    1  N   UNL     1       7.623  26.572  56.503  1.00  0.00    -0.342 N 
HETATM    2  C   UNL     1       7.287  27.753  57.095  1.00  0.00     0.320 C 
HETATM    3  N   UNL     1       6.591  28.651  56.340  1.00  0.00    -0.309 N 
HETATM    4  O   UNL     1       7.668  28.048  58.225  1.00  0.00    -0.247 OA
HETATM    5  H   UNL     1       7.597  26.560  55.493  1.00  0.00     0.164 HD
HETATM    6  H   UNL     1       6.597  29.577  56.754  1.00  0.00     0.170 HD
ENDROOT
BRANCH   3   7
HETATM    7  C   UNL     1       5.926  28.514  55.107  1.00  0.00     0.036 A 
HETATM    8  C   UNL     1       4.540  28.418  54.981  1.00  0.00     0.032 A 
HETATM    9  C   UNL     1       3.950  28.169  53.736  1.00  0.00     0.032 A 
HETATM   10  C   UNL     1       4.737  28.040  52.593  1.00  0.00     0.035 A 
HETATM   11  C   UNL     1       6.116  28.246  52.702  1.00  0.00     0.032 A 
HETATM   12  C   UNL     1       6.706  28.490  53.948  1.00  0.00     0.032 A 
BRANCH  10  13
HETATM   13  N   UNL     1       4.231  27.683  51.331  1.00  0.00    -0.321 N 
HETATM   14  C   UNL     1       4.662  26.664  50.497  1.00  0.00     0.279 C 
HETATM   15  O   UNL     1       5.519  25.832  50.778  1.00  0.00    -0.265 OA
HETATM   16  H   UNL     1       3.528  28.289  50.921  1.00  0.00     0.169 HD
BRANCH  14  17
HETATM   17  C   UNL     1       4.018  26.697  49.195  1.00  0.00     0.142 A 
HETATM   18  O   UNL     1       3.894  27.894  48.535  1.00  0.00    -0.317 OA
HETATM   19  C   UNL     1       3.295  27.634  47.345  1.00  0.00     0.143 A 
HETATM   20  C   UNL     1       3.030  26.291  47.221  1.00  0.00     0.027 A 
HETATM   21  C   UNL     1       3.492  25.686  48.414  1.00  0.00     0.045 A 
ENDBRANCH  14  17
ENDBRANCH  10  13
ENDBRANCH   3   7
BRANCH   1  22
HETATM   22  C   UNL     1       8.371  25.539  57.182  1.00  0.00     0.130 C 
BRANCH  22  23
HETATM   23  C   UNL     1       8.458  24.264  56.352  1.00  0.00     0.031 C 
HETATM   24  C   UNL     1       7.258  24.098  55.438  1.00  0.00     0.241 C 
HETATM   25  N   UNL     1       7.291  22.628  55.047  1.00  0.00    -0.071 N 
HETATM   26  H   UNL     1       6.328  22.272  55.128  1.00  0.00     0.279 HD
HETATM   27  C   UNL     1       8.144  21.919  56.093  1.00  0.00     0.235 C 
HETATM   28  C   UNL     1       8.417  22.970  57.152  1.00  0.00     0.035 C 
BRANCH  25  29
HETATM   29  C   UNL     1       7.744  22.405  53.623  1.00  0.00     0.234 C 
BRANCH  29  30
HETATM   30  C   UNL     1       8.953  21.478  53.587  1.00  0.00     0.023 C 
HETATM   31  C   UNL     1       8.613  20.173  52.883  1.00  0.00     0.007 C 
ENDBRANCH  29  30
ENDBRANCH  25  29
ENDBRANCH  22  23
ENDBRANCH   1  22
TORSDOF 7
ENDMDL
MODEL 6
REMARK VINA RESULT:      -8.1      2.625      9.965
REMARK  7 active torsions:
REMARK  status: ('A' for Active; 'I' for Inactive)
REMARK    1  A    between atoms: C_2  and  C_3 
REMARK    2  A    between atoms: C_3  and  N_4 
REMARK    3  A    between atoms: C_7  and  C_8 
REMARK    4  A    between atoms: C_8  and  N_9 
REMARK       I    between atoms: N_9  and  C_10 
REMARK       I    between atoms: C_10  and  N_11 
REMARK    5  A    between atoms: N_11  and  C_12 
REMARK    6  A    between atoms: C_15  and  N_16 
REMARK       I    between atoms: N_16  and  C_17 
REMARK    7  A    between atoms: C_17  and  C_18 
ROOT
HETATM    1  N   UNL     1       5.750  30.402  56.511  1.00  0.00    -0.342 N 
HETATM    2  C   UNL     1       5.120  30.665  55.331  1.00  0.00     0.320 C 
HETATM    3  N   UNL     1       5.294  29.766  54.320  1.00  0.00    -0.309 N 
HETATM    4  O   UNL     1       4.496  31.706  55.143  1.00  0.00    -0.247 OA
HETATM    5  H   UNL     1       6.514  29.743  56.467  1.00  0.00     0.164 HD
HETATM    6  H   UNL     1       5.008  30.146  53.424  1.00  0.00     0.170 HD
ENDROOT
BRANCH   3   7
HETATM    7  C   UNL     1       5.822  28.462  54.314  1.00  0.00     0.036 A 
HETATM    8  C   UNL     1       7.158  28.169  54.037  1.00  0.00     0.032 A 
HETATM    9  C   UNL     1       7.593  26.842  53.935  1.00  0.00     0.032 A 
HETATM   10  C   UNL     1       6.703  25.788  54.133  1.00  0.00     0.035 A 
HETATM   11  C   UNL     1       5.391  26.081  54.519  1.00  0.00     0.032 A 
HETATM   12  C   UNL     1       4.955  27.409  54.617  1.00  0.00     0.032 A 
BRANCH  10  13
HETATM   13  N   UNL     1       7.037  24.435  53.942  1.00  0.00    -0.321 N 
HETATM   14  C   UNL     1       7.321  23.483  54.907  1.00  0.00     0.279 C 
HETATM   15  O   UNL     1       7.236  23.654  56.119  1.00  0.00    -0.265 OA
HETATM   16  H   UNL     1       7.183  24.121  52.988  1.00  0.00     0.169 HD
BRANCH  14  17
HETATM   17  C   UNL     1       7.791  22.232  54.337  1.00  0.00     0.142 A 
HETATM   18  O   UNL     1       8.210  21.226  55.171  1.00  0.00    -0.317 OA
HETATM   19  C   UNL     1       8.557  20.174  54.386  1.00  0.00     0.143 A 
HETATM   20  C   UNL     1       8.371  20.480  53.059  1.00  0.00     0.027 A 
HETATM   21  C   UNL     1       7.880  21.807  53.025  1.00  0.00     0.045 A 
ENDBRANCH  14  17
ENDBRANCH  10  13
ENDBRANCH   3   7
BRANCH   1  22
HETATM   22  C   UNL     1       5.663  31.277  57.658  1.00  0.00     0.130 C 
BRANCH  22  23
HETATM   23  C   UNL     1       6.692  30.917  58.723  1.00  0.00     0.031 C 
HETATM   24  C   UNL     1       7.192  32.142  59.467  1.00  0.00     0.241 C 
HETATM   25  N   UNL     1       8.474  31.672  60.136  1.00  0.00    -0.071 N 
HETATM   26  H   UNL     1       9.181  32.406  59.986  1.00  0.00     0.279 HD
HETATM   27  C   UNL     1       8.925  30.424  59.384  1.00  0.00     0.235 C 
HETATM   28  C   UNL     1       7.991  30.328  58.192  1.00  0.00     0.035 C 
BRANCH  25  29
HETATM   29  C   UNL     1       8.326  31.477  61.627  1.00  0.00     0.234 C 
BRANCH  29  30
HETATM   30  C   UNL     1       7.646  32.686  62.258  1.00  0.00     0.023 C 
HETATM   31  C   UNL     1       7.891  32.721  63.759  1.00  0.00     0.007 C 
ENDBRANCH  29  30
ENDBRANCH  25  29
ENDBRANCH  22  23
ENDBRANCH   1  22
TORSDOF 7
ENDMDL
MODEL 7
REMARK VINA RESULT:      -8.1      2.997      9.843
REMARK  7 active torsions:
REMARK  status: ('A' for Active; 'I' for Inactive)
REMARK    1  A    between atoms: C_2  and  C_3 
REMARK    2  A    between atoms: C_3  and  N_4 
REMARK    3  A    between atoms: C_7  and  C_8 
REMARK    4  A    between atoms: C_8  and  N_9 
REMARK       I    between atoms: N_9  and  C_10 
REMARK       I    between atoms: C_10  and  N_11 
REMARK    5  A    between atoms: N_11  and  C_12 
REMARK    6  A    between atoms: C_15  and  N_16 
REMARK       I    between atoms: N_16  and  C_17 
REMARK    7  A    between atoms: C_17  and  C_18 
ROOT
HETATM    1  N   UNL     1       4.731  29.525  55.792  1.00  0.00    -0.342 N 
HETATM    2  C   UNL     1       4.627  30.140  54.580  1.00  0.00     0.320 C 
HETATM    3  N   UNL     1       5.091  29.456  53.494  1.00  0.00    -0.309 N 
HETATM    4  O   UNL     1       4.222  31.294  54.466  1.00  0.00    -0.247 OA
HETATM    5  H   UNL     1       5.389  28.761  55.845  1.00  0.00     0.164 HD
HETATM    6  H   UNL     1       5.207  30.062  52.689  1.00  0.00     0.170 HD
ENDROOT
BRANCH   3   7
HETATM    7  C   UNL     1       5.459  28.108  53.330  1.00  0.00     0.036 A 
HETATM    8  C   UNL     1       4.544  27.076  53.118  1.00  0.00     0.032 A 
HETATM    9  C   UNL     1       4.968  25.742  53.077  1.00  0.00     0.032 A 
HETATM   10  C   UNL     1       6.316  25.423  53.220  1.00  0.00     0.035 A 
HETATM   11  C   UNL     1       7.245  26.464  53.321  1.00  0.00     0.032 A 
HETATM   12  C   UNL     1       6.820  27.797  53.367  1.00  0.00     0.032 A 
BRANCH  10  13
HETATM   13  N   UNL     1       6.805  24.107  53.298  1.00  0.00    -0.321 N 
HETATM   14  C   UNL     1       7.128  23.383  54.435  1.00  0.00     0.279 C 
HETATM   15  O   UNL     1       6.947  23.759  55.589  1.00  0.00    -0.265 OA
HETATM   16  H   UNL     1       7.046  23.645  52.426  1.00  0.00     0.169 HD
BRANCH  14  17
HETATM   17  C   UNL     1       7.765  22.115  54.128  1.00  0.00     0.142 A 
HETATM   18  O   UNL     1       8.277  21.353  55.150  1.00  0.00    -0.317 OA
HETATM   19  C   UNL     1       8.776  20.220  54.592  1.00  0.00     0.143 A 
HETATM   20  C   UNL     1       8.597  20.234  53.229  1.00  0.00     0.027 A 
HETATM   21  C   UNL     1       7.949  21.456  52.928  1.00  0.00     0.045 A 
ENDBRANCH  14  17
ENDBRANCH  10  13
ENDBRANCH   3   7
BRANCH   1  22
HETATM   22  C   UNL     1       4.293  30.141  57.023  1.00  0.00     0.130 C 
BRANCH  22  23
HETATM   23  C   UNL     1       5.443  30.324  58.006  1.00  0.00     0.031 C 
HETATM   24  C   UNL     1       5.963  31.750  58.013  1.00  0.00     0.241 C 
HETATM   25  N   UNL     1       7.329  31.642  58.674  1.00  0.00    -0.071 N 
HETATM   26  H   UNL     1       7.983  32.207  58.113  1.00  0.00     0.279 HD
HETATM   27  C   UNL     1       7.754  30.182  58.562  1.00  0.00     0.235 C 
HETATM   28  C   UNL     1       6.705  29.538  57.675  1.00  0.00     0.035 C 
BRANCH  25  29
HETATM   29  C   UNL     1       7.348  32.186  60.083  1.00  0.00     0.234 C 
BRANCH  29  30
HETATM   30  C   UNL     1       8.774  32.220  60.623  1.00  0.00     0.023 C 
HETATM   31  C   UNL     1       8.796  31.906  62.111  1.00  0.00     0.007 C 
ENDBRANCH  29  30
ENDBRANCH  25  29
ENDBRANCH  22  23
ENDBRANCH   1  22
TORSDOF 7
ENDMDL
MODEL 8
REMARK VINA RESULT:      -7.9      3.409      9.099
REMARK  7 active torsions:
REMARK  status: ('A' for Active; 'I' for Inactive)
REMARK    1  A    between atoms: C_2  and  C_3 
REMARK    2  A    between atoms: C_3  and  N_4 
REMARK    3  A    between atoms: C_7  and  C_8 
REMARK    4  A    between atoms: C_8  and  N_9 
REMARK       I    between atoms: N_9  and  C_10 
REMARK       I    between atoms: C_10  and  N_11 
REMARK    5  A    between atoms: N_11  and  C_12 
REMARK    6  A    between atoms: C_15  and  N_16 
REMARK       I    between atoms: N_16  and  C_17 
REMARK    7  A    between atoms: C_17  and  C_18 
ROOT
HETATM    1  N   UNL     1       5.026  29.718  55.316  1.00  0.00    -0.342 N 
HETATM    2  C   UNL     1       4.753  30.015  54.015  1.00  0.00     0.320 C 
HETATM    3  N   UNL     1       5.094  29.082  53.079  1.00  0.00    -0.309 N 
HETATM    4  O   UNL     1       4.305  31.108  53.675  1.00  0.00    -0.247 OA
HETATM    5  H   UNL     1       5.707  28.987  55.470  1.00  0.00     0.164 HD
HETATM    6  H   UNL     1       5.090  29.470  52.142  1.00  0.00     0.170 HD
ENDROOT
BRANCH   3   7
HETATM    7  C   UNL     1       5.474  27.734  53.204  1.00  0.00     0.036 A 
HETATM    8  C   UNL     1       4.595  26.663  53.042  1.00  0.00     0.032 A 
HETATM    9  C   UNL     1       5.013  25.350  53.293  1.00  0.00     0.032 A 
HETATM   10  C   UNL     1       6.324  25.087  53.682  1.00  0.00     0.035 A 
HETATM   11  C   UNL     1       7.234  26.148  53.736  1.00  0.00     0.032 A 
HETATM   12  C   UNL     1       6.814  27.461  53.491  1.00  0.00     0.032 A 
BRANCH  10  13
HETATM   13  N   UNL     1       6.790  23.813  54.055  1.00  0.00    -0.321 N 
HETATM   14  C   UNL     1       7.155  23.375  55.318  1.00  0.00     0.279 C 
HETATM   15  O   UNL     1       7.040  24.024  56.354  1.00  0.00    -0.265 OA
HETATM   16  H   UNL     1       6.976  23.147  53.312  1.00  0.00     0.169 HD
BRANCH  14  17
HETATM   17  C   UNL     1       7.750  22.051  55.300  1.00  0.00     0.142 A 
HETATM   18  O   UNL     1       7.994  21.438  54.096  1.00  0.00    -0.317 OA
HETATM   19  C   UNL     1       8.577  20.242  54.368  1.00  0.00     0.143 A 
HETATM   20  C   UNL     1       8.714  20.069  55.725  1.00  0.00     0.027 A 
HETATM   21  C   UNL     1       8.179  21.232  56.327  1.00  0.00     0.045 A 
ENDBRANCH  14  17
ENDBRANCH  10  13
ENDBRANCH   3   7
BRANCH   1  22
HETATM   22  C   UNL     1       4.732  30.620  56.406  1.00  0.00     0.130 C 
BRANCH  22  23
HETATM   23  C   UNL     1       5.973  30.939  57.229  1.00  0.00     0.031 C 
HETATM   24  C   UNL     1       6.665  29.682  57.724  1.00  0.00     0.241 C 
HETATM   25  N   UNL     1       7.568  30.173  58.845  1.00  0.00    -0.071 N 
HETATM   26  H   UNL     1       7.461  29.515  59.631  1.00  0.00     0.279 HD
HETATM   27  C   UNL     1       7.019  31.526  59.286  1.00  0.00     0.235 C 
HETATM   28  C   UNL     1       5.711  31.679  58.533  1.00  0.00     0.035 C 
BRANCH  25  29
HETATM   29  C   UNL     1       9.029  30.193  58.462  1.00  0.00     0.234 C 
BRANCH  29  30
HETATM   30  C   UNL     1       9.298  29.205  57.333  1.00  0.00     0.023 C 
HETATM   31  C   UNL     1      10.292  29.782  56.336  1.00  0.00     0.007 C 
ENDBRANCH  29  30
ENDBRANCH  25  29
ENDBRANCH  22  23
ENDBRANCH   1  22
TORSDOF 7
ENDMDL
MODEL 9
REMARK VINA RESULT:      -7.9      2.212     10.429
REMARK  7 active torsions:
REMARK  status: ('A' for Active; 'I' for Inactive)
REMARK    1  A    between atoms: C_2  and  C_3 
REMARK    2  A    between atoms: C_3  and  N_4 
REMARK    3  A    between atoms: C_7  and  C_8 
REMARK    4  A    between atoms: C_8  and  N_9 
REMARK       I    between atoms: N_9  and  C_10 
REMARK       I    between atoms: C_10  and  N_11 
REMARK    5  A    between atoms: N_11  and  C_12 
REMARK    6  A    between atoms: C_15  and  N_16 
REMARK       I    between atoms: N_16  and  C_17 
REMARK    7  A    between atoms: C_17  and  C_18 
ROOT
HETATM    1  N   UNL     1       8.572  30.900  61.035  1.00  0.00    -0.342 N 
HETATM    2  C   UNL     1       8.898  31.884  60.150  1.00  0.00     0.320 C 
HETATM    3  N   UNL     1       9.030  31.522  58.841  1.00  0.00    -0.309 N 
HETATM    4  O   UNL     1       9.155  33.029  60.512  1.00  0.00    -0.247 OA
HETATM    5  H   UNL     1       8.737  29.953  60.725  1.00  0.00     0.164 HD
HETATM    6  H   UNL     1       9.506  32.236  58.299  1.00  0.00     0.170 HD
ENDROOT
BRANCH   3   7
HETATM    7  C   UNL     1       8.664  30.348  58.157  1.00  0.00     0.036 A 
HETATM    8  C   UNL     1       7.377  29.811  58.175  1.00  0.00     0.032 A 
HETATM    9  C   UNL     1       7.108  28.578  57.567  1.00  0.00     0.032 A 
HETATM   10  C   UNL     1       8.117  27.879  56.908  1.00  0.00     0.035 A 
HETATM   11  C   UNL     1       9.379  28.470  56.794  1.00  0.00     0.032 A 
HETATM   12  C   UNL     1       9.649  29.700  57.407  1.00  0.00     0.032 A 
BRANCH  10  13
HETATM   13  N   UNL     1       7.952  26.591  56.368  1.00  0.00    -0.321 N 
HETATM   14  C   UNL     1       8.193  25.372  56.982  1.00  0.00     0.279 C 
HETATM   15  O   UNL     1       8.511  25.222  58.158  1.00  0.00    -0.265 OA
HETATM   16  H   UNL     1       7.719  26.523  55.382  1.00  0.00     0.169 HD
BRANCH  14  17
HETATM   17  C   UNL     1       8.076  24.252  56.066  1.00  0.00     0.142 A 
HETATM   18  O   UNL     1       9.116  23.363  55.953  1.00  0.00    -0.317 OA
HETATM   19  C   UNL     1       8.732  22.409  55.067  1.00  0.00     0.143 A 
HETATM   20  C   UNL     1       7.463  22.663  54.604  1.00  0.00     0.027 A 
HETATM   21  C   UNL     1       7.040  23.852  55.244  1.00  0.00     0.045 A 
ENDBRANCH  14  17
ENDBRANCH  10  13
ENDBRANCH   3   7
BRANCH   1  22
HETATM   22  C   UNL     1       8.415  31.141  62.451  1.00  0.00     0.130 C 
BRANCH  22  23
HETATM   23  C   UNL     1       7.335  32.178  62.733  1.00  0.00     0.031 C 
HETATM   24  C   UNL     1       7.528  32.847  64.082  1.00  0.00     0.241 C 
HETATM   25  N   UNL     1       6.178  33.484  64.376  1.00  0.00    -0.071 N 
HETATM   26  H   UNL     1       5.951  33.273  65.359  1.00  0.00     0.279 HD
HETATM   27  C   UNL     1       5.159  32.769  63.495  1.00  0.00     0.235 C 
HETATM   28  C   UNL     1       5.925  31.621  62.865  1.00  0.00     0.035 C 
BRANCH  25  29
HETATM   29  C   UNL     1       6.186  34.986  64.219  1.00  0.00     0.234 C 
BRANCH  29  30
HETATM   30  C   UNL     1       5.742  35.379  62.815  1.00  0.00     0.023 C 
HETATM   31  C   UNL     1       4.820  36.588  62.857  1.00  0.00     0.007 C 
ENDBRANCH  29  30
ENDBRANCH  25  29
ENDBRANCH  22  23
ENDBRANCH   1  22
TORSDOF 7
ENDMDL
MODEL 10
REMARK VINA RESULT:      -7.9      4.237     10.235
REMARK  7 active torsions:
REMARK  status: ('A' for Active; 'I' for Inactive)
REMARK    1  A    between atoms: C_2  and  C_3 
REMARK    2  A    between atoms: C_3  and  N_4 
REMARK    3  A    between atoms: C_7  and  C_8 
REMARK    4  A    between atoms: C_8  and  N_9 
REMARK       I    between atoms: N_9  and  C_10 
REMARK       I    between atoms: C_10  and  N_11 
REMARK    5  A    between atoms: N_11  and  C_12 
REMARK    6  A    between atoms: C_15  and  N_16 
REMARK       I    between atoms: N_16  and  C_17 
REMARK    7  A    between atoms: C_17  and  C_18 
ROOT
HETATM    1  N   UNL     1       7.426  25.504  56.605  1.00  0.00    -0.342 N 
HETATM    2  C   UNL     1       8.007  24.351  56.168  1.00  0.00     0.320 C 
HETATM    3  N   UNL     1       7.601  23.872  54.956  1.00  0.00    -0.309 N 
HETATM    4  O   UNL     1       8.793  23.712  56.863  1.00  0.00    -0.247 OA
HETATM    5  H   UNL     1       6.554  25.756  56.161  1.00  0.00     0.164 HD
HETATM    6  H   UNL     1       7.885  22.908  54.818  1.00  0.00     0.170 HD
ENDROOT
BRANCH   3   7
HETATM    7  C   UNL     1       6.847  24.462  53.925  1.00  0.00     0.036 A 
HETATM    8  C   UNL     1       5.470  24.672  53.996  1.00  0.00     0.032 A 
HETATM    9  C   UNL     1       4.763  25.160  52.890  1.00  0.00     0.032 A 
HETATM   10  C   UNL     1       5.428  25.470  51.705  1.00  0.00     0.035 A 
HETATM   11  C   UNL     1       6.822  25.364  51.672  1.00  0.00     0.032 A 
HETATM   12  C   UNL     1       7.528  24.872  52.776  1.00  0.00     0.032 A 
BRANCH  10  13
HETATM   13  N   UNL     1       4.777  25.859  50.521  1.00  0.00    -0.321 N 
HETATM   14  C   UNL     1       4.637  27.138  50.006  1.00  0.00     0.279 C 
HETATM   15  O   UNL     1       5.153  28.150  50.472  1.00  0.00    -0.265 OA
HETATM   16  H   UNL     1       4.262  25.146  50.015  1.00  0.00     0.169 HD
BRANCH  14  17
HETATM   17  C   UNL     1       3.758  27.183  48.852  1.00  0.00     0.142 A 
HETATM   18  O   UNL     1       3.438  26.016  48.203  1.00  0.00    -0.317 OA
HETATM   19  C   UNL     1       2.585  26.339  47.197  1.00  0.00     0.143 A 
HETATM   20  C   UNL     1       2.347  27.693  47.182  1.00  0.00     0.027 A 
HETATM   21  C   UNL     1       3.104  28.238  48.246  1.00  0.00     0.045 A 
ENDBRANCH  14  17
ENDBRANCH  10  13
ENDBRANCH   3   7
BRANCH   1  22
HETATM   22  C   UNL     1       7.751  26.113  57.874  1.00  0.00     0.130 C 
BRANCH  22  23
HETATM   23  C   UNL     1       7.709  27.634  57.799  1.00  0.00     0.031 C 
HETATM   24  C   UNL     1       6.553  28.130  56.950  1.00  0.00     0.241 C 
HETATM   25  N   UNL     1       6.920  29.572  56.630  1.00  0.00    -0.071 N 
HETATM   26  H   UNL     1       6.732  29.717  55.627  1.00  0.00     0.279 HD
HETATM   27  C   UNL     1       8.425  29.697  56.848  1.00  0.00     0.235 C 
HETATM   28  C   UNL     1       8.900  28.279  57.104  1.00  0.00     0.035 C 
BRANCH  25  29
HETATM   29  C   UNL     1       6.098  30.577  57.400  1.00  0.00     0.234 C 
BRANCH  29  30
HETATM   30  C   UNL     1       6.969  31.323  58.404  1.00  0.00     0.023 C 
HETATM   31  C   UNL     1       6.124  32.233  59.282  1.00  0.00     0.007 C 
ENDBRANCH  29  30
ENDBRANCH  25  29
ENDBRANCH  22  23
ENDBRANCH   1  22
TORSDOF 7
ENDMDL
