MODEL 1
REMARK VINA RESULT:     -10.2      0.000      0.000
REMARK  6 active torsions:
REMARK  status: ('A' for Active; 'I' for Inactive)
REMARK    1  A    between atoms: C_7  and  C_8 
REMARK    2  A    between atoms: C_8  and  C_9 
REMARK       I    between atoms: C_9  and  N_10 
REMARK    3  A    between atoms: N_10  and  C_11 
REMARK    4  A    between atoms: C_11  and  C_12 
REMARK    5  A    between atoms: C_19  and  C_20 
REMARK    6  A    between atoms: C_23  and  O_24 
ROOT
HETATM    1  C   UNL     1       8.015  30.766  58.135  1.00  0.00     0.151 C 
HETATM    2  O   UNL     1       8.813  30.146  59.185  1.00  0.00    -0.343 OA
HETATM    3  C   UNL     1       8.377  30.726  60.343  1.00  0.00     0.075 A 
HETATM    4  C   UNL     1       7.274  31.537  60.187  1.00  0.00    -0.021 A 
HETATM    5  C   UNL     1       6.839  31.526  58.774  1.00  0.00     0.075 C 
HETATM    6  C   UNL     1       8.944  30.511  61.580  1.00  0.00     0.038 A 
HETATM    7  C   UNL     1       8.370  31.147  62.688  1.00  0.00     0.016 A 
HETATM    8  C   UNL     1       7.237  31.990  62.564  1.00  0.00    -0.005 A 
HETATM    9  C   UNL     1       6.693  32.170  61.275  1.00  0.00     0.024 A 
ENDROOT
BRANCH   1  10
HETATM   10  C   UNL     1       7.557  29.663  57.170  1.00  0.00     0.155 C 
BRANCH  10  11
HETATM   11  N   UNL     1       8.017  28.326  57.501  1.00  0.00    -0.359 N 
HETATM   12  C   UNL     1       7.190  27.226  57.424  1.00  0.00     0.219 C 
HETATM   13  O   UNL     1       6.006  27.299  57.118  1.00  0.00    -0.274 OA
HETATM   14  H   UNL     1       9.010  28.185  57.644  1.00  0.00     0.162 HD
BRANCH  12  15
HETATM   15  C   UNL     1       7.900  25.929  57.748  1.00  0.00     0.128 C 
BRANCH  15  16
HETATM   16  C   UNL     1       7.692  24.859  56.671  1.00  0.00     0.094 C 
HETATM   17  N   UNL     1       7.494  25.494  55.370  1.00  0.00    -0.362 N 
HETATM   18  C   UNL     1       7.747  24.893  54.181  1.00  0.00     0.168 C 
HETATM   19  H   UNL     1       6.886  26.303  55.305  1.00  0.00     0.162 HD
HETATM   20  N   UNL     1       8.424  23.720  54.200  1.00  0.00    -0.363 N 
HETATM   21  S   UNL     1       7.280  25.595  52.752  1.00  0.00    -0.041 SA
HETATM   22  C   UNL     1       8.697  22.952  55.400  1.00  0.00     0.081 C 
HETATM   23  H   UNL     1       8.577  23.286  53.297  1.00  0.00     0.162 HD
HETATM   24  C   UNL     1       7.607  21.907  55.627  1.00  0.00     0.032 C 
HETATM   25  C   UNL     1       8.876  23.889  56.594  1.00  0.00     0.050 C 
ENDBRANCH  15  16
ENDBRANCH  12  15
ENDBRANCH  10  11
ENDBRANCH   1  10
BRANCH   8  26
HETATM   26  C   UNL     1       6.616  32.646  63.732  1.00  0.00     0.089 A 
HETATM   27  N   UNL     1       5.275  32.486  63.865  1.00  0.00    -0.147 NA
HETATM   28  N   UNL     1       4.599  33.053  64.917  1.00  0.00    -0.124 NA
HETATM   29  C   UNL     1       5.274  33.780  65.827  1.00  0.00     0.185 A 
HETATM   30  C   UNL     1       6.637  33.977  65.734  1.00  0.00     0.062 A 
HETATM   31  C   UNL     1       7.320  33.401  64.665  1.00  0.00     0.038 A 
BRANCH  29  32
HETATM   32  O   UNL     1       4.626  34.362  66.895  1.00  0.00    -0.338 OA
HETATM   33  C   UNL     1       5.450  34.464  68.053  1.00  0.00     0.211 C 
ENDBRANCH  29  32
ENDBRANCH   8  26
TORSDOF 6
ENDMDL
MODEL 2
REMARK VINA RESULT:     -10.0      1.487      1.969
REMARK  6 active torsions:
REMARK  status: ('A' for Active; 'I' for Inactive)
REMARK    1  A    between atoms: C_7  and  C_8 
REMARK    2  A    between atoms: C_8  and  C_9 
REMARK       I    between atoms: C_9  and  N_10 
REMARK    3  A    between atoms: N_10  and  C_11 
REMARK    4  A    between atoms: C_11  and  C_12 
REMARK    5  A    between atoms: C_19  and  C_20 
REMARK    6  A    between atoms: C_23  and  O_24 
ROOT
HETATM    1  C   UNL     1       8.887  30.410  57.954  1.00  0.00     0.151 C 
HETATM    2  O   UNL     1       9.955  30.787  58.871  1.00  0.00    -0.343 OA
HETATM    3  C   UNL     1       9.314  31.299  59.963  1.00  0.00     0.075 A 
HETATM    4  C   UNL     1       7.943  31.152  59.932  1.00  0.00    -0.021 A 
HETATM    5  C   UNL     1       7.543  30.431  58.705  1.00  0.00     0.075 C 
HETATM    6  C   UNL     1       9.952  31.883  61.035  1.00  0.00     0.038 A 
HETATM    7  C   UNL     1       9.167  32.335  62.104  1.00  0.00     0.016 A 
HETATM    8  C   UNL     1       7.755  32.203  62.104  1.00  0.00    -0.005 A 
HETATM    9  C   UNL     1       7.154  31.591  60.984  1.00  0.00     0.024 A 
ENDROOT
BRANCH   1  10
HETATM   10  C   UNL     1       9.222  29.029  57.373  1.00  0.00     0.155 C 
BRANCH  10  11
HETATM   11  N   UNL     1       8.143  28.393  56.637  1.00  0.00    -0.359 N 
HETATM   12  C   UNL     1       7.564  27.215  57.057  1.00  0.00     0.219 C 
HETATM   13  O   UNL     1       7.941  26.599  58.046  1.00  0.00    -0.274 OA
HETATM   14  H   UNL     1       7.710  28.912  55.882  1.00  0.00     0.162 HD
BRANCH  12  15
HETATM   15  C   UNL     1       6.415  26.774  56.174  1.00  0.00     0.128 C 
BRANCH  15  16
HETATM   16  C   UNL     1       6.881  25.948  54.971  1.00  0.00     0.094 C 
HETATM   17  N   UNL     1       7.706  24.830  55.425  1.00  0.00    -0.362 N 
HETATM   18  C   UNL     1       7.883  23.679  54.729  1.00  0.00     0.168 C 
HETATM   19  H   UNL     1       8.407  24.994  56.139  1.00  0.00     0.162 HD
HETATM   20  N   UNL     1       7.081  23.461  53.659  1.00  0.00    -0.363 N 
HETATM   21  S   UNL     1       9.013  22.560  55.200  1.00  0.00    -0.041 SA
HETATM   22  C   UNL     1       6.209  24.463  53.072  1.00  0.00     0.081 C 
HETATM   23  H   UNL     1       7.254  22.604  53.147  1.00  0.00     0.162 HD
HETATM   24  C   UNL     1       6.920  25.190  51.932  1.00  0.00     0.032 C 
HETATM   25  C   UNL     1       5.699  25.413  54.153  1.00  0.00     0.050 C 
ENDBRANCH  15  16
ENDBRANCH  12  15
ENDBRANCH  10  11
ENDBRANCH   1  10
BRANCH   8  26
HETATM   26  C   UNL     1       6.926  32.659  63.238  1.00  0.00     0.089 A 
HETATM   27  N   UNL     1       5.608  32.341  63.179  1.00  0.00    -0.147 NA
HETATM   28  N   UNL     1       4.748  32.716  64.183  1.00  0.00    -0.124 NA
HETATM   29  C   UNL     1       5.219  33.410  65.236  1.00  0.00     0.185 A 
HETATM   30  C   UNL     1       6.548  33.762  65.341  1.00  0.00     0.062 A 
HETATM   31  C   UNL     1       7.418  33.381  64.321  1.00  0.00     0.038 A 
BRANCH  29  32
HETATM   32  O   UNL     1       4.383  33.801  66.260  1.00  0.00    -0.338 OA
HETATM   33  C   UNL     1       5.092  34.219  67.424  1.00  0.00     0.211 C 
ENDBRANCH  29  32
ENDBRANCH   8  26
TORSDOF 6
ENDMDL
MODEL 3
REMARK VINA RESULT:      -9.6      2.166      2.963
REMARK  6 active torsions:
REMARK  status: ('A' for Active; 'I' for Inactive)
REMARK    1  A    between atoms: C_7  and  C_8 
REMARK    2  A    between atoms: C_8  and  C_9 
REMARK       I    between atoms: C_9  and  N_10 
REMARK    3  A    between atoms: N_10  and  C_11 
REMARK    4  A    between atoms: C_11  and  C_12 
REMARK    5  A    between atoms: C_19  and  C_20 
REMARK    6  A    between atoms: C_23  and  O_24 
ROOT
HETATM    1  C   UNL     1       8.704  30.491  57.960  1.00  0.00     0.151 C 
HETATM    2  O   UNL     1       9.781  30.607  58.935  1.00  0.00    -0.343 OA
HETATM    3  C   UNL     1       9.190  31.139  60.046  1.00  0.00     0.075 A 
HETATM    4  C   UNL     1       7.817  31.235  59.963  1.00  0.00    -0.021 A 
HETATM    5  C   UNL     1       7.353  30.688  58.670  1.00  0.00     0.075 C 
HETATM    6  C   UNL     1       9.871  31.522  61.180  1.00  0.00     0.038 A 
HETATM    7  C   UNL     1       9.130  32.022  62.258  1.00  0.00     0.016 A 
HETATM    8  C   UNL     1       7.718  32.136  62.207  1.00  0.00    -0.005 A 
HETATM    9  C   UNL     1       7.070  31.724  61.023  1.00  0.00     0.024 A 
ENDROOT
BRANCH   1  10
HETATM   10  C   UNL     1       8.824  29.120  57.278  1.00  0.00     0.155 C 
BRANCH  10  11
HETATM   11  N   UNL     1       7.562  28.508  56.901  1.00  0.00    -0.359 N 
HETATM   12  C   UNL     1       7.139  27.310  57.436  1.00  0.00     0.219 C 
HETATM   13  O   UNL     1       7.809  26.657  58.226  1.00  0.00    -0.274 OA
HETATM   14  H   UNL     1       6.913  29.055  56.347  1.00  0.00     0.162 HD
BRANCH  12  15
HETATM   15  C   UNL     1       5.765  26.899  56.951  1.00  0.00     0.128 C 
BRANCH  15  16
HETATM   16  C   UNL     1       5.496  27.334  55.507  1.00  0.00     0.094 C 
HETATM   17  N   UNL     1       5.411  26.160  54.641  1.00  0.00    -0.362 N 
HETATM   18  C   UNL     1       4.745  26.128  53.461  1.00  0.00     0.168 C 
HETATM   19  H   UNL     1       6.092  25.416  54.753  1.00  0.00     0.162 HD
HETATM   20  N   UNL     1       3.930  27.171  53.169  1.00  0.00    -0.363 N 
HETATM   21  S   UNL     1       4.890  24.834  52.431  1.00  0.00    -0.041 SA
HETATM   22  C   UNL     1       3.894  28.414  53.916  1.00  0.00     0.081 C 
HETATM   23  H   UNL     1       3.464  27.127  52.270  1.00  0.00     0.162 HD
HETATM   24  C   UNL     1       4.833  29.443  53.289  1.00  0.00     0.032 C 
HETATM   25  C   UNL     1       4.204  28.152  55.389  1.00  0.00     0.050 C 
ENDBRANCH  15  16
ENDBRANCH  12  15
ENDBRANCH  10  11
ENDBRANCH   1  10
BRANCH   8  26
HETATM   26  C   UNL     1       6.930  32.643  63.348  1.00  0.00     0.089 A 
HETATM   27  N   UNL     1       5.606  32.349  63.338  1.00  0.00    -0.147 NA
HETATM   28  N   UNL     1       4.782  32.772  64.353  1.00  0.00    -0.124 NA
HETATM   29  C   UNL     1       5.296  33.488  65.370  1.00  0.00     0.185 A 
HETATM   30  C   UNL     1       6.634  33.818  65.425  1.00  0.00     0.062 A 
HETATM   31  C   UNL     1       7.467  33.389  64.393  1.00  0.00     0.038 A 
BRANCH  29  32
HETATM   32  O   UNL     1       4.497  33.927  66.405  1.00  0.00    -0.338 OA
HETATM   33  C   UNL     1       4.379  35.347  66.449  1.00  0.00     0.211 C 
ENDBRANCH  29  32
ENDBRANCH   8  26
TORSDOF 6
ENDMDL
MODEL 4
REMARK VINA RESULT:      -9.2      2.423      3.252
REMARK  6 active torsions:
REMARK  status: ('A' for Active; 'I' for Inactive)
REMARK    1  A    between atoms: C_7  and  C_8 
REMARK    2  A    between atoms: C_8  and  C_9 
REMARK       I    between atoms: C_9  and  N_10 
REMARK    3  A    between atoms: N_10  and  C_11 
REMARK    4  A    between atoms: C_11  and  C_12 
REMARK    5  A    between atoms: C_19  and  C_20 
REMARK    6  A    between atoms: C_23  and  O_24 
ROOT
HETATM    1  C   UNL     1       8.414  30.911  60.006  1.00  0.00     0.151 C 
HETATM    2  O   UNL     1       7.260  31.765  59.754  1.00  0.00    -0.343 OA
HETATM    3  C   UNL     1       6.868  32.195  60.991  1.00  0.00     0.075 A 
HETATM    4  C   UNL     1       7.731  31.848  62.008  1.00  0.00    -0.021 A 
HETATM    5  C   UNL     1       8.890  31.115  61.455  1.00  0.00     0.075 C 
HETATM    6  C   UNL     1       5.736  32.942  61.230  1.00  0.00     0.038 A 
HETATM    7  C   UNL     1       5.475  33.343  62.546  1.00  0.00     0.016 A 
HETATM    8  C   UNL     1       6.340  33.002  63.617  1.00  0.00    -0.005 A 
HETATM    9  C   UNL     1       7.489  32.240  63.315  1.00  0.00     0.024 A 
ENDROOT
BRANCH   1  10
HETATM   10  C   UNL     1       9.495  31.252  58.970  1.00  0.00     0.155 C 
BRANCH  10  11
HETATM   11  N   UNL     1       9.292  30.672  57.654  1.00  0.00    -0.359 N 
HETATM   12  C   UNL     1      10.292  29.997  56.989  1.00  0.00     0.219 C 
HETATM   13  O   UNL     1      11.428  29.876  57.432  1.00  0.00    -0.274 OA
HETATM   14  H   UNL     1       8.347  30.634  57.290  1.00  0.00     0.162 HD
BRANCH  12  15
HETATM   15  C   UNL     1       9.836  29.418  55.666  1.00  0.00     0.128 C 
BRANCH  15  16
HETATM   16  C   UNL     1       8.393  28.907  55.714  1.00  0.00     0.094 C 
HETATM   17  N   UNL     1       7.872  28.757  54.357  1.00  0.00    -0.362 N 
HETATM   18  C   UNL     1       6.862  27.919  54.014  1.00  0.00     0.168 C 
HETATM   19  H   UNL     1       8.054  29.487  53.677  1.00  0.00     0.162 HD
HETATM   20  N   UNL     1       6.457  27.012  54.935  1.00  0.00    -0.363 N 
HETATM   21  S   UNL     1       6.178  27.978  52.504  1.00  0.00    -0.041 SA
HETATM   22  C   UNL     1       6.865  27.021  56.328  1.00  0.00     0.081 C 
HETATM   23  H   UNL     1       5.685  26.417  54.656  1.00  0.00     0.162 HD
HETATM   24  C   UNL     1       5.857  27.792  57.177  1.00  0.00     0.032 C 
HETATM   25  C   UNL     1       8.286  27.568  56.454  1.00  0.00     0.050 C 
ENDBRANCH  15  16
ENDBRANCH  12  15
ENDBRANCH  10  11
ENDBRANCH   1  10
BRANCH   8  26
HETATM   26  C   UNL     1       6.081  33.439  65.004  1.00  0.00     0.089 A 
HETATM   27  N   UNL     1       4.782  33.441  65.396  1.00  0.00    -0.147 NA
HETATM   28  N   UNL     1       4.431  33.829  66.667  1.00  0.00    -0.124 NA
HETATM   29  C   UNL     1       5.387  34.215  67.532  1.00  0.00     0.185 A 
HETATM   30  C   UNL     1       6.721  34.236  67.180  1.00  0.00     0.062 A 
HETATM   31  C   UNL     1       7.074  33.843  65.891  1.00  0.00     0.038 A 
BRANCH  29  32
HETATM   32  O   UNL     1       5.069  34.609  68.814  1.00  0.00    -0.338 OA
HETATM   33  C   UNL     1       6.202  35.059  69.552  1.00  0.00     0.211 C 
ENDBRANCH  29  32
ENDBRANCH   8  26
TORSDOF 6
ENDMDL
MODEL 5
REMARK VINA RESULT:      -9.1      3.712     11.680
REMARK  6 active torsions:
REMARK  status: ('A' for Active; 'I' for Inactive)
REMARK    1  A    between atoms: C_7  and  C_8 
REMARK    2  A    between atoms: C_8  and  C_9 
REMARK       I    between atoms: C_9  and  N_10 
REMARK    3  A    between atoms: N_10  and  C_11 
REMARK    4  A    between atoms: C_11  and  C_12 
REMARK    5  A    between atoms: C_19  and  C_20 
REMARK    6  A    between atoms: C_23  and  O_24 
ROOT
HETATM    1  C   UNL     1       7.806  29.829  57.731  1.00  0.00     0.151 C 
HETATM    2  O   UNL     1       6.451  29.294  57.778  1.00  0.00    -0.343 OA
HETATM    3  C   UNL     1       6.544  28.058  57.203  1.00  0.00     0.075 A 
HETATM    4  C   UNL     1       7.835  27.659  56.930  1.00  0.00    -0.021 A 
HETATM    5  C   UNL     1       8.787  28.696  57.380  1.00  0.00     0.075 C 
HETATM    6  C   UNL     1       5.466  27.242  56.940  1.00  0.00     0.038 A 
HETATM    7  C   UNL     1       5.714  25.983  56.377  1.00  0.00     0.016 A 
HETATM    8  C   UNL     1       7.028  25.541  56.081  1.00  0.00    -0.005 A 
HETATM    9  C   UNL     1       8.096  26.415  56.376  1.00  0.00     0.024 A 
ENDROOT
BRANCH   1  10
HETATM   10  C   UNL     1       8.110  30.480  59.088  1.00  0.00     0.155 C 
BRANCH  10  11
HETATM   11  N   UNL     1       6.989  31.167  59.706  1.00  0.00    -0.359 N 
HETATM   12  C   UNL     1       7.164  32.142  60.664  1.00  0.00     0.219 C 
HETATM   13  O   UNL     1       8.263  32.467  61.094  1.00  0.00    -0.274 OA
HETATM   14  H   UNL     1       6.067  31.027  59.308  1.00  0.00     0.162 HD
BRANCH  12  15
HETATM   15  C   UNL     1       5.861  32.766  61.116  1.00  0.00     0.128 C 
BRANCH  15  16
HETATM   16  C   UNL     1       5.995  33.508  62.449  1.00  0.00     0.094 C 
HETATM   17  N   UNL     1       5.163  34.710  62.437  1.00  0.00    -0.362 N 
HETATM   18  C   UNL     1       4.682  35.318  63.549  1.00  0.00     0.168 C 
HETATM   19  H   UNL     1       5.160  35.296  61.610  1.00  0.00     0.162 HD
HETATM   20  N   UNL     1       4.794  34.656  64.726  1.00  0.00    -0.363 N 
HETATM   21  S   UNL     1       3.944  36.801  63.462  1.00  0.00    -0.041 SA
HETATM   22  C   UNL     1       5.587  33.456  64.918  1.00  0.00     0.081 C 
HETATM   23  H   UNL     1       4.446  35.147  65.541  1.00  0.00     0.162 HD
HETATM   24  C   UNL     1       6.991  33.814  65.404  1.00  0.00     0.032 C 
HETATM   25  C   UNL     1       5.599  32.624  63.637  1.00  0.00     0.050 C 
ENDBRANCH  15  16
ENDBRANCH  12  15
ENDBRANCH  10  11
ENDBRANCH   1  10
BRANCH   8  26
HETATM   26  C   UNL     1       7.295  24.207  55.506  1.00  0.00     0.089 A 
HETATM   27  N   UNL     1       7.619  23.230  56.391  1.00  0.00    -0.147 NA
HETATM   28  N   UNL     1       7.885  21.952  55.962  1.00  0.00    -0.124 NA
HETATM   29  C   UNL     1       7.827  21.667  54.648  1.00  0.00     0.185 A 
HETATM   30  C   UNL     1       7.508  22.625  53.708  1.00  0.00     0.062 A 
HETATM   31  C   UNL     1       7.240  23.921  54.145  1.00  0.00     0.038 A 
BRANCH  29  32
HETATM   32  O   UNL     1       8.088  20.395  54.184  1.00  0.00    -0.338 OA
HETATM   33  C   UNL     1       8.432  20.370  52.801  1.00  0.00     0.211 C 
ENDBRANCH  29  32
ENDBRANCH   8  26
TORSDOF 6
ENDMDL
MODEL 6
REMARK VINA RESULT:      -9.0      3.872     10.806
REMARK  6 active torsions:
REMARK  status: ('A' for Active; 'I' for Inactive)
REMARK    1  A    between atoms: C_7  and  C_8 
REMARK    2  A    between atoms: C_8  and  C_9 
REMARK       I    between atoms: C_9  and  N_10 
REMARK    3  A    between atoms: N_10  and  C_11 
REMARK    4  A    between atoms: C_11  and  C_12 
REMARK    5  A    between atoms: C_19  and  C_20 
REMARK    6  A    between atoms: C_23  and  O_24 
ROOT
HETATM    1  C   UNL     1       5.096  29.941  56.319  1.00  0.00     0.151 C 
HETATM    2  O   UNL     1       4.379  29.495  55.131  1.00  0.00    -0.343 OA
HETATM    3  C   UNL     1       4.911  28.271  54.841  1.00  0.00     0.075 A 
HETATM    4  C   UNL     1       5.783  27.794  55.796  1.00  0.00    -0.021 A 
HETATM    5  C   UNL     1       5.875  28.754  56.916  1.00  0.00     0.075 C 
HETATM    6  C   UNL     1       4.597  27.535  53.719  1.00  0.00     0.038 A 
HETATM    7  C   UNL     1       5.195  26.278  53.567  1.00  0.00     0.016 A 
HETATM    8  C   UNL     1       6.098  25.757  54.528  1.00  0.00    -0.005 A 
HETATM    9  C   UNL     1       6.379  26.550  55.661  1.00  0.00     0.024 A 
ENDROOT
BRANCH   1  10
HETATM   10  C   UNL     1       4.075  30.536  57.299  1.00  0.00     0.155 C 
BRANCH  10  11
HETATM   11  N   UNL     1       4.640  31.086  58.519  1.00  0.00    -0.359 N 
HETATM   12  C   UNL     1       5.265  32.313  58.549  1.00  0.00     0.219 C 
HETATM   13  O   UNL     1       5.430  33.005  57.551  1.00  0.00    -0.274 OA
HETATM   14  H   UNL     1       4.431  30.619  59.393  1.00  0.00     0.162 HD
BRANCH  12  15
HETATM   15  C   UNL     1       5.715  32.714  59.938  1.00  0.00     0.128 C 
BRANCH  15  16
HETATM   16  C   UNL     1       6.960  31.948  60.397  1.00  0.00     0.094 C 
HETATM   17  N   UNL     1       7.904  31.823  59.288  1.00  0.00    -0.362 N 
HETATM   18  C   UNL     1       9.239  31.642  59.439  1.00  0.00     0.168 C 
HETATM   19  H   UNL     1       7.553  31.575  58.370  1.00  0.00     0.162 HD
HETATM   20  N   UNL     1       9.760  31.805  60.679  1.00  0.00    -0.363 N 
HETATM   21  S   UNL     1      10.205  31.278  58.140  1.00  0.00    -0.041 SA
HETATM   22  C   UNL     1       8.969  31.933  61.889  1.00  0.00     0.081 C 
HETATM   23  H   UNL     1      10.757  31.641  60.762  1.00  0.00     0.162 HD
HETATM   24  C   UNL     1       8.772  30.568  62.547  1.00  0.00     0.032 C 
HETATM   25  C   UNL     1       7.649  32.637  61.581  1.00  0.00     0.050 C 
ENDBRANCH  15  16
ENDBRANCH  12  15
ENDBRANCH  10  11
ENDBRANCH   1  10
BRANCH   8  26
HETATM   26  C   UNL     1       6.715  24.423  54.382  1.00  0.00     0.089 A 
HETATM   27  N   UNL     1       6.882  23.714  55.526  1.00  0.00    -0.147 NA
HETATM   28  N   UNL     1       7.445  22.461  55.502  1.00  0.00    -0.124 NA
HETATM   29  C   UNL     1       7.838  21.931  54.329  1.00  0.00     0.185 A 
HETATM   30  C   UNL     1       7.694  22.613  53.138  1.00  0.00     0.062 A 
HETATM   31  C   UNL     1       7.124  23.884  53.165  1.00  0.00     0.038 A 
BRANCH  29  32
HETATM   32  O   UNL     1       8.406  20.676  54.270  1.00  0.00    -0.338 OA
HETATM   33  C   UNL     1       8.584  20.212  52.934  1.00  0.00     0.211 C 
ENDBRANCH  29  32
ENDBRANCH   8  26
TORSDOF 6
ENDMDL
MODEL 7
REMARK VINA RESULT:      -8.9      1.736      2.279
REMARK  6 active torsions:
REMARK  status: ('A' for Active; 'I' for Inactive)
REMARK    1  A    between atoms: C_7  and  C_8 
REMARK    2  A    between atoms: C_8  and  C_9 
REMARK       I    between atoms: C_9  and  N_10 
REMARK    3  A    between atoms: N_10  and  C_11 
REMARK    4  A    between atoms: C_11  and  C_12 
REMARK    5  A    between atoms: C_19  and  C_20 
REMARK    6  A    between atoms: C_23  and  O_24 
ROOT
HETATM    1  C   UNL     1       6.438  31.384  58.081  1.00  0.00     0.151 C 
HETATM    2  O   UNL     1       7.534  30.825  58.863  1.00  0.00    -0.343 OA
HETATM    3  C   UNL     1       7.354  31.324  60.122  1.00  0.00     0.075 A 
HETATM    4  C   UNL     1       6.174  32.017  60.291  1.00  0.00    -0.021 A 
HETATM    5  C   UNL     1       5.396  31.997  59.035  1.00  0.00     0.075 C 
HETATM    6  C   UNL     1       8.236  31.139  61.164  1.00  0.00     0.038 A 
HETATM    7  C   UNL     1       7.906  31.680  62.413  1.00  0.00     0.016 A 
HETATM    8  C   UNL     1       6.703  32.400  62.622  1.00  0.00    -0.005 A 
HETATM    9  C   UNL     1       5.832  32.555  61.522  1.00  0.00     0.024 A 
ENDROOT
BRANCH   1  10
HETATM   10  C   UNL     1       5.858  30.264  57.206  1.00  0.00     0.155 C 
BRANCH  10  11
HETATM   11  N   UNL     1       6.725  29.810  56.133  1.00  0.00    -0.359 N 
HETATM   12  C   UNL     1       6.348  28.815  55.256  1.00  0.00     0.219 C 
HETATM   13  O   UNL     1       5.283  28.215  55.343  1.00  0.00    -0.274 OA
HETATM   14  H   UNL     1       7.562  30.346  55.937  1.00  0.00     0.162 HD
BRANCH  12  15
HETATM   15  C   UNL     1       7.380  28.554  54.179  1.00  0.00     0.128 C 
BRANCH  15  16
HETATM   16  C   UNL     1       7.556  27.062  53.883  1.00  0.00     0.094 C 
HETATM   17  N   UNL     1       7.471  26.294  55.124  1.00  0.00    -0.362 N 
HETATM   18  C   UNL     1       7.118  24.987  55.191  1.00  0.00     0.168 C 
HETATM   19  H   UNL     1       7.955  26.636  55.946  1.00  0.00     0.162 HD
HETATM   20  N   UNL     1       6.605  24.415  54.074  1.00  0.00    -0.363 N 
HETATM   21  S   UNL     1       7.271  24.131  56.604  1.00  0.00    -0.041 SA
HETATM   22  C   UNL     1       6.617  25.031  52.760  1.00  0.00     0.081 C 
HETATM   23  H   UNL     1       6.373  23.432  54.151  1.00  0.00     0.162 HD
HETATM   24  C   UNL     1       7.853  24.595  51.975  1.00  0.00     0.032 C 
HETATM   25  C   UNL     1       6.505  26.549  52.891  1.00  0.00     0.050 C 
ENDBRANCH  15  16
ENDBRANCH  12  15
ENDBRANCH  10  11
ENDBRANCH   1  10
BRANCH   8  26
HETATM   26  C   UNL     1       6.340  32.955  63.942  1.00  0.00     0.089 A 
HETATM   27  N   UNL     1       5.030  32.872  64.285  1.00  0.00    -0.147 NA
HETATM   28  N   UNL     1       4.587  33.357  65.492  1.00  0.00    -0.124 NA
HETATM   29  C   UNL     1       5.462  33.924  66.342  1.00  0.00     0.185 A 
HETATM   30  C   UNL     1       6.803  34.038  66.038  1.00  0.00     0.062 A 
HETATM   31  C   UNL     1       7.250  33.546  64.813  1.00  0.00     0.038 A 
BRANCH  29  32
HETATM   32  O   UNL     1       5.050  34.420  67.561  1.00  0.00    -0.338 OA
HETATM   33  C   UNL     1       6.119  34.974  68.323  1.00  0.00     0.211 C 
ENDBRANCH  29  32
ENDBRANCH   8  26
TORSDOF 6
ENDMDL
MODEL 8
REMARK VINA RESULT:      -8.7      3.902     11.175
REMARK  6 active torsions:
REMARK  status: ('A' for Active; 'I' for Inactive)
REMARK    1  A    between atoms: C_7  and  C_8 
REMARK    2  A    between atoms: C_8  and  C_9 
REMARK       I    between atoms: C_9  and  N_10 
REMARK    3  A    between atoms: N_10  and  C_11 
REMARK    4  A    between atoms: C_11  and  C_12 
REMARK    5  A    between atoms: C_19  and  C_20 
REMARK    6  A    between atoms: C_23  and  O_24 
ROOT
HETATM    1  C   UNL     1       5.625  30.039  56.960  1.00  0.00     0.151 C 
HETATM    2  O   UNL     1       5.454  30.028  55.512  1.00  0.00    -0.343 OA
HETATM    3  C   UNL     1       5.972  28.830  55.109  1.00  0.00     0.075 A 
HETATM    4  C   UNL     1       6.317  27.987  56.144  1.00  0.00    -0.021 A 
HETATM    5  C   UNL     1       5.989  28.622  57.438  1.00  0.00     0.075 C 
HETATM    6  C   UNL     1       6.117  28.451  53.793  1.00  0.00     0.038 A 
HETATM    7  C   UNL     1       6.633  27.177  53.526  1.00  0.00     0.016 A 
HETATM    8  C   UNL     1       7.001  26.285  54.565  1.00  0.00    -0.005 A 
HETATM    9  C   UNL     1       6.826  26.722  55.896  1.00  0.00     0.024 A 
ENDROOT
BRANCH   1  10
HETATM   10  C   UNL     1       4.327  30.565  57.590  1.00  0.00     0.155 C 
BRANCH  10  11
HETATM   11  N   UNL     1       4.493  31.250  58.860  1.00  0.00    -0.359 N 
HETATM   12  C   UNL     1       5.276  32.377  58.989  1.00  0.00     0.219 C 
HETATM   13  O   UNL     1       5.920  32.853  58.062  1.00  0.00    -0.274 OA
HETATM   14  H   UNL     1       3.895  30.976  59.631  1.00  0.00     0.162 HD
BRANCH  12  15
HETATM   15  C   UNL     1       5.247  32.960  60.386  1.00  0.00     0.128 C 
BRANCH  15  16
HETATM   16  C   UNL     1       6.604  32.871  61.089  1.00  0.00     0.094 C 
HETATM   17  N   UNL     1       6.481  33.335  62.470  1.00  0.00    -0.362 N 
HETATM   18  C   UNL     1       7.312  32.968  63.476  1.00  0.00     0.168 C 
HETATM   19  H   UNL     1       5.946  34.175  62.659  1.00  0.00     0.162 HD
HETATM   20  N   UNL     1       8.172  31.947  63.242  1.00  0.00    -0.363 N 
HETATM   21  S   UNL     1       7.247  33.717  64.955  1.00  0.00    -0.041 SA
HETATM   22  C   UNL     1       8.424  31.373  61.933  1.00  0.00     0.081 C 
HETATM   23  H   UNL     1       8.794  31.713  64.007  1.00  0.00     0.162 HD
HETATM   24  C   UNL     1       9.622  32.052  61.273  1.00  0.00     0.032 C 
HETATM   25  C   UNL     1       7.160  31.441  61.078  1.00  0.00     0.050 C 
ENDBRANCH  15  16
ENDBRANCH  12  15
ENDBRANCH  10  11
ENDBRANCH   1  10
BRANCH   8  26
HETATM   26  C   UNL     1       7.526  24.933  54.289  1.00  0.00     0.089 A 
HETATM   27  N   UNL     1       8.249  24.359  55.283  1.00  0.00    -0.147 NA
HETATM   28  N   UNL     1       8.783  23.102  55.130  1.00  0.00    -0.124 NA
HETATM   29  C   UNL     1       8.587  22.433  53.979  1.00  0.00     0.185 A 
HETATM   30  C   UNL     1       7.864  22.974  52.936  1.00  0.00     0.062 A 
HETATM   31  C   UNL     1       7.325  24.250  53.093  1.00  0.00     0.038 A 
BRANCH  29  32
HETATM   32  O   UNL     1       9.108  21.170  53.793  1.00  0.00    -0.338 OA
HETATM   33  C   UNL     1       8.345  20.386  52.880  1.00  0.00     0.211 C 
ENDBRANCH  29  32
ENDBRANCH   8  26
TORSDOF 6
ENDMDL
MODEL 9
REMARK VINA RESULT:      -8.7      3.326     10.901
REMARK  6 active torsions:
REMARK  status: ('A' for Active; 'I' for Inactive)
REMARK    1  A    between atoms: C_7  and  C_8 
REMARK    2  A    between atoms: C_8  and  C_9 
REMARK       I    between atoms: C_9  and  N_10 
REMARK    3  A    between atoms: N_10  and  C_11 
REMARK    4  A    between atoms: C_11  and  C_12 
REMARK    5  A    between atoms: C_19  and  C_20 
REMARK    6  A    between atoms: C_23  and  O_24 
ROOT
HETATM    1  C   UNL     1       4.815  29.337  57.284  1.00  0.00     0.151 C 
HETATM    2  O   UNL     1       6.191  29.273  57.763  1.00  0.00    -0.343 OA
HETATM    3  C   UNL     1       6.662  28.073  57.310  1.00  0.00     0.075 A 
HETATM    4  C   UNL     1       5.804  27.417  56.454  1.00  0.00    -0.021 A 
HETATM    5  C   UNL     1       4.593  28.235  56.233  1.00  0.00     0.075 C 
HETATM    6  C   UNL     1       7.897  27.553  57.632  1.00  0.00     0.038 A 
HETATM    7  C   UNL     1       8.264  26.326  57.066  1.00  0.00     0.016 A 
HETATM    8  C   UNL     1       7.406  25.622  56.183  1.00  0.00    -0.005 A 
HETATM    9  C   UNL     1       6.155  26.203  55.883  1.00  0.00     0.024 A 
ENDROOT
BRANCH   1  10
HETATM   10  C   UNL     1       4.568  30.747  56.730  1.00  0.00     0.155 C 
BRANCH  10  11
HETATM   11  N   UNL     1       5.004  31.832  57.591  1.00  0.00    -0.359 N 
HETATM   12  C   UNL     1       4.286  32.221  58.702  1.00  0.00     0.219 C 
HETATM   13  O   UNL     1       3.215  31.717  59.016  1.00  0.00    -0.274 OA
HETATM   14  H   UNL     1       5.936  32.206  57.453  1.00  0.00     0.162 HD
BRANCH  12  15
HETATM   15  C   UNL     1       4.964  33.324  59.487  1.00  0.00     0.128 C 
BRANCH  15  16
HETATM   16  C   UNL     1       5.468  32.848  60.853  1.00  0.00     0.094 C 
HETATM   17  N   UNL     1       6.669  32.032  60.684  1.00  0.00    -0.362 N 
HETATM   18  C   UNL     1       7.612  31.852  61.641  1.00  0.00     0.168 C 
HETATM   19  H   UNL     1       6.691  31.338  59.945  1.00  0.00     0.162 HD
HETATM   20  N   UNL     1       7.553  32.643  62.739  1.00  0.00    -0.363 N 
HETATM   21  S   UNL     1       8.820  30.730  61.452  1.00  0.00    -0.041 SA
HETATM   22  C   UNL     1       6.432  33.506  63.067  1.00  0.00     0.081 C 
HETATM   23  H   UNL     1       8.258  32.468  63.446  1.00  0.00     0.162 HD
HETATM   24  C   UNL     1       5.449  32.781  63.985  1.00  0.00     0.032 C 
HETATM   25  C   UNL     1       5.777  34.024  61.789  1.00  0.00     0.050 C 
ENDBRANCH  15  16
ENDBRANCH  12  15
ENDBRANCH  10  11
ENDBRANCH   1  10
BRANCH   8  26
HETATM   26  C   UNL     1       7.796  24.338  55.568  1.00  0.00     0.089 A 
HETATM   27  N   UNL     1       8.046  23.317  56.425  1.00  0.00    -0.147 NA
HETATM   28  N   UNL     1       8.416  22.079  55.958  1.00  0.00    -0.124 NA
HETATM   29  C   UNL     1       8.534  21.878  54.632  1.00  0.00     0.185 A 
HETATM   30  C   UNL     1       8.296  22.884  53.719  1.00  0.00     0.062 A 
HETATM   31  C   UNL     1       7.923  24.139  54.196  1.00  0.00     0.038 A 
BRANCH  29  32
HETATM   32  O   UNL     1       8.902  20.648  54.129  1.00  0.00    -0.338 OA
HETATM   33  C   UNL     1       8.344  20.386  52.845  1.00  0.00     0.211 C 
ENDBRANCH  29  32
ENDBRANCH   8  26
TORSDOF 6
ENDMDL
MODEL 10
REMARK VINA RESULT:      -8.2      8.555     12.100
REMARK  6 active torsions:
REMARK  status: ('A' for Active; 'I' for Inactive)
REMARK    1  A    between atoms: C_7  and  C_8 
REMARK    2  A    between atoms: C_8  and  C_9 
REMARK       I    between atoms: C_9  and  N_10 
REMARK    3  A    between atoms: N_10  and  C_11 
REMARK    4  A    between atoms: C_11  and  C_12 
REMARK    5  A    between atoms: C_19  and  C_20 
REMARK    6  A    between atoms: C_23  and  O_24 
ROOT
HETATM    1  C   UNL     1       5.077  28.877  50.989  1.00  0.00     0.151 C 
HETATM    2  O   UNL     1       5.725  29.144  52.267  1.00  0.00    -0.343 OA
HETATM    3  C   UNL     1       6.129  27.919  52.717  1.00  0.00     0.075 A 
HETATM    4  C   UNL     1       5.961  26.900  51.804  1.00  0.00    -0.021 A 
HETATM    5  C   UNL     1       5.405  27.440  50.545  1.00  0.00     0.075 C 
HETATM    6  C   UNL     1       6.692  27.693  53.953  1.00  0.00     0.038 A 
HETATM    7  C   UNL     1       7.090  26.388  54.269  1.00  0.00     0.016 A 
HETATM    8  C   UNL     1       6.930  25.315  53.355  1.00  0.00    -0.005 A 
HETATM    9  C   UNL     1       6.353  25.604  52.100  1.00  0.00     0.024 A 
ENDROOT
BRANCH   1  10
HETATM   10  C   UNL     1       5.552  29.934  49.982  1.00  0.00     0.155 C 
BRANCH  10  11
HETATM   11  N   UNL     1       4.905  29.882  48.683  1.00  0.00    -0.359 N 
HETATM   12  C   UNL     1       3.668  30.448  48.457  1.00  0.00     0.219 C 
HETATM   13  O   UNL     1       3.010  30.990  49.337  1.00  0.00    -0.274 OA
HETATM   14  H   UNL     1       5.447  29.555  47.893  1.00  0.00     0.162 HD
BRANCH  12  15
HETATM   15  C   UNL     1       3.220  30.333  47.016  1.00  0.00     0.128 C 
BRANCH  15  16
HETATM   16  C   UNL     1       2.372  29.083  46.761  1.00  0.00     0.094 C 
HETATM   17  N   UNL     1       3.034  27.909  47.325  1.00  0.00    -0.362 N 
HETATM   18  C   UNL     1       2.390  26.773  47.695  1.00  0.00     0.168 C 
HETATM   19  H   UNL     1       4.031  27.794  47.187  1.00  0.00     0.162 HD
HETATM   20  N   UNL     1       1.037  26.807  47.750  1.00  0.00    -0.363 N 
HETATM   21  S   UNL     1       3.236  25.407  48.107  1.00  0.00    -0.041 SA
HETATM   22  C   UNL     1       0.223  27.888  47.228  1.00  0.00     0.081 C 
HETATM   23  H   UNL     1       0.586  25.936  48.008  1.00  0.00     0.162 HD
HETATM   24  C   UNL     1      -0.207  27.591  45.793  1.00  0.00     0.032 C 
HETATM   25  C   UNL     1       0.966  29.216  47.360  1.00  0.00     0.050 C 
ENDBRANCH  15  16
ENDBRANCH  12  15
ENDBRANCH  10  11
ENDBRANCH   1  10
BRANCH   8  26
HETATM   26  C   UNL     1       7.367  23.941  53.675  1.00  0.00     0.089 A 
HETATM   27  N   UNL     1       7.467  23.638  54.994  1.00  0.00    -0.147 NA
HETATM   28  N   UNL     1       7.863  22.387  55.401  1.00  0.00    -0.124 NA
HETATM   29  C   UNL     1       8.160  21.452  54.480  1.00  0.00     0.185 A 
HETATM   30  C   UNL     1       8.080  21.712  53.127  1.00  0.00     0.062 A 
HETATM   31  C   UNL     1       7.679  22.981  52.717  1.00  0.00     0.038 A 
BRANCH  29  32
HETATM   32  O   UNL     1       8.561  20.187  54.854  1.00  0.00    -0.338 OA
HETATM   33  C   UNL     1       8.482  19.977  56.262  1.00  0.00     0.211 C 
ENDBRANCH  29  32
ENDBRANCH   8  26
TORSDOF 6
ENDMDL
