MODEL 1
REMARK VINA RESULT:     -10.6      0.000      0.000
REMARK  5 active torsions:
REMARK  status: ('A' for Active; 'I' for Inactive)
REMARK    1  A    between atoms: C_3  and  O_4 
REMARK    2  A    between atoms: C_8  and  C_9 
REMARK       I    between atoms: N_10  and  C_11 
REMARK    3  A    between atoms: C_11  and  C_12 
REMARK    4  A    between atoms: C_12  and  C_13 
REMARK    5  A    between atoms: C_13  and  C_14 
ROOT
HETATM    1  C   UNL     1       5.594  25.792  54.969  1.00  0.00     0.171 C 
HETATM    2  N   UNL     1       6.016  26.612  56.133  1.00  0.00    -0.338 N 
HETATM    3  C   UNL     1       7.315  27.138  56.151  1.00  0.00     0.221 C 
HETATM    4  O   UNL     1       8.211  26.743  55.404  1.00  0.00    -0.273 OA
HETATM    5  C   UNL     1       4.887  27.383  56.697  1.00  0.00     0.131 C 
HETATM    6  C   UNL     1       4.425  28.494  55.718  1.00  0.00     0.061 C 
HETATM    7  C   UNL     1       4.492  28.010  54.300  1.00  0.00    -0.019 A 
HETATM    8  C   UNL     1       5.050  26.783  53.967  1.00  0.00     0.044 A 
HETATM    9  N   UNL     1       4.936  26.627  52.613  1.00  0.00    -0.356 N 
HETATM   10  H   UNL     1       5.225  25.813  52.087  1.00  0.00     0.166 HD
HETATM   11  C   UNL     1       4.418  27.777  52.051  1.00  0.00     0.043 A 
HETATM   12  C   UNL     1       4.115  28.656  53.095  1.00  0.00    -0.001 A 
HETATM   13  C   UNL     1       4.195  28.101  50.708  1.00  0.00     0.030 A 
HETATM   14  C   UNL     1       3.645  29.356  50.425  1.00  0.00     0.002 A 
HETATM   15  C   UNL     1       3.325  30.247  51.446  1.00  0.00     0.001 A 
HETATM   16  C   UNL     1       3.553  29.910  52.785  1.00  0.00     0.014 A 
ENDROOT
BRANCH   1  17
HETATM   17  C   UNL     1       6.518  24.674  54.514  1.00  0.00    -0.029 A 
HETATM   18  C   UNL     1       7.042  24.570  53.218  1.00  0.00     0.012 A 
HETATM   19  C   UNL     1       7.874  23.502  52.857  1.00  0.00     0.038 A 
HETATM   20  C   UNL     1       8.214  22.523  53.791  1.00  0.00     0.074 A 
HETATM   21  C   UNL     1       7.751  22.632  55.110  1.00  0.00    -0.028 A 
HETATM   22  C   UNL     1       8.177  21.646  56.161  1.00  0.00     0.051 C 
HETATM   23  C   UNL     1       6.909  23.702  55.455  1.00  0.00     0.019 A 
BRANCH  20  24
HETATM   24  O   UNL     1       9.036  21.458  53.523  1.00  0.00    -0.355 OA
HETATM   25  C   UNL     1       8.440  20.387  52.800  1.00  0.00     0.210 C 
ENDBRANCH  20  24
ENDBRANCH   1  17
BRANCH   3  26
HETATM   26  C   UNL     1       7.638  28.200  57.200  1.00  0.00     0.108 C 
BRANCH  26  27
HETATM   27  C   UNL     1       9.101  28.657  57.134  1.00  0.00     0.051 C 
BRANCH  27  28
HETATM   28  C   UNL     1       9.361  29.918  57.897  1.00  0.00    -0.021 A 
HETATM   29  C   UNL     1       8.684  30.427  58.988  1.00  0.00     0.120 A 
HETATM   30  N   UNL     1       9.304  31.593  59.325  1.00  0.00    -0.285 N 
HETATM   31  C   UNL     1       8.957  32.474  60.412  1.00  0.00     0.179 C 
HETATM   32  N   UNL     1      10.338  31.897  58.520  1.00  0.00    -0.185 NA
HETATM   33  C   UNL     1      10.361  30.888  57.645  1.00  0.00     0.147 A 
ENDBRANCH  27  28
ENDBRANCH  26  27
ENDBRANCH   3  26
TORSDOF 5
ENDMDL
MODEL 2
REMARK VINA RESULT:     -10.2      2.822      8.251
REMARK  5 active torsions:
REMARK  status: ('A' for Active; 'I' for Inactive)
REMARK    1  A    between atoms: C_3  and  O_4 
REMARK    2  A    between atoms: C_8  and  C_9 
REMARK       I    between atoms: N_10  and  C_11 
REMARK    3  A    between atoms: C_11  and  C_12 
REMARK    4  A    between atoms: C_12  and  C_13 
REMARK    5  A    between atoms: C_13  and  C_14 
ROOT
HETATM    1  C   UNL     1       5.745  26.394  55.036  1.00  0.00     0.171 C 
HETATM    2  N   UNL     1       5.325  26.852  53.687  1.00  0.00    -0.338 N 
HETATM    3  C   UNL     1       6.171  27.712  52.974  1.00  0.00     0.221 C 
HETATM    4  O   UNL     1       7.102  28.325  53.497  1.00  0.00    -0.273 OA
HETATM    5  C   UNL     1       4.536  25.820  52.980  1.00  0.00     0.131 C 
HETATM    6  C   UNL     1       5.419  24.601  52.605  1.00  0.00     0.061 C 
HETATM    7  C   UNL     1       6.406  24.309  53.696  1.00  0.00    -0.019 A 
HETATM    8  C   UNL     1       6.562  25.148  54.791  1.00  0.00     0.044 A 
HETATM    9  N   UNL     1       7.510  24.596  55.608  1.00  0.00    -0.356 N 
HETATM   10  H   UNL     1       7.809  24.968  56.499  1.00  0.00     0.166 HD
HETATM   11  C   UNL     1       8.049  23.475  55.008  1.00  0.00     0.043 A 
HETATM   12  C   UNL     1       7.359  23.265  53.811  1.00  0.00    -0.001 A 
HETATM   13  C   UNL     1       9.088  22.639  55.433  1.00  0.00     0.030 A 
HETATM   14  C   UNL     1       9.427  21.556  54.614  1.00  0.00     0.002 A 
HETATM   15  C   UNL     1       8.749  21.318  53.420  1.00  0.00     0.001 A 
HETATM   16  C   UNL     1       7.712  22.163  53.008  1.00  0.00     0.014 A 
ENDROOT
BRANCH   1  17
HETATM   17  C   UNL     1       6.226  27.443  56.025  1.00  0.00    -0.029 A 
HETATM   18  C   UNL     1       7.527  27.491  56.544  1.00  0.00     0.012 A 
HETATM   19  C   UNL     1       7.902  28.474  57.469  1.00  0.00     0.038 A 
HETATM   20  C   UNL     1       6.987  29.443  57.882  1.00  0.00     0.074 A 
HETATM   21  C   UNL     1       5.695  29.454  57.337  1.00  0.00    -0.028 A 
HETATM   22  C   UNL     1       4.718  30.539  57.691  1.00  0.00     0.051 C 
HETATM   23  C   UNL     1       5.330  28.456  56.419  1.00  0.00     0.019 A 
BRANCH  20  24
HETATM   24  O   UNL     1       7.280  30.448  58.769  1.00  0.00    -0.355 OA
HETATM   25  C   UNL     1       8.504  30.305  59.478  1.00  0.00     0.210 C 
ENDBRANCH  20  24
ENDBRANCH   1  17
BRANCH   3  26
HETATM   26  C   UNL     1       5.869  27.943  51.495  1.00  0.00     0.108 C 
BRANCH  26  27
HETATM   27  C   UNL     1       4.654  28.856  51.286  1.00  0.00     0.051 C 
BRANCH  27  28
HETATM   28  C   UNL     1       3.719  28.362  50.226  1.00  0.00    -0.021 A 
HETATM   29  C   UNL     1       3.887  27.316  49.340  1.00  0.00     0.120 A 
HETATM   30  N   UNL     1       2.755  27.259  48.583  1.00  0.00    -0.285 N 
HETATM   31  C   UNL     1       2.466  26.317  47.530  1.00  0.00     0.179 C 
HETATM   32  N   UNL     1       1.855  28.206  48.900  1.00  0.00    -0.185 NA
HETATM   33  C   UNL     1       2.448  28.885  49.886  1.00  0.00     0.147 A 
ENDBRANCH  27  28
ENDBRANCH  26  27
ENDBRANCH   3  26
TORSDOF 5
ENDMDL
MODEL 3
REMARK VINA RESULT:      -9.5      2.746      7.138
REMARK  5 active torsions:
REMARK  status: ('A' for Active; 'I' for Inactive)
REMARK    1  A    between atoms: C_3  and  O_4 
REMARK    2  A    between atoms: C_8  and  C_9 
REMARK       I    between atoms: N_10  and  C_11 
REMARK    3  A    between atoms: C_11  and  C_12 
REMARK    4  A    between atoms: C_12  and  C_13 
REMARK    5  A    between atoms: C_13  and  C_14 
ROOT
HETATM    1  C   UNL     1       5.818  26.346  55.144  1.00  0.00     0.171 C 
HETATM    2  N   UNL     1       5.335  26.807  53.818  1.00  0.00    -0.338 N 
HETATM    3  C   UNL     1       6.146  27.672  53.070  1.00  0.00     0.221 C 
HETATM    4  O   UNL     1       7.099  28.286  53.552  1.00  0.00    -0.273 OA
HETATM    5  C   UNL     1       4.517  25.776  53.144  1.00  0.00     0.131 C 
HETATM    6  C   UNL     1       5.384  24.561  52.725  1.00  0.00     0.061 C 
HETATM    7  C   UNL     1       6.422  24.267  53.768  1.00  0.00    -0.019 A 
HETATM    8  C   UNL     1       6.626  25.102  54.857  1.00  0.00     0.044 A 
HETATM    9  N   UNL     1       7.612  24.550  55.627  1.00  0.00    -0.356 N 
HETATM   10  H   UNL     1       7.951  24.920  56.506  1.00  0.00     0.166 HD
HETATM   11  C   UNL     1       8.125  23.433  54.999  1.00  0.00     0.043 A 
HETATM   12  C   UNL     1       7.381  23.225  53.835  1.00  0.00    -0.001 A 
HETATM   13  C   UNL     1       9.185  22.598  55.373  1.00  0.00     0.030 A 
HETATM   14  C   UNL     1       9.488  21.519  54.535  1.00  0.00     0.002 A 
HETATM   15  C   UNL     1       8.756  21.283  53.374  1.00  0.00     0.001 A 
HETATM   16  C   UNL     1       7.700  22.126  53.012  1.00  0.00     0.014 A 
ENDROOT
BRANCH   1  17
HETATM   17  C   UNL     1       6.342  27.393  56.114  1.00  0.00    -0.029 A 
HETATM   18  C   UNL     1       7.650  27.410  56.615  1.00  0.00     0.012 A 
HETATM   19  C   UNL     1       8.065  28.393  57.523  1.00  0.00     0.038 A 
HETATM   20  C   UNL     1       7.183  29.392  57.936  1.00  0.00     0.074 A 
HETATM   21  C   UNL     1       5.886  29.433  57.408  1.00  0.00    -0.028 A 
HETATM   22  C   UNL     1       4.944  30.550  57.761  1.00  0.00     0.051 C 
HETATM   23  C   UNL     1       5.480  28.435  56.507  1.00  0.00     0.019 A 
BRANCH  20  24
HETATM   24  O   UNL     1       7.517  30.399  58.806  1.00  0.00    -0.355 OA
HETATM   25  C   UNL     1       8.814  30.957  58.634  1.00  0.00     0.210 C 
ENDBRANCH  20  24
ENDBRANCH   1  17
BRANCH   3  26
HETATM   26  C   UNL     1       5.775  27.907  51.607  1.00  0.00     0.108 C 
BRANCH  26  27
HETATM   27  C   UNL     1       4.339  28.424  51.447  1.00  0.00     0.051 C 
BRANCH  27  28
HETATM   28  C   UNL     1       4.091  29.711  52.170  1.00  0.00    -0.021 A 
HETATM   29  C   UNL     1       3.460  29.917  53.382  1.00  0.00     0.120 A 
HETATM   30  N   UNL     1       3.491  31.260  53.615  1.00  0.00    -0.285 N 
HETATM   31  C   UNL     1       2.963  31.950  54.765  1.00  0.00     0.179 C 
HETATM   32  N   UNL     1       4.087  31.957  52.632  1.00  0.00    -0.185 NA
HETATM   33  C   UNL     1       4.437  31.017  51.749  1.00  0.00     0.147 A 
ENDBRANCH  27  28
ENDBRANCH  26  27
ENDBRANCH   3  26
TORSDOF 5
ENDMDL
MODEL 4
REMARK VINA RESULT:      -9.4      2.821      7.480
REMARK  5 active torsions:
REMARK  status: ('A' for Active; 'I' for Inactive)
REMARK    1  A    between atoms: C_3  and  O_4 
REMARK    2  A    between atoms: C_8  and  C_9 
REMARK       I    between atoms: N_10  and  C_11 
REMARK    3  A    between atoms: C_11  and  C_12 
REMARK    4  A    between atoms: C_12  and  C_13 
REMARK    5  A    between atoms: C_13  and  C_14 
ROOT
HETATM    1  C   UNL     1       5.681  26.521  54.973  1.00  0.00     0.171 C 
HETATM    2  N   UNL     1       5.201  26.900  53.620  1.00  0.00    -0.338 N 
HETATM    3  C   UNL     1       5.995  27.750  52.836  1.00  0.00     0.221 C 
HETATM    4  O   UNL     1       6.923  28.415  53.296  1.00  0.00    -0.273 OA
HETATM    5  C   UNL     1       4.421  25.812  52.991  1.00  0.00     0.131 C 
HETATM    6  C   UNL     1       5.328  24.603  52.643  1.00  0.00     0.061 C 
HETATM    7  C   UNL     1       6.361  24.394  53.711  1.00  0.00    -0.019 A 
HETATM    8  C   UNL     1       6.529  25.289  54.758  1.00  0.00     0.044 A 
HETATM    9  N   UNL     1       7.521  24.806  55.565  1.00  0.00    -0.356 N 
HETATM   10  H   UNL     1       7.839  25.230  56.427  1.00  0.00     0.166 HD
HETATM   11  C   UNL     1       8.074  23.675  55.000  1.00  0.00     0.043 A 
HETATM   12  C   UNL     1       7.350  23.385  53.841  1.00  0.00    -0.001 A 
HETATM   13  C   UNL     1       9.153  22.891  55.427  1.00  0.00     0.030 A 
HETATM   14  C   UNL     1       9.497  21.780  54.648  1.00  0.00     0.002 A 
HETATM   15  C   UNL     1       8.786  21.464  53.493  1.00  0.00     0.001 A 
HETATM   16  C   UNL     1       7.710  22.257  53.078  1.00  0.00     0.014 A 
ENDROOT
BRANCH   1  17
HETATM   17  C   UNL     1       6.163  27.631  55.893  1.00  0.00    -0.029 A 
HETATM   18  C   UNL     1       5.308  28.494  56.592  1.00  0.00     0.012 A 
HETATM   19  C   UNL     1       5.817  29.510  57.412  1.00  0.00     0.038 A 
HETATM   20  C   UNL     1       7.194  29.674  57.562  1.00  0.00     0.074 A 
HETATM   21  C   UNL     1       8.072  28.790  56.920  1.00  0.00    -0.028 A 
HETATM   22  C   UNL     1       9.556  28.883  57.138  1.00  0.00     0.051 C 
HETATM   23  C   UNL     1       7.549  27.783  56.094  1.00  0.00     0.019 A 
BRANCH  20  24
HETATM   24  O   UNL     1       7.770  30.632  58.358  1.00  0.00    -0.355 OA
HETATM   25  C   UNL     1       6.876  31.578  58.930  1.00  0.00     0.210 C 
ENDBRANCH  20  24
ENDBRANCH   1  17
BRANCH   3  26
HETATM   26  C   UNL     1       5.634  27.899  51.360  1.00  0.00     0.108 C 
BRANCH  26  27
HETATM   27  C   UNL     1       4.460  28.863  51.143  1.00  0.00     0.051 C 
BRANCH  27  28
HETATM   28  C   UNL     1       4.891  30.230  50.712  1.00  0.00    -0.021 A 
HETATM   29  C   UNL     1       5.723  30.588  49.669  1.00  0.00     0.120 A 
HETATM   30  N   UNL     1       5.801  31.949  49.681  1.00  0.00    -0.285 N 
HETATM   31  C   UNL     1       6.547  32.780  48.768  1.00  0.00     0.179 C 
HETATM   32  N   UNL     1       5.089  32.514  50.671  1.00  0.00    -0.185 NA
HETATM   33  C   UNL     1       4.550  31.469  51.305  1.00  0.00     0.147 A 
ENDBRANCH  27  28
ENDBRANCH  26  27
ENDBRANCH   3  26
TORSDOF 5
ENDMDL
MODEL 5
REMARK VINA RESULT:      -9.2      2.708      7.057
REMARK  5 active torsions:
REMARK  status: ('A' for Active; 'I' for Inactive)
REMARK    1  A    between atoms: C_3  and  O_4 
REMARK    2  A    between atoms: C_8  and  C_9 
REMARK       I    between atoms: N_10  and  C_11 
REMARK    3  A    between atoms: C_11  and  C_12 
REMARK    4  A    between atoms: C_12  and  C_13 
REMARK    5  A    between atoms: C_13  and  C_14 
ROOT
HETATM    1  C   UNL     1       7.040  28.010  54.258  1.00  0.00     0.171 C 
HETATM    2  N   UNL     1       7.128  26.559  54.564  1.00  0.00    -0.338 N 
HETATM    3  C   UNL     1       6.130  25.978  55.358  1.00  0.00     0.221 C 
HETATM    4  O   UNL     1       5.342  26.636  56.037  1.00  0.00    -0.273 OA
HETATM    5  C   UNL     1       7.738  25.801  53.451  1.00  0.00     0.131 C 
HETATM    6  C   UNL     1       6.803  25.775  52.213  1.00  0.00     0.061 C 
HETATM    7  C   UNL     1       6.102  27.091  52.054  1.00  0.00    -0.019 A 
HETATM    8  C   UNL     1       6.200  28.097  53.006  1.00  0.00     0.044 A 
HETATM    9  N   UNL     1       5.475  29.167  52.558  1.00  0.00    -0.356 N 
HETATM   10  H   UNL     1       5.390  30.059  53.027  1.00  0.00     0.166 HD
HETATM   11  C   UNL     1       4.821  28.833  51.389  1.00  0.00     0.043 A 
HETATM   12  C   UNL     1       5.212  27.537  51.043  1.00  0.00    -0.001 A 
HETATM   13  C   UNL     1       3.918  29.576  50.619  1.00  0.00     0.030 A 
HETATM   14  C   UNL     1       3.407  28.978  49.462  1.00  0.00     0.002 A 
HETATM   15  C   UNL     1       3.788  27.692  49.088  1.00  0.00     0.001 A 
HETATM   16  C   UNL     1       4.690  26.960  49.868  1.00  0.00     0.014 A 
ENDROOT
BRANCH   1  17
HETATM   17  C   UNL     1       6.796  28.968  55.413  1.00  0.00    -0.029 A 
HETATM   18  C   UNL     1       5.635  29.739  55.556  1.00  0.00     0.012 A 
HETATM   19  C   UNL     1       5.478  30.618  56.636  1.00  0.00     0.038 A 
HETATM   20  C   UNL     1       6.475  30.732  57.605  1.00  0.00     0.074 A 
HETATM   21  C   UNL     1       7.622  29.931  57.518  1.00  0.00    -0.028 A 
HETATM   22  C   UNL     1       8.669  29.962  58.596  1.00  0.00     0.051 C 
HETATM   23  C   UNL     1       7.770  29.062  56.425  1.00  0.00     0.019 A 
BRANCH  20  24
HETATM   24  O   UNL     1       6.391  31.554  58.700  1.00  0.00    -0.355 OA
HETATM   25  C   UNL     1       5.087  32.024  59.019  1.00  0.00     0.210 C 
ENDBRANCH  20  24
ENDBRANCH   1  17
BRANCH   3  26
HETATM   26  C   UNL     1       6.075  24.453  55.427  1.00  0.00     0.108 C 
BRANCH  26  27
HETATM   27  C   UNL     1       7.239  23.865  56.234  1.00  0.00     0.051 C 
BRANCH  27  28
HETATM   28  C   UNL     1       7.835  22.644  55.606  1.00  0.00    -0.021 A 
HETATM   29  C   UNL     1       7.762  22.219  54.293  1.00  0.00     0.120 A 
HETATM   30  N   UNL     1       8.472  21.058  54.218  1.00  0.00    -0.285 N 
HETATM   31  C   UNL     1       8.688  20.253  53.042  1.00  0.00     0.179 C 
HETATM   32  N   UNL     1       8.997  20.678  55.395  1.00  0.00    -0.185 NA
HETATM   33  C   UNL     1       8.598  21.633  56.240  1.00  0.00     0.147 A 
ENDBRANCH  27  28
ENDBRANCH  26  27
ENDBRANCH   3  26
TORSDOF 5
ENDMDL
MODEL 6
REMARK VINA RESULT:      -8.3      3.561      9.071
REMARK  5 active torsions:
REMARK  status: ('A' for Active; 'I' for Inactive)
REMARK    1  A    between atoms: C_3  and  O_4 
REMARK    2  A    between atoms: C_8  and  C_9 
REMARK       I    between atoms: N_10  and  C_11 
REMARK    3  A    between atoms: C_11  and  C_12 
REMARK    4  A    between atoms: C_12  and  C_13 
REMARK    5  A    between atoms: C_13  and  C_14 
ROOT
HETATM    1  C   UNL     1       4.517  27.672  53.185  1.00  0.00     0.171 C 
HETATM    2  N   UNL     1       4.567  27.833  51.710  1.00  0.00    -0.338 N 
HETATM    3  C   UNL     1       5.532  28.686  51.157  1.00  0.00     0.221 C 
HETATM    4  O   UNL     1       6.159  29.512  51.821  1.00  0.00    -0.273 OA
HETATM    5  C   UNL     1       4.175  26.591  51.010  1.00  0.00     0.131 C 
HETATM    6  C   UNL     1       5.236  25.478  51.211  1.00  0.00     0.061 C 
HETATM    7  C   UNL     1       5.792  25.524  52.603  1.00  0.00    -0.019 A 
HETATM    8  C   UNL     1       5.474  26.544  53.489  1.00  0.00     0.044 A 
HETATM    9  N   UNL     1       6.114  26.286  54.670  1.00  0.00    -0.356 N 
HETATM   10  H   UNL     1       6.043  26.840  55.513  1.00  0.00     0.166 HD
HETATM   11  C   UNL     1       6.928  25.179  54.529  1.00  0.00     0.043 A 
HETATM   12  C   UNL     1       6.730  24.672  53.242  1.00  0.00    -0.001 A 
HETATM   13  C   UNL     1       7.816  24.594  55.439  1.00  0.00     0.030 A 
HETATM   14  C   UNL     1       8.518  23.457  55.021  1.00  0.00     0.002 A 
HETATM   15  C   UNL     1       8.333  22.926  53.747  1.00  0.00     0.001 A 
HETATM   16  C   UNL     1       7.441  23.521  52.848  1.00  0.00     0.014 A 
ENDROOT
BRANCH   1  17
HETATM   17  C   UNL     1       4.521  28.930  54.039  1.00  0.00    -0.029 A 
HETATM   18  C   UNL     1       5.451  29.183  55.056  1.00  0.00     0.012 A 
HETATM   19  C   UNL     1       5.388  30.355  55.820  1.00  0.00     0.038 A 
HETATM   20  C   UNL     1       4.401  31.310  55.571  1.00  0.00     0.074 A 
HETATM   21  C   UNL     1       3.493  31.111  54.522  1.00  0.00    -0.028 A 
HETATM   22  C   UNL     1       2.480  32.163  54.169  1.00  0.00     0.051 C 
HETATM   23  C   UNL     1       3.561  29.926  53.771  1.00  0.00     0.019 A 
BRANCH  20  24
HETATM   24  O   UNL     1       4.283  32.490  56.261  1.00  0.00    -0.355 OA
HETATM   25  C   UNL     1       4.285  32.377  57.679  1.00  0.00     0.210 C 
ENDBRANCH  20  24
ENDBRANCH   1  17
BRANCH   3  26
HETATM   26  C   UNL     1       5.757  28.622  49.648  1.00  0.00     0.108 C 
BRANCH  26  27
HETATM   27  C   UNL     1       4.678  29.384  48.867  1.00  0.00     0.051 C 
BRANCH  27  28
HETATM   28  C   UNL     1       3.763  28.485  48.095  1.00  0.00    -0.021 A 
HETATM   29  C   UNL     1       2.423  28.654  47.806  1.00  0.00     0.120 A 
HETATM   30  N   UNL     1       2.041  27.570  47.072  1.00  0.00    -0.285 N 
HETATM   31  C   UNL     1       0.731  27.310  46.531  1.00  0.00     0.179 C 
HETATM   32  N   UNL     1       3.036  26.689  46.869  1.00  0.00    -0.185 NA
HETATM   33  C   UNL     1       4.076  27.238  47.503  1.00  0.00     0.147 A 
ENDBRANCH  27  28
ENDBRANCH  26  27
ENDBRANCH   3  26
TORSDOF 5
ENDMDL
MODEL 7
REMARK VINA RESULT:      -8.0      4.673      7.538
REMARK  5 active torsions:
REMARK  status: ('A' for Active; 'I' for Inactive)
REMARK    1  A    between atoms: C_3  and  O_4 
REMARK    2  A    between atoms: C_8  and  C_9 
REMARK       I    between atoms: N_10  and  C_11 
REMARK    3  A    between atoms: C_11  and  C_12 
REMARK    4  A    between atoms: C_12  and  C_13 
REMARK    5  A    between atoms: C_13  and  C_14 
ROOT
HETATM    1  C   UNL     1       3.883  29.272  51.324  1.00  0.00     0.171 C 
HETATM    2  N   UNL     1       4.368  30.660  51.117  1.00  0.00    -0.338 N 
HETATM    3  C   UNL     1       5.517  30.862  50.341  1.00  0.00     0.221 C 
HETATM    4  O   UNL     1       6.299  29.957  50.048  1.00  0.00    -0.273 OA
HETATM    5  C   UNL     1       3.252  31.629  51.073  1.00  0.00     0.131 C 
HETATM    6  C   UNL     1       2.394  31.434  49.796  1.00  0.00     0.061 C 
HETATM    7  C   UNL     1       2.260  29.977  49.467  1.00  0.00    -0.019 A 
HETATM    8  C   UNL     1       2.963  28.999  50.157  1.00  0.00     0.044 A 
HETATM    9  N   UNL     1       2.606  27.785  49.640  1.00  0.00    -0.356 N 
HETATM   10  H   UNL     1       2.932  26.885  49.968  1.00  0.00     0.166 HD
HETATM   11  C   UNL     1       1.771  27.965  48.555  1.00  0.00     0.043 A 
HETATM   12  C   UNL     1       1.525  29.336  48.436  1.00  0.00    -0.001 A 
HETATM   13  C   UNL     1       1.219  27.024  47.678  1.00  0.00     0.030 A 
HETATM   14  C   UNL     1       0.391  27.499  46.654  1.00  0.00     0.002 A 
HETATM   15  C   UNL     1       0.122  28.859  46.519  1.00  0.00     0.001 A 
HETATM   16  C   UNL     1       0.681  29.788  47.403  1.00  0.00     0.014 A 
ENDROOT
BRANCH   1  17
HETATM   17  C   UNL     1       4.891  28.223  51.765  1.00  0.00    -0.029 A 
HETATM   18  C   UNL     1       5.118  27.020  51.083  1.00  0.00     0.012 A 
HETATM   19  C   UNL     1       6.050  26.086  51.552  1.00  0.00     0.038 A 
HETATM   20  C   UNL     1       6.789  26.343  52.708  1.00  0.00     0.074 A 
HETATM   21  C   UNL     1       6.624  27.563  53.379  1.00  0.00    -0.028 A 
HETATM   22  C   UNL     1       7.473  27.908  54.570  1.00  0.00     0.051 C 
HETATM   23  C   UNL     1       5.679  28.486  52.902  1.00  0.00     0.019 A 
BRANCH  20  24
HETATM   24  O   UNL     1       7.731  25.489  53.222  1.00  0.00    -0.355 OA
HETATM   25  C   UNL     1       7.939  24.287  52.491  1.00  0.00     0.210 C 
ENDBRANCH  20  24
ENDBRANCH   1  17
BRANCH   3  26
HETATM   26  C   UNL     1       5.837  32.290  49.903  1.00  0.00     0.108 C 
BRANCH  26  27
HETATM   27  C   UNL     1       5.811  32.450  48.378  1.00  0.00     0.051 C 
BRANCH  27  28
HETATM   28  C   UNL     1       6.594  33.632  47.895  1.00  0.00    -0.021 A 
HETATM   29  C   UNL     1       7.043  33.911  46.618  1.00  0.00     0.120 A 
HETATM   30  N   UNL     1       7.698  35.104  46.687  1.00  0.00    -0.285 N 
HETATM   31  C   UNL     1       8.328  35.808  45.598  1.00  0.00     0.179 C 
HETATM   32  N   UNL     1       7.726  35.626  47.926  1.00  0.00    -0.185 NA
HETATM   33  C   UNL     1       7.069  34.724  48.661  1.00  0.00     0.147 A 
ENDBRANCH  27  28
ENDBRANCH  26  27
ENDBRANCH   3  26
TORSDOF 5
ENDMDL
MODEL 8
REMARK VINA RESULT:      -7.6      4.625      9.699
REMARK  5 active torsions:
REMARK  status: ('A' for Active; 'I' for Inactive)
REMARK    1  A    between atoms: C_3  and  O_4 
REMARK    2  A    between atoms: C_8  and  C_9 
REMARK       I    between atoms: N_10  and  C_11 
REMARK    3  A    between atoms: C_11  and  C_12 
REMARK    4  A    between atoms: C_12  and  C_13 
REMARK    5  A    between atoms: C_13  and  C_14 
ROOT
HETATM    1  C   UNL     1       5.442  28.623  49.848  1.00  0.00     0.171 C 
HETATM    2  N   UNL     1       4.476  28.059  48.871  1.00  0.00    -0.338 N 
HETATM    3  C   UNL     1       3.119  28.008  49.218  1.00  0.00     0.221 C 
HETATM    4  O   UNL     1       2.715  28.146  50.373  1.00  0.00    -0.273 OA
HETATM    5  C   UNL     1       4.884  28.335  47.477  1.00  0.00     0.131 C 
HETATM    6  C   UNL     1       4.769  29.847  47.150  1.00  0.00     0.061 C 
HETATM    7  C   UNL     1       5.182  30.675  48.331  1.00  0.00    -0.019 A 
HETATM    8  C   UNL     1       5.466  30.106  49.565  1.00  0.00     0.044 A 
HETATM    9  N   UNL     1       5.833  31.113  50.414  1.00  0.00    -0.356 N 
HETATM   10  H   UNL     1       6.128  30.997  51.375  1.00  0.00     0.166 HD
HETATM   11  C   UNL     1       5.685  32.333  49.785  1.00  0.00     0.043 A 
HETATM   12  C   UNL     1       5.292  32.083  48.467  1.00  0.00    -0.001 A 
HETATM   13  C   UNL     1       5.869  33.630  50.280  1.00  0.00     0.030 A 
HETATM   14  C   UNL     1       5.649  34.697  49.402  1.00  0.00     0.002 A 
HETATM   15  C   UNL     1       5.266  34.475  48.082  1.00  0.00     0.001 A 
HETATM   16  C   UNL     1       5.086  33.174  47.600  1.00  0.00     0.014 A 
ENDROOT
BRANCH   1  17
HETATM   17  C   UNL     1       5.382  28.117  51.280  1.00  0.00    -0.029 A 
HETATM   18  C   UNL     1       5.098  28.930  52.386  1.00  0.00     0.012 A 
HETATM   19  C   UNL     1       5.076  28.406  53.684  1.00  0.00     0.038 A 
HETATM   20  C   UNL     1       5.323  27.050  53.904  1.00  0.00     0.074 A 
HETATM   21  C   UNL     1       5.554  26.202  52.812  1.00  0.00    -0.028 A 
HETATM   22  C   UNL     1       5.729  24.722  53.008  1.00  0.00     0.051 C 
HETATM   23  C   UNL     1       5.583  26.743  51.516  1.00  0.00     0.019 A 
BRANCH  20  24
HETATM   24  O   UNL     1       5.303  26.456  55.140  1.00  0.00    -0.355 OA
HETATM   25  C   UNL     1       5.077  27.330  56.240  1.00  0.00     0.210 C 
ENDBRANCH  20  24
ENDBRANCH   1  17
BRANCH   3  26
HETATM   26  C   UNL     1       2.113  27.697  48.112  1.00  0.00     0.108 C 
BRANCH  26  27
HETATM   27  C   UNL     1       1.236  28.907  47.767  1.00  0.00     0.051 C 
BRANCH  27  28
HETATM   28  C   UNL     1       0.359  28.680  46.574  1.00  0.00    -0.021 A 
HETATM   29  C   UNL     1      -0.295  29.610  45.790  1.00  0.00     0.120 A 
HETATM   30  N   UNL     1      -0.957  28.911  44.825  1.00  0.00    -0.285 N 
HETATM   31  C   UNL     1      -1.770  29.456  43.767  1.00  0.00     0.179 C 
HETATM   32  N   UNL     1      -0.797  27.580  44.928  1.00  0.00    -0.185 NA
HETATM   33  C   UNL     1      -0.010  27.441  45.999  1.00  0.00     0.147 A 
ENDBRANCH  27  28
ENDBRANCH  26  27
ENDBRANCH   3  26
TORSDOF 5
ENDMDL
