MODEL 1
REMARK VINA RESULT:     -10.1      0.000      0.000
REMARK  6 active torsions:
REMARK  status: ('A' for Active; 'I' for Inactive)
REMARK    1  A    between atoms: O_2  and  C_3 
REMARK    2  A    between atoms: C_5  and  C_6 
REMARK    3  A    between atoms: C_12  and  C_13 
REMARK       I    between atoms: C_13  and  N_14 
REMARK    4  A    between atoms: N_14  and  C_15 
REMARK    5  A    between atoms: C_17  and  O_18 
REMARK    6  A    between atoms: C_23  and  C_24 
ROOT
HETATM    1  C   UNL     1       6.722  24.036  55.146  1.00  0.00     0.118 C 
HETATM    2  N   UNL     1       7.349  25.248  55.697  1.00  0.00    -0.365 N 
HETATM    3  C   UNL     1       6.808  26.441  55.316  1.00  0.00     0.138 C 
HETATM    4  N   UNL     1       6.053  26.534  54.166  1.00  0.00    -0.240 N 
HETATM    5  N   UNL     1       5.408  27.704  54.047  1.00  0.00    -0.181 NA
HETATM    6  C   UNL     1       5.890  28.427  55.062  1.00  0.00     0.160 C 
HETATM    7  C   UNL     1       6.801  27.706  55.872  1.00  0.00     0.096 C 
HETATM    8  C   UNL     1       5.754  25.423  53.278  1.00  0.00     0.221 C 
HETATM    9  C   UNL     1       6.608  24.190  53.626  1.00  0.00     0.066 C 
HETATM   10  H   UNL     1       7.591  25.126  56.683  1.00  0.00     0.161 HD
ENDROOT
BRANCH   7  11
HETATM   11  C   UNL     1       7.492  28.220  57.040  1.00  0.00     0.261 C 
HETATM   12  N   UNL     1       7.564  29.601  57.076  1.00  0.00    -0.323 N 
HETATM   13  H   UNL     1       7.062  30.084  56.340  1.00  0.00     0.169 HD
HETATM   14  O   UNL     1       7.898  27.454  57.907  1.00  0.00    -0.267 OA
BRANCH  12  15
HETATM   15  C   UNL     1       8.121  30.400  58.097  1.00  0.00     0.037 A 
HETATM   16  C   UNL     1       7.389  30.905  59.175  1.00  0.00     0.066 A 
HETATM   17  C   UNL     1       8.019  31.702  60.131  1.00  0.00     0.067 A 
HETATM   18  C   UNL     1       9.370  32.006  60.033  1.00  0.00     0.036 A 
HETATM   19  C   UNL     1      10.108  31.501  58.967  1.00  0.00     0.005 A 
HETATM   20  C   UNL     1       9.488  30.697  58.006  1.00  0.00     0.029 A 
BRANCH  17  21
HETATM   21  O   UNL     1       7.329  32.210  61.193  1.00  0.00    -0.361 OA
HETATM   22  H   UNL     1       7.315  33.179  61.115  1.00  0.00     0.217 HD
ENDBRANCH  17  21
ENDBRANCH  12  15
ENDBRANCH   7  11
BRANCH   1  23
HETATM   23  C   UNL     1       7.512  22.804  55.532  1.00  0.00    -0.033 A 
HETATM   24  C   UNL     1       7.862  21.825  54.588  1.00  0.00     0.046 A 
HETATM   25  C   UNL     1       8.542  20.662  54.965  1.00  0.00     0.068 A 
HETATM   26  C   UNL     1       8.894  20.478  56.301  1.00  0.00     0.037 A 
HETATM   27  C   UNL     1       8.565  21.447  57.251  1.00  0.00     0.003 A 
HETATM   28  C   UNL     1       7.878  22.600  56.871  1.00  0.00     0.009 A 
BRANCH  25  29
HETATM   29  O   UNL     1       8.799  19.791  53.941  1.00  0.00    -0.356 OA
HETATM   30  C   UNL     1       8.513  20.250  52.624  1.00  0.00     0.210 C 
ENDBRANCH  25  29
ENDBRANCH   1  23
BRANCH   8  31
HETATM   31  C   UNL     1       5.973  25.800  51.829  1.00  0.00     0.409 C 
HETATM   32  F   UNL     1       6.241  27.116  51.675  1.00  0.00    -0.169 F 
HETATM   33  F   UNL     1       7.050  25.125  51.342  1.00  0.00    -0.169 F 
HETATM   34  F   UNL     1       4.938  25.482  51.025  1.00  0.00    -0.169 F 
ENDBRANCH   8  31
TORSDOF 6
ENDMDL
MODEL 2
REMARK VINA RESULT:     -10.1      4.071      7.681
REMARK  6 active torsions:
REMARK  status: ('A' for Active; 'I' for Inactive)
REMARK    1  A    between atoms: O_2  and  C_3 
REMARK    2  A    between atoms: C_5  and  C_6 
REMARK    3  A    between atoms: C_12  and  C_13 
REMARK       I    between atoms: C_13  and  N_14 
REMARK    4  A    between atoms: N_14  and  C_15 
REMARK    5  A    between atoms: C_17  and  O_18 
REMARK    6  A    between atoms: C_23  and  C_24 
ROOT
HETATM    1  C   UNL     1       7.788  24.485  53.917  1.00  0.00     0.118 C 
HETATM    2  N   UNL     1       6.572  24.804  53.152  1.00  0.00    -0.365 N 
HETATM    3  C   UNL     1       6.233  26.123  53.069  1.00  0.00     0.138 C 
HETATM    4  N   UNL     1       6.705  27.028  53.996  1.00  0.00    -0.240 N 
HETATM    5  N   UNL     1       6.474  28.305  53.656  1.00  0.00    -0.181 NA
HETATM    6  C   UNL     1       5.701  28.201  52.572  1.00  0.00     0.160 C 
HETATM    7  C   UNL     1       5.480  26.860  52.175  1.00  0.00     0.096 C 
HETATM    8  C   UNL     1       7.584  26.698  55.105  1.00  0.00     0.221 C 
HETATM    9  C   UNL     1       7.702  25.173  55.283  1.00  0.00     0.066 C 
HETATM   10  H   UNL     1       6.510  24.240  52.301  1.00  0.00     0.161 HD
ENDROOT
BRANCH   7  11
HETATM   11  C   UNL     1       4.680  26.427  51.044  1.00  0.00     0.261 C 
HETATM   12  N   UNL     1       4.058  27.467  50.377  1.00  0.00    -0.323 N 
HETATM   13  H   UNL     1       4.296  28.398  50.701  1.00  0.00     0.169 HD
HETATM   14  O   UNL     1       4.649  25.244  50.723  1.00  0.00    -0.267 OA
BRANCH  12  15
HETATM   15  C   UNL     1       3.262  27.381  49.216  1.00  0.00     0.037 A 
HETATM   16  C   UNL     1       3.418  26.397  48.236  1.00  0.00     0.066 A 
HETATM   17  C   UNL     1       2.595  26.399  47.111  1.00  0.00     0.067 A 
HETATM   18  C   UNL     1       1.614  27.367  46.941  1.00  0.00     0.036 A 
HETATM   19  C   UNL     1       1.446  28.346  47.915  1.00  0.00     0.005 A 
HETATM   20  C   UNL     1       2.262  28.351  49.050  1.00  0.00     0.029 A 
BRANCH  17  21
HETATM   21  O   UNL     1       2.726  25.451  46.137  1.00  0.00    -0.361 OA
HETATM   22  H   UNL     1       3.531  24.936  46.317  1.00  0.00     0.217 HD
ENDBRANCH  17  21
ENDBRANCH  12  15
ENDBRANCH   7  11
BRANCH   1  23
HETATM   23  C   UNL     1       7.957  22.986  54.049  1.00  0.00    -0.033 A 
HETATM   24  C   UNL     1       8.171  22.373  55.295  1.00  0.00     0.046 A 
HETATM   25  C   UNL     1       8.384  20.994  55.399  1.00  0.00     0.068 A 
HETATM   26  C   UNL     1       8.368  20.211  54.247  1.00  0.00     0.037 A 
HETATM   27  C   UNL     1       8.145  20.802  53.001  1.00  0.00     0.003 A 
HETATM   28  C   UNL     1       7.943  22.179  52.902  1.00  0.00     0.009 A 
BRANCH  25  29
HETATM   29  O   UNL     1       8.596  20.543  56.673  1.00  0.00    -0.356 OA
HETATM   30  C   UNL     1       8.349  21.466  57.729  1.00  0.00     0.210 C 
ENDBRANCH  25  29
ENDBRANCH   1  23
BRANCH   8  31
HETATM   31  C   UNL     1       7.104  27.325  56.396  1.00  0.00     0.409 C 
HETATM   32  F   UNL     1       5.756  27.318  56.500  1.00  0.00    -0.169 F 
HETATM   33  F   UNL     1       7.578  26.608  57.452  1.00  0.00    -0.169 F 
HETATM   34  F   UNL     1       7.536  28.589  56.578  1.00  0.00    -0.169 F 
ENDBRANCH   8  31
TORSDOF 6
ENDMDL
MODEL 3
REMARK VINA RESULT:      -9.8      1.742      2.527
REMARK  6 active torsions:
REMARK  status: ('A' for Active; 'I' for Inactive)
REMARK    1  A    between atoms: O_2  and  C_3 
REMARK    2  A    between atoms: C_5  and  C_6 
REMARK    3  A    between atoms: C_12  and  C_13 
REMARK       I    between atoms: C_13  and  N_14 
REMARK    4  A    between atoms: N_14  and  C_15 
REMARK    5  A    between atoms: C_17  and  O_18 
REMARK    6  A    between atoms: C_23  and  C_24 
ROOT
HETATM    1  C   UNL     1       5.867  25.741  54.867  1.00  0.00     0.118 C 
HETATM    2  N   UNL     1       6.600  26.793  55.588  1.00  0.00    -0.365 N 
HETATM    3  C   UNL     1       5.935  27.966  55.796  1.00  0.00     0.138 C 
HETATM    4  N   UNL     1       4.860  28.312  55.006  1.00  0.00    -0.240 N 
HETATM    5  N   UNL     1       4.178  29.370  55.471  1.00  0.00    -0.181 NA
HETATM    6  C   UNL     1       4.930  29.799  56.489  1.00  0.00     0.160 C 
HETATM    7  C   UNL     1       6.066  28.986  56.721  1.00  0.00     0.096 C 
HETATM    8  C   UNL     1       4.332  27.502  53.922  1.00  0.00     0.221 C 
HETATM    9  C   UNL     1       5.285  26.342  53.583  1.00  0.00     0.066 C 
HETATM   10  H   UNL     1       7.139  26.405  56.366  1.00  0.00     0.161 HD
ENDROOT
BRANCH   7  11
HETATM   11  C   UNL     1       7.070  29.197  57.747  1.00  0.00     0.261 C 
HETATM   12  N   UNL     1       7.095  30.490  58.237  1.00  0.00    -0.323 N 
HETATM   13  H   UNL     1       6.367  31.104  57.887  1.00  0.00     0.169 HD
HETATM   14  O   UNL     1       7.759  28.263  58.142  1.00  0.00    -0.267 OA
BRANCH  12  15
HETATM   15  C   UNL     1       7.913  30.997  59.269  1.00  0.00     0.037 A 
HETATM   16  C   UNL     1       7.480  31.180  60.584  1.00  0.00     0.066 A 
HETATM   17  C   UNL     1       8.354  31.702  61.538  1.00  0.00     0.067 A 
HETATM   18  C   UNL     1       9.657  32.047  61.203  1.00  0.00     0.036 A 
HETATM   19  C   UNL     1      10.099  31.861  59.897  1.00  0.00     0.005 A 
HETATM   20  C   UNL     1       9.232  31.333  58.935  1.00  0.00     0.029 A 
BRANCH  17  21
HETATM   21  O   UNL     1       7.959  31.893  62.830  1.00  0.00    -0.361 OA
HETATM   22  H   UNL     1       8.736  32.154  63.354  1.00  0.00     0.217 HD
ENDBRANCH  17  21
ENDBRANCH  12  15
ENDBRANCH   7  11
BRANCH   1  23
HETATM   23  C   UNL     1       6.772  24.562  54.580  1.00  0.00    -0.033 A 
HETATM   24  C   UNL     1       7.313  23.777  55.612  1.00  0.00     0.046 A 
HETATM   25  C   UNL     1       8.193  22.724  55.340  1.00  0.00     0.068 A 
HETATM   26  C   UNL     1       8.529  22.439  54.017  1.00  0.00     0.037 A 
HETATM   27  C   UNL     1       7.991  23.201  52.978  1.00  0.00     0.003 A 
HETATM   28  C   UNL     1       7.121  24.255  53.257  1.00  0.00     0.009 A 
BRANCH  25  29
HETATM   29  O   UNL     1       8.653  22.062  56.445  1.00  0.00    -0.356 OA
HETATM   30  C   UNL     1       8.504  20.647  56.452  1.00  0.00     0.210 C 
ENDBRANCH  25  29
ENDBRANCH   1  23
BRANCH   8  31
HETATM   31  C   UNL     1       4.082  28.333  52.682  1.00  0.00     0.409 C 
HETATM   32  F   UNL     1       4.944  29.368  52.575  1.00  0.00    -0.169 F 
HETATM   33  F   UNL     1       4.262  27.562  51.575  1.00  0.00    -0.169 F 
HETATM   34  F   UNL     1       2.827  28.818  52.599  1.00  0.00    -0.169 F 
ENDBRANCH   8  31
TORSDOF 6
ENDMDL
MODEL 4
REMARK VINA RESULT:      -9.8      3.910      7.345
REMARK  6 active torsions:
REMARK  status: ('A' for Active; 'I' for Inactive)
REMARK    1  A    between atoms: O_2  and  C_3 
REMARK    2  A    between atoms: C_5  and  C_6 
REMARK    3  A    between atoms: C_12  and  C_13 
REMARK       I    between atoms: C_13  and  N_14 
REMARK    4  A    between atoms: N_14  and  C_15 
REMARK    5  A    between atoms: C_17  and  O_18 
REMARK    6  A    between atoms: C_23  and  C_24 
ROOT
HETATM    1  C   UNL     1       7.851  24.776  55.092  1.00  0.00     0.118 C 
HETATM    2  N   UNL     1       6.714  24.979  54.182  1.00  0.00    -0.365 N 
HETATM    3  C   UNL     1       6.386  26.272  53.895  1.00  0.00     0.138 C 
HETATM    4  N   UNL     1       6.771  27.296  54.734  1.00  0.00    -0.240 N 
HETATM    5  N   UNL     1       6.575  28.515  54.209  1.00  0.00    -0.181 NA
HETATM    6  C   UNL     1       5.907  28.261  53.080  1.00  0.00     0.160 C 
HETATM    7  C   UNL     1       5.722  26.877  52.844  1.00  0.00     0.096 C 
HETATM    8  C   UNL     1       7.540  27.123  55.954  1.00  0.00     0.221 C 
HETATM    9  C   UNL     1       7.639  25.637  56.342  1.00  0.00     0.066 C 
HETATM   10  H   UNL     1       6.730  24.308  53.410  1.00  0.00     0.161 HD
ENDROOT
BRANCH   7  11
HETATM   11  C   UNL     1       5.031  26.291  51.710  1.00  0.00     0.261 C 
HETATM   12  N   UNL     1       4.669  27.215  50.747  1.00  0.00    -0.323 N 
HETATM   13  H   UNL     1       4.996  28.162  50.905  1.00  0.00     0.169 HD
HETATM   14  O   UNL     1       4.869  25.078  51.643  1.00  0.00    -0.267 OA
BRANCH  12  15
HETATM   15  C   UNL     1       4.038  26.957  49.512  1.00  0.00     0.037 A 
HETATM   16  C   UNL     1       3.821  25.675  49.002  1.00  0.00     0.066 A 
HETATM   17  C   UNL     1       3.202  25.515  47.762  1.00  0.00     0.067 A 
HETATM   18  C   UNL     1       2.793  26.613  47.018  1.00  0.00     0.036 A 
HETATM   19  C   UNL     1       2.997  27.894  47.522  1.00  0.00     0.005 A 
HETATM   20  C   UNL     1       3.612  28.066  48.766  1.00  0.00     0.029 A 
BRANCH  17  21
HETATM   21  O   UNL     1       2.980  24.274  47.238  1.00  0.00    -0.361 OA
HETATM   22  H   UNL     1       3.318  23.611  47.864  1.00  0.00     0.217 HD
ENDBRANCH  17  21
ENDBRANCH  12  15
ENDBRANCH   7  11
BRANCH   1  23
HETATM   23  C   UNL     1       8.005  23.310  55.435  1.00  0.00    -0.033 A 
HETATM   24  C   UNL     1       7.859  22.304  54.465  1.00  0.00     0.046 A 
HETATM   25  C   UNL     1       7.945  20.949  54.803  1.00  0.00     0.068 A 
HETATM   26  C   UNL     1       8.198  20.590  56.126  1.00  0.00     0.037 A 
HETATM   27  C   UNL     1       8.358  21.577  57.101  1.00  0.00     0.003 A 
HETATM   28  C   UNL     1       8.261  22.925  56.760  1.00  0.00     0.009 A 
BRANCH  25  29
HETATM   29  O   UNL     1       7.764  20.086  53.757  1.00  0.00    -0.356 OA
HETATM   30  C   UNL     1       8.513  20.345  52.576  1.00  0.00     0.210 C 
ENDBRANCH  25  29
ENDBRANCH   1  23
BRANCH   8  31
HETATM   31  C   UNL     1       6.943  27.909  57.101  1.00  0.00     0.409 C 
HETATM   32  F   UNL     1       5.595  27.813  57.141  1.00  0.00    -0.169 F 
HETATM   33  F   UNL     1       7.402  27.410  58.281  1.00  0.00    -0.169 F 
HETATM   34  F   UNL     1       7.274  29.216  57.093  1.00  0.00    -0.169 F 
ENDBRANCH   8  31
TORSDOF 6
ENDMDL
MODEL 5
REMARK VINA RESULT:      -9.7      4.145      8.304
REMARK  6 active torsions:
REMARK  status: ('A' for Active; 'I' for Inactive)
REMARK    1  A    between atoms: O_2  and  C_3 
REMARK    2  A    between atoms: C_5  and  C_6 
REMARK    3  A    between atoms: C_12  and  C_13 
REMARK       I    between atoms: C_13  and  N_14 
REMARK    4  A    between atoms: N_14  and  C_15 
REMARK    5  A    between atoms: C_17  and  O_18 
REMARK    6  A    between atoms: C_23  and  C_24 
ROOT
HETATM    1  C   UNL     1       4.452  27.871  51.916  1.00  0.00     0.118 C 
HETATM    2  N   UNL     1       5.591  27.104  52.442  1.00  0.00    -0.365 N 
HETATM    3  C   UNL     1       5.648  26.949  53.797  1.00  0.00     0.138 C 
HETATM    4  N   UNL     1       4.974  27.815  54.630  1.00  0.00    -0.240 N 
HETATM    5  N   UNL     1       4.939  27.405  55.907  1.00  0.00    -0.181 NA
HETATM    6  C   UNL     1       5.743  26.338  55.910  1.00  0.00     0.160 C 
HETATM    7  C   UNL     1       6.251  26.022  54.627  1.00  0.00     0.096 C 
HETATM    8  C   UNL     1       4.157  28.931  54.182  1.00  0.00     0.221 C 
HETATM    9  C   UNL     1       4.357  29.196  52.679  1.00  0.00     0.066 C 
HETATM   10  H   UNL     1       5.792  26.287  51.859  1.00  0.00     0.161 HD
ENDROOT
BRANCH   7  11
HETATM   11  C   UNL     1       7.151  24.928  54.312  1.00  0.00     0.261 C 
HETATM   12  N   UNL     1       6.891  23.775  55.030  1.00  0.00    -0.323 N 
HETATM   13  H   UNL     1       6.065  23.804  55.619  1.00  0.00     0.169 HD
HETATM   14  O   UNL     1       8.002  25.057  53.439  1.00  0.00    -0.267 OA
BRANCH  12  15
HETATM   15  C   UNL     1       7.547  22.532  54.916  1.00  0.00     0.037 A 
HETATM   16  C   UNL     1       7.649  21.813  53.723  1.00  0.00     0.066 A 
HETATM   17  C   UNL     1       8.304  20.581  53.706  1.00  0.00     0.067 A 
HETATM   18  C   UNL     1       8.863  20.051  54.861  1.00  0.00     0.036 A 
HETATM   19  C   UNL     1       8.774  20.764  56.053  1.00  0.00     0.005 A 
HETATM   20  C   UNL     1       8.124  22.002  56.079  1.00  0.00     0.029 A 
BRANCH  17  21
HETATM   21  O   UNL     1       8.417  19.856  52.555  1.00  0.00    -0.361 OA
HETATM   22  H   UNL     1       8.745  20.442  51.853  1.00  0.00     0.217 HD
ENDBRANCH  17  21
ENDBRANCH  12  15
ENDBRANCH   7  11
BRANCH   1  23
HETATM   23  C   UNL     1       4.598  28.087  50.424  1.00  0.00    -0.033 A 
HETATM   24  C   UNL     1       4.386  27.048  49.502  1.00  0.00     0.046 A 
HETATM   25  C   UNL     1       4.580  27.243  48.131  1.00  0.00     0.068 A 
HETATM   26  C   UNL     1       4.975  28.496  47.667  1.00  0.00     0.037 A 
HETATM   27  C   UNL     1       5.179  29.543  48.569  1.00  0.00     0.003 A 
HETATM   28  C   UNL     1       4.994  29.341  49.936  1.00  0.00     0.009 A 
BRANCH  25  29
HETATM   29  O   UNL     1       4.353  26.136  47.358  1.00  0.00    -0.356 OA
HETATM   30  C   UNL     1       3.246  25.319  47.720  1.00  0.00     0.210 C 
ENDBRANCH  25  29
ENDBRANCH   1  23
BRANCH   8  31
HETATM   31  C   UNL     1       4.463  30.189  54.965  1.00  0.00     0.409 C 
HETATM   32  F   UNL     1       4.286  31.308  54.228  1.00  0.00    -0.169 F 
HETATM   33  F   UNL     1       3.612  30.283  56.023  1.00  0.00    -0.169 F 
HETATM   34  F   UNL     1       5.708  30.216  55.483  1.00  0.00    -0.169 F 
ENDBRANCH   8  31
TORSDOF 6
ENDMDL
MODEL 6
REMARK VINA RESULT:      -9.5      1.507      2.378
REMARK  6 active torsions:
REMARK  status: ('A' for Active; 'I' for Inactive)
REMARK    1  A    between atoms: O_2  and  C_3 
REMARK    2  A    between atoms: C_5  and  C_6 
REMARK    3  A    between atoms: C_12  and  C_13 
REMARK       I    between atoms: C_13  and  N_14 
REMARK    4  A    between atoms: N_14  and  C_15 
REMARK    5  A    between atoms: C_17  and  O_18 
REMARK    6  A    between atoms: C_23  and  C_24 
ROOT
HETATM    1  C   UNL     1       5.929  24.898  53.884  1.00  0.00     0.118 C 
HETATM    2  N   UNL     1       6.394  26.015  54.722  1.00  0.00    -0.365 N 
HETATM    3  C   UNL     1       5.693  27.181  54.625  1.00  0.00     0.138 C 
HETATM    4  N   UNL     1       4.921  27.446  53.515  1.00  0.00    -0.240 N 
HETATM    5  N   UNL     1       4.123  28.514  53.665  1.00  0.00    -0.181 NA
HETATM    6  C   UNL     1       4.514  29.030  54.833  1.00  0.00     0.160 C 
HETATM    7  C   UNL     1       5.522  28.264  55.468  1.00  0.00     0.096 C 
HETATM    8  C   UNL     1       4.764  26.551  52.381  1.00  0.00     0.221 C 
HETATM    9  C   UNL     1       5.779  25.395  52.443  1.00  0.00     0.066 C 
HETATM   10  H   UNL     1       6.661  25.694  55.655  1.00  0.00     0.161 HD
ENDROOT
BRANCH   7  11
HETATM   11  C   UNL     1       6.152  28.570  56.739  1.00  0.00     0.261 C 
HETATM   12  N   UNL     1       6.270  29.926  56.984  1.00  0.00    -0.323 N 
HETATM   13  H   UNL     1       5.837  30.534  56.297  1.00  0.00     0.169 HD
HETATM   14  O   UNL     1       6.470  27.669  57.506  1.00  0.00    -0.267 OA
BRANCH  12  15
HETATM   15  C   UNL     1       6.785  30.542  58.144  1.00  0.00     0.037 A 
HETATM   16  C   UNL     1       7.891  30.066  58.852  1.00  0.00     0.066 A 
HETATM   17  C   UNL     1       8.321  30.731  60.000  1.00  0.00     0.067 A 
HETATM   18  C   UNL     1       7.667  31.868  60.458  1.00  0.00     0.036 A 
HETATM   19  C   UNL     1       6.570  32.354  59.754  1.00  0.00     0.005 A 
HETATM   20  C   UNL     1       6.133  31.698  58.599  1.00  0.00     0.029 A 
BRANCH  17  21
HETATM   21  O   UNL     1       9.397  30.288  60.713  1.00  0.00    -0.361 OA
HETATM   22  H   UNL     1       9.690  29.442  60.333  1.00  0.00     0.217 HD
ENDBRANCH  17  21
ENDBRANCH  12  15
ENDBRANCH   7  11
BRANCH   1  23
HETATM   23  C   UNL     1       6.882  23.725  53.982  1.00  0.00    -0.033 A 
HETATM   24  C   UNL     1       7.244  23.169  55.220  1.00  0.00     0.046 A 
HETATM   25  C   UNL     1       8.170  22.123  55.303  1.00  0.00     0.068 A 
HETATM   26  C   UNL     1       8.732  21.612  54.134  1.00  0.00     0.037 A 
HETATM   27  C   UNL     1       8.373  22.146  52.894  1.00  0.00     0.003 A 
HETATM   28  C   UNL     1       7.457  23.195  52.818  1.00  0.00     0.009 A 
BRANCH  25  29
HETATM   29  O   UNL     1       8.439  21.697  56.575  1.00  0.00    -0.356 OA
HETATM   30  C   UNL     1       8.971  20.384  56.712  1.00  0.00     0.210 C 
ENDBRANCH  25  29
ENDBRANCH   1  23
BRANCH   8  31
HETATM   31  C   UNL     1       4.914  27.289  51.069  1.00  0.00     0.409 C 
HETATM   32  F   UNL     1       3.770  27.902  50.691  1.00  0.00    -0.169 F 
HETATM   33  F   UNL     1       5.851  28.266  51.203  1.00  0.00    -0.169 F 
HETATM   34  F   UNL     1       5.330  26.508  50.052  1.00  0.00    -0.169 F 
ENDBRANCH   8  31
TORSDOF 6
ENDMDL
MODEL 7
REMARK VINA RESULT:      -9.5      3.709      8.581
REMARK  6 active torsions:
REMARK  status: ('A' for Active; 'I' for Inactive)
REMARK    1  A    between atoms: O_2  and  C_3 
REMARK    2  A    between atoms: C_5  and  C_6 
REMARK    3  A    between atoms: C_12  and  C_13 
REMARK       I    between atoms: C_13  and  N_14 
REMARK    4  A    between atoms: N_14  and  C_15 
REMARK    5  A    between atoms: C_17  and  O_18 
REMARK    6  A    between atoms: C_23  and  C_24 
ROOT
HETATM    1  C   UNL     1       6.441  27.204  56.690  1.00  0.00     0.118 C 
HETATM    2  N   UNL     1       6.318  27.354  55.232  1.00  0.00    -0.365 N 
HETATM    3  C   UNL     1       6.239  26.201  54.505  1.00  0.00     0.138 C 
HETATM    4  N   UNL     1       6.702  25.012  55.025  1.00  0.00    -0.240 N 
HETATM    5  N   UNL     1       6.354  23.942  54.295  1.00  0.00    -0.181 NA
HETATM    6  C   UNL     1       5.796  24.479  53.207  1.00  0.00     0.160 C 
HETATM    7  C   UNL     1       5.728  25.893  53.259  1.00  0.00     0.096 C 
HETATM    8  C   UNL     1       7.288  24.855  56.346  1.00  0.00     0.221 C 
HETATM    9  C   UNL     1       7.581  26.224  56.988  1.00  0.00     0.066 C 
HETATM   10  H   UNL     1       5.681  28.116  54.989  1.00  0.00     0.161 HD
ENDROOT
BRANCH   7  11
HETATM   11  C   UNL     1       5.184  26.758  52.228  1.00  0.00     0.261 C 
HETATM   12  N   UNL     1       5.483  26.343  50.944  1.00  0.00    -0.323 N 
HETATM   13  H   UNL     1       5.968  25.455  50.873  1.00  0.00     0.169 HD
HETATM   14  O   UNL     1       4.482  27.717  52.531  1.00  0.00    -0.267 OA
BRANCH  12  15
HETATM   15  C   UNL     1       5.059  26.934  49.735  1.00  0.00     0.037 A 
HETATM   16  C   UNL     1       4.259  26.285  48.791  1.00  0.00     0.066 A 
HETATM   17  C   UNL     1       3.900  26.941  47.614  1.00  0.00     0.067 A 
HETATM   18  C   UNL     1       4.324  28.238  47.359  1.00  0.00     0.036 A 
HETATM   19  C   UNL     1       5.114  28.896  48.297  1.00  0.00     0.005 A 
HETATM   20  C   UNL     1       5.476  28.249  49.482  1.00  0.00     0.029 A 
BRANCH  17  21
HETATM   21  O   UNL     1       3.121  26.331  46.673  1.00  0.00    -0.361 OA
HETATM   22  H   UNL     1       2.781  25.501  47.047  1.00  0.00     0.217 HD
ENDBRANCH  17  21
ENDBRANCH  12  15
ENDBRANCH   7  11
BRANCH   1  23
HETATM   23  C   UNL     1       6.666  28.549  57.347  1.00  0.00    -0.033 A 
HETATM   24  C   UNL     1       7.800  28.805  58.137  1.00  0.00     0.046 A 
HETATM   25  C   UNL     1       7.970  30.033  58.787  1.00  0.00     0.068 A 
HETATM   26  C   UNL     1       7.005  31.026  58.636  1.00  0.00     0.037 A 
HETATM   27  C   UNL     1       5.878  30.792  57.845  1.00  0.00     0.003 A 
HETATM   28  C   UNL     1       5.708  29.564  57.207  1.00  0.00     0.009 A 
BRANCH  25  29
HETATM   29  O   UNL     1       9.112  30.130  59.535  1.00  0.00    -0.356 OA
HETATM   30  C   UNL     1       8.970  30.632  60.859  1.00  0.00     0.210 C 
ENDBRANCH  25  29
ENDBRANCH   1  23
BRANCH   8  31
HETATM   31  C   UNL     1       8.558  24.036  56.294  1.00  0.00     0.409 C 
HETATM   32  F   UNL     1       9.538  24.558  57.065  1.00  0.00    -0.169 F 
HETATM   33  F   UNL     1       8.312  22.786  56.774  1.00  0.00    -0.169 F 
HETATM   34  F   UNL     1       9.045  23.868  55.048  1.00  0.00    -0.169 F 
ENDBRANCH   8  31
TORSDOF 6
ENDMDL
MODEL 8
REMARK VINA RESULT:      -9.4      2.845      5.145
REMARK  6 active torsions:
REMARK  status: ('A' for Active; 'I' for Inactive)
REMARK    1  A    between atoms: O_2  and  C_3 
REMARK    2  A    between atoms: C_5  and  C_6 
REMARK    3  A    between atoms: C_12  and  C_13 
REMARK       I    between atoms: C_13  and  N_14 
REMARK    4  A    between atoms: N_14  and  C_15 
REMARK    5  A    between atoms: C_17  and  O_18 
REMARK    6  A    between atoms: C_23  and  C_24 
ROOT
HETATM    1  C   UNL     1       7.285  25.637  53.009  1.00  0.00     0.118 C 
HETATM    2  N   UNL     1       7.147  25.966  54.436  1.00  0.00    -0.365 N 
HETATM    3  C   UNL     1       7.903  25.236  55.306  1.00  0.00     0.138 C 
HETATM    4  N   UNL     1       8.392  24.000  54.943  1.00  0.00    -0.240 N 
HETATM    5  N   UNL     1       9.294  23.511  55.807  1.00  0.00    -0.181 NA
HETATM    6  C   UNL     1       9.256  24.383  56.819  1.00  0.00     0.160 C 
HETATM    7  C   UNL     1       8.375  25.466  56.585  1.00  0.00     0.096 C 
HETATM    8  C   UNL     1       8.179  23.370  53.651  1.00  0.00     0.221 C 
HETATM    9  C   UNL     1       7.113  24.124  52.836  1.00  0.00     0.066 C 
HETATM   10  H   UNL     1       7.094  26.977  54.581  1.00  0.00     0.161 HD
ENDROOT
BRANCH   7  11
HETATM   11  C   UNL     1       8.114  26.565  57.496  1.00  0.00     0.261 C 
HETATM   12  N   UNL     1       8.473  27.801  56.989  1.00  0.00    -0.323 N 
HETATM   13  H   UNL     1       8.793  27.802  56.026  1.00  0.00     0.169 HD
HETATM   14  O   UNL     1       7.570  26.360  58.575  1.00  0.00    -0.267 OA
BRANCH  12  15
HETATM   15  C   UNL     1       8.300  29.059  57.603  1.00  0.00     0.037 A 
HETATM   16  C   UNL     1       9.356  29.894  57.977  1.00  0.00     0.066 A 
HETATM   17  C   UNL     1       9.091  31.116  58.594  1.00  0.00     0.067 A 
HETATM   18  C   UNL     1       7.789  31.525  58.846  1.00  0.00     0.036 A 
HETATM   19  C   UNL     1       6.730  30.704  58.470  1.00  0.00     0.005 A 
HETATM   20  C   UNL     1       6.984  29.478  57.846  1.00  0.00     0.029 A 
BRANCH  17  21
HETATM   21  O   UNL     1      10.103  31.951  58.972  1.00  0.00    -0.361 OA
HETATM   22  H   UNL     1       9.929  32.833  58.601  1.00  0.00     0.217 HD
ENDBRANCH  17  21
ENDBRANCH  12  15
ENDBRANCH   7  11
BRANCH   1  23
HETATM   23  C   UNL     1       6.286  26.418  52.182  1.00  0.00    -0.033 A 
HETATM   24  C   UNL     1       5.661  25.858  51.055  1.00  0.00     0.046 A 
HETATM   25  C   UNL     1       4.784  26.607  50.264  1.00  0.00     0.068 A 
HETATM   26  C   UNL     1       4.511  27.929  50.609  1.00  0.00     0.037 A 
HETATM   27  C   UNL     1       5.114  28.498  51.733  1.00  0.00     0.003 A 
HETATM   28  C   UNL     1       5.996  27.750  52.512  1.00  0.00     0.009 A 
BRANCH  25  29
HETATM   29  O   UNL     1       4.267  25.934  49.190  1.00  0.00    -0.356 OA
HETATM   30  C   UNL     1       4.580  26.449  47.901  1.00  0.00     0.210 C 
ENDBRANCH  25  29
ENDBRANCH   1  23
BRANCH   8  31
HETATM   31  C   UNL     1       7.772  21.921  53.803  1.00  0.00     0.409 C 
HETATM   32  F   UNL     1       7.055  21.475  52.748  1.00  0.00    -0.169 F 
HETATM   33  F   UNL     1       8.886  21.141  53.871  1.00  0.00    -0.169 F 
HETATM   34  F   UNL     1       7.071  21.670  54.927  1.00  0.00    -0.169 F 
ENDBRANCH   8  31
TORSDOF 6
ENDMDL
MODEL 9
REMARK VINA RESULT:      -9.4      3.020      8.989
REMARK  6 active torsions:
REMARK  status: ('A' for Active; 'I' for Inactive)
REMARK    1  A    between atoms: O_2  and  C_3 
REMARK    2  A    between atoms: C_5  and  C_6 
REMARK    3  A    between atoms: C_12  and  C_13 
REMARK       I    between atoms: C_13  and  N_14 
REMARK    4  A    between atoms: N_14  and  C_15 
REMARK    5  A    between atoms: C_17  and  O_18 
REMARK    6  A    between atoms: C_23  and  C_24 
ROOT
HETATM    1  C   UNL     1       7.113  30.965  58.410  1.00  0.00     0.118 C 
HETATM    2  N   UNL     1       7.081  29.527  58.099  1.00  0.00    -0.365 N 
HETATM    3  C   UNL     1       6.460  29.169  56.938  1.00  0.00     0.138 C 
HETATM    4  N   UNL     1       5.540  30.008  56.347  1.00  0.00    -0.240 N 
HETATM    5  N   UNL     1       5.189  29.624  55.110  1.00  0.00    -0.181 NA
HETATM    6  C   UNL     1       5.777  28.432  54.978  1.00  0.00     0.160 C 
HETATM    7  C   UNL     1       6.557  28.071  56.104  1.00  0.00     0.096 C 
HETATM    8  C   UNL     1       5.155  31.312  56.861  1.00  0.00     0.221 C 
HETATM    9  C   UNL     1       5.691  31.524  58.288  1.00  0.00     0.066 C 
HETATM   10  H   UNL     1       7.973  29.079  58.321  1.00  0.00     0.161 HD
ENDROOT
BRANCH   7  11
HETATM   11  C   UNL     1       7.307  26.838  56.260  1.00  0.00     0.261 C 
HETATM   12  N   UNL     1       6.915  25.839  55.389  1.00  0.00    -0.323 N 
HETATM   13  H   UNL     1       6.220  26.106  54.701  1.00  0.00     0.169 HD
HETATM   14  O   UNL     1       8.230  26.773  57.064  1.00  0.00    -0.267 OA
BRANCH  12  15
HETATM   15  C   UNL     1       7.480  24.553  55.255  1.00  0.00     0.037 A 
HETATM   16  C   UNL     1       7.646  23.662  56.318  1.00  0.00     0.066 A 
HETATM   17  C   UNL     1       8.230  22.415  56.096  1.00  0.00     0.067 A 
HETATM   18  C   UNL     1       8.653  22.037  54.829  1.00  0.00     0.036 A 
HETATM   19  C   UNL     1       8.484  22.914  53.762  1.00  0.00     0.005 A 
HETATM   20  C   UNL     1       7.895  24.165  53.973  1.00  0.00     0.029 A 
BRANCH  17  21
HETATM   21  O   UNL     1       8.407  21.525  57.116  1.00  0.00    -0.361 OA
HETATM   22  H   UNL     1       8.577  22.024  57.933  1.00  0.00     0.217 HD
ENDBRANCH  17  21
ENDBRANCH  12  15
ENDBRANCH   7  11
BRANCH   1  23
HETATM   23  C   UNL     1       7.697  31.200  59.787  1.00  0.00    -0.033 A 
HETATM   24  C   UNL     1       7.151  32.146  60.670  1.00  0.00     0.046 A 
HETATM   25  C   UNL     1       7.733  32.397  61.917  1.00  0.00     0.068 A 
HETATM   26  C   UNL     1       8.867  31.682  62.298  1.00  0.00     0.037 A 
HETATM   27  C   UNL     1       9.416  30.729  61.438  1.00  0.00     0.003 A 
HETATM   28  C   UNL     1       8.838  30.491  60.191  1.00  0.00     0.009 A 
BRANCH  25  29
HETATM   29  O   UNL     1       7.102  33.357  62.660  1.00  0.00    -0.356 OA
HETATM   30  C   UNL     1       7.257  33.279  64.072  1.00  0.00     0.210 C 
ENDBRANCH  25  29
ENDBRANCH   1  23
BRANCH   8  31
HETATM   31  C   UNL     1       3.653  31.489  56.850  1.00  0.00     0.409 C 
HETATM   32  F   UNL     1       3.000  30.356  57.193  1.00  0.00    -0.169 F 
HETATM   33  F   UNL     1       3.301  32.431  57.767  1.00  0.00    -0.169 F 
HETATM   34  F   UNL     1       3.166  31.916  55.668  1.00  0.00    -0.169 F 
ENDBRANCH   8  31
TORSDOF 6
ENDMDL
MODEL 10
REMARK VINA RESULT:      -9.4      2.792      5.391
REMARK  6 active torsions:
REMARK  status: ('A' for Active; 'I' for Inactive)
REMARK    1  A    between atoms: O_2  and  C_3 
REMARK    2  A    between atoms: C_5  and  C_6 
REMARK    3  A    between atoms: C_12  and  C_13 
REMARK       I    between atoms: C_13  and  N_14 
REMARK    4  A    between atoms: N_14  and  C_15 
REMARK    5  A    between atoms: C_17  and  O_18 
REMARK    6  A    between atoms: C_23  and  C_24 
ROOT
HETATM    1  C   UNL     1       7.374  25.525  53.039  1.00  0.00     0.118 C 
HETATM    2  N   UNL     1       7.218  25.893  54.455  1.00  0.00    -0.365 N 
HETATM    3  C   UNL     1       7.954  25.179  55.355  1.00  0.00     0.138 C 
HETATM    4  N   UNL     1       8.437  23.929  55.031  1.00  0.00    -0.240 N 
HETATM    5  N   UNL     1       9.322  23.455  55.921  1.00  0.00    -0.181 NA
HETATM    6  C   UNL     1       9.277  24.352  56.909  1.00  0.00     0.160 C 
HETATM    7  C   UNL     1       8.410  25.438  56.634  1.00  0.00     0.096 C 
HETATM    8  C   UNL     1       8.237  23.267  53.752  1.00  0.00     0.221 C 
HETATM    9  C   UNL     1       7.190  24.010  52.903  1.00  0.00     0.066 C 
HETATM   10  H   UNL     1       7.173  26.908  54.573  1.00  0.00     0.161 HD
ENDROOT
BRANCH   7  11
HETATM   11  C   UNL     1       8.147  26.562  57.513  1.00  0.00     0.261 C 
HETATM   12  N   UNL     1       8.614  27.768  57.022  1.00  0.00    -0.323 N 
HETATM   13  H   UNL     1       9.004  27.737  56.086  1.00  0.00     0.169 HD
HETATM   14  O   UNL     1       7.512  26.403  58.549  1.00  0.00    -0.267 OA
BRANCH  12  15
HETATM   15  C   UNL     1       8.469  29.042  57.609  1.00  0.00     0.037 A 
HETATM   16  C   UNL     1       9.538  29.902  57.874  1.00  0.00     0.066 A 
HETATM   17  C   UNL     1       9.303  31.139  58.473  1.00  0.00     0.067 A 
HETATM   18  C   UNL     1       8.017  31.539  58.813  1.00  0.00     0.036 A 
HETATM   19  C   UNL     1       6.946  30.693  58.545  1.00  0.00     0.005 A 
HETATM   20  C   UNL     1       7.169  29.452  57.941  1.00  0.00     0.029 A 
BRANCH  17  21
HETATM   21  O   UNL     1      10.327  31.999  58.746  1.00  0.00    -0.361 OA
HETATM   22  H   UNL     1      11.167  31.531  58.601  1.00  0.00     0.217 HD
ENDBRANCH  17  21
ENDBRANCH  12  15
ENDBRANCH   7  11
BRANCH   1  23
HETATM   23  C   UNL     1       6.395  26.293  52.177  1.00  0.00    -0.033 A 
HETATM   24  C   UNL     1       5.991  27.600  52.502  1.00  0.00     0.046 A 
HETATM   25  C   UNL     1       5.042  28.279  51.731  1.00  0.00     0.068 A 
HETATM   26  C   UNL     1       4.498  27.656  50.610  1.00  0.00     0.037 A 
HETATM   27  C   UNL     1       4.897  26.362  50.266  1.00  0.00     0.003 A 
HETATM   28  C   UNL     1       5.836  25.685  51.043  1.00  0.00     0.009 A 
BRANCH  25  29
HETATM   29  O   UNL     1       4.735  29.535  52.179  1.00  0.00    -0.356 OA
HETATM   30  C   UNL     1       4.405  29.660  53.558  1.00  0.00     0.210 C 
ENDBRANCH  25  29
ENDBRANCH   1  23
BRANCH   8  31
HETATM   31  C   UNL     1       7.814  21.827  53.936  1.00  0.00     0.409 C 
HETATM   32  F   UNL     1       7.105  21.361  52.883  1.00  0.00    -0.169 F 
HETATM   33  F   UNL     1       8.919  21.039  54.038  1.00  0.00    -0.169 F 
HETATM   34  F   UNL     1       7.096  21.611  55.057  1.00  0.00    -0.169 F 
ENDBRANCH   8  31
TORSDOF 6
ENDMDL
