MODEL 1
REMARK VINA RESULT:     -10.5      0.000      0.000
REMARK  3 active torsions:
REMARK  status: ('A' for Active; 'I' for Inactive)
REMARK    1  A    between atoms: C_7  and  C_8 
REMARK    2  A    between atoms: N_9  and  N_10 
REMARK       I    between atoms: N_10  and  C_11 
REMARK    3  A    between atoms: C_11  and  C_12 
ROOT
HETATM    1  N   UNL     1       7.116  26.899  56.583  1.00  0.00    -0.242 N 
HETATM    2  C   UNL     1       6.817  28.125  56.017  1.00  0.00     0.292 C 
HETATM    3  O   UNL     1       6.438  28.379  54.885  1.00  0.00    -0.264 OA
HETATM    4  H   UNL     1       7.234  26.871  57.595  1.00  0.00     0.192 HD
ENDROOT
BRANCH   1   5
HETATM    5  N   UNL     1       7.085  25.664  55.986  1.00  0.00    -0.183 NA
HETATM    6  C   UNL     1       7.981  25.347  55.108  1.00  0.00     0.153 C 
BRANCH   6   7
HETATM    7  C   UNL     1       7.949  24.037  54.475  1.00  0.00     0.018 A 
HETATM    8  C   UNL     1       7.772  23.849  53.109  1.00  0.00     0.018 A 
HETATM    9  C   UNL     1       7.572  24.828  52.008  1.00  0.00     0.069 C 
HETATM   10  N   UNL     1       7.801  22.500  52.865  1.00  0.00    -0.358 N 
HETATM   11  H   UNL     1       7.693  22.068  51.958  1.00  0.00     0.166 HD
HETATM   12  C   UNL     1       7.998  21.800  54.031  1.00  0.00     0.043 A 
HETATM   13  C   UNL     1       8.091  22.736  55.062  1.00  0.00     0.004 A 
HETATM   14  C   UNL     1       8.098  20.420  54.241  1.00  0.00     0.030 A 
HETATM   15  C   UNL     1       8.297  22.256  56.374  1.00  0.00     0.014 A 
HETATM   16  C   UNL     1       8.401  20.878  56.603  1.00  0.00     0.001 A 
HETATM   17  C   UNL     1       8.303  19.975  55.550  1.00  0.00     0.002 A 
ENDBRANCH   6   7
ENDBRANCH   1   5
BRANCH   2  18
HETATM   18  C   UNL     1       7.031  29.268  56.995  1.00  0.00     0.157 A 
HETATM   19  N   UNL     1       5.969  29.730  57.592  1.00  0.00    -0.166 NA
HETATM   20  N   UNL     1       6.131  30.760  58.470  1.00  0.00    -0.242 N 
HETATM   21  C   UNL     1       7.321  31.371  58.792  1.00  0.00     0.272 A 
HETATM   22  H   UNL     1       5.289  31.133  58.901  1.00  0.00     0.192 HD
HETATM   23  O   UNL     1       7.385  32.309  59.577  1.00  0.00    -0.266 OA
HETATM   24  C   UNL     1       8.527  30.824  58.146  1.00  0.00     0.046 A 
HETATM   25  C   UNL     1       8.396  29.769  57.246  1.00  0.00     0.016 A 
HETATM   26  C   UNL     1       9.790  31.348  58.448  1.00  0.00     0.018 A 
HETATM   27  C   UNL     1       9.539  29.223  56.650  1.00  0.00     0.015 A 
HETATM   28  C   UNL     1      10.801  29.745  56.951  1.00  0.00     0.001 A 
HETATM   29  C   UNL     1      10.926  30.806  57.847  1.00  0.00     0.001 A 
ENDBRANCH   2  18
TORSDOF 3
ENDMDL
MODEL 2
REMARK VINA RESULT:     -10.1      4.653      8.209
REMARK  3 active torsions:
REMARK  status: ('A' for Active; 'I' for Inactive)
REMARK    1  A    between atoms: C_7  and  C_8 
REMARK    2  A    between atoms: N_9  and  N_10 
REMARK       I    between atoms: N_10  and  C_11 
REMARK    3  A    between atoms: C_11  and  C_12 
ROOT
HETATM    1  N   UNL     1       5.787  25.283  53.412  1.00  0.00    -0.242 N 
HETATM    2  C   UNL     1       7.096  25.403  53.839  1.00  0.00     0.292 C 
HETATM    3  O   UNL     1       7.947  26.208  53.496  1.00  0.00    -0.264 OA
HETATM    4  H   UNL     1       5.178  24.668  53.950  1.00  0.00     0.192 HD
ENDROOT
BRANCH   1   5
HETATM    5  N   UNL     1       5.134  26.034  52.467  1.00  0.00    -0.183 NA
HETATM    6  C   UNL     1       5.544  26.030  51.240  1.00  0.00     0.153 C 
BRANCH   6   7
HETATM    7  C   UNL     1       4.853  26.826  50.239  1.00  0.00     0.018 A 
HETATM    8  C   UNL     1       4.885  28.216  50.206  1.00  0.00     0.018 A 
HETATM    9  C   UNL     1       5.555  29.197  51.101  1.00  0.00     0.069 C 
HETATM   10  N   UNL     1       4.135  28.627  49.134  1.00  0.00    -0.358 N 
HETATM   11  H   UNL     1       3.977  29.589  48.867  1.00  0.00     0.166 HD
HETATM   12  C   UNL     1       3.619  27.548  48.460  1.00  0.00     0.043 A 
HETATM   13  C   UNL     1       4.048  26.400  49.130  1.00  0.00     0.004 A 
HETATM   14  C   UNL     1       2.812  27.507  47.317  1.00  0.00     0.030 A 
HETATM   15  C   UNL     1       3.642  25.147  48.621  1.00  0.00     0.014 A 
HETATM   16  C   UNL     1       2.835  25.088  47.478  1.00  0.00     0.001 A 
HETATM   17  C   UNL     1       2.427  26.252  46.837  1.00  0.00     0.002 A 
ENDBRANCH   6   7
ENDBRANCH   1   5
BRANCH   2  18
HETATM   18  C   UNL     1       7.461  24.338  54.860  1.00  0.00     0.157 A 
HETATM   19  N   UNL     1       7.452  24.705  56.110  1.00  0.00    -0.166 NA
HETATM   20  N   UNL     1       7.780  23.772  57.048  1.00  0.00    -0.242 N 
HETATM   21  C   UNL     1       8.127  22.463  56.803  1.00  0.00     0.272 A 
HETATM   22  H   UNL     1       7.805  24.083  58.016  1.00  0.00     0.192 HD
HETATM   23  O   UNL     1       8.432  21.686  57.700  1.00  0.00    -0.266 OA
HETATM   24  C   UNL     1       8.098  22.038  55.393  1.00  0.00     0.046 A 
HETATM   25  C   UNL     1       7.764  22.966  54.410  1.00  0.00     0.016 A 
HETATM   26  C   UNL     1       8.388  20.712  55.048  1.00  0.00     0.018 A 
HETATM   27  C   UNL     1       7.705  22.564  53.070  1.00  0.00     0.015 A 
HETATM   28  C   UNL     1       7.992  21.240  52.725  1.00  0.00     0.001 A 
HETATM   29  C   UNL     1       8.335  20.316  53.712  1.00  0.00     0.001 A 
ENDBRANCH   2  18
TORSDOF 3
ENDMDL
MODEL 3
REMARK VINA RESULT:     -10.0      2.464      8.648
REMARK  3 active torsions:
REMARK  status: ('A' for Active; 'I' for Inactive)
REMARK    1  A    between atoms: C_7  and  C_8 
REMARK    2  A    between atoms: N_9  and  N_10 
REMARK       I    between atoms: N_10  and  C_11 
REMARK    3  A    between atoms: C_11  and  C_12 
ROOT
HETATM    1  N   UNL     1       7.702  26.837  57.425  1.00  0.00    -0.242 N 
HETATM    2  C   UNL     1       6.831  25.810  57.111  1.00  0.00     0.292 C 
HETATM    3  O   UNL     1       5.651  25.687  57.397  1.00  0.00    -0.264 OA
HETATM    4  H   UNL     1       8.597  26.851  56.938  1.00  0.00     0.192 HD
ENDROOT
BRANCH   1   5
HETATM    5  N   UNL     1       7.449  27.962  58.169  1.00  0.00    -0.183 NA
HETATM    6  C   UNL     1       7.672  29.133  57.667  1.00  0.00     0.153 C 
BRANCH   6   7
HETATM    7  C   UNL     1       7.403  30.326  58.455  1.00  0.00     0.018 A 
HETATM    8  C   UNL     1       6.418  31.253  58.133  1.00  0.00     0.018 A 
HETATM    9  C   UNL     1       5.457  31.301  56.999  1.00  0.00     0.069 C 
HETATM   10  N   UNL     1       6.441  32.237  59.089  1.00  0.00    -0.358 N 
HETATM   11  H   UNL     1       5.835  33.045  59.109  1.00  0.00     0.166 HD
HETATM   12  C   UNL     1       7.407  31.977  60.030  1.00  0.00     0.043 A 
HETATM   13  C   UNL     1       8.033  30.785  59.659  1.00  0.00     0.004 A 
HETATM   14  C   UNL     1       7.766  32.705  61.170  1.00  0.00     0.030 A 
HETATM   15  C   UNL     1       9.075  30.303  60.481  1.00  0.00     0.014 A 
HETATM   16  C   UNL     1       9.448  31.018  61.626  1.00  0.00     0.001 A 
HETATM   17  C   UNL     1       8.801  32.202  61.964  1.00  0.00     0.002 A 
ENDBRANCH   6   7
ENDBRANCH   1   5
BRANCH   2  18
HETATM   18  C   UNL     1       7.514  24.710  56.316  1.00  0.00     0.157 A 
HETATM   19  N   UNL     1       8.046  23.739  57.004  1.00  0.00    -0.166 NA
HETATM   20  N   UNL     1       8.670  22.741  56.317  1.00  0.00    -0.242 N 
HETATM   21  C   UNL     1       8.799  22.655  54.950  1.00  0.00     0.272 A 
HETATM   22  H   UNL     1       9.111  22.010  56.869  1.00  0.00     0.192 HD
HETATM   23  O   UNL     1       9.395  21.735  54.403  1.00  0.00    -0.266 OA
HETATM   24  C   UNL     1       8.164  23.732  54.170  1.00  0.00     0.046 A 
HETATM   25  C   UNL     1       7.515  24.765  54.842  1.00  0.00     0.016 A 
HETATM   26  C   UNL     1       8.199  23.707  52.770  1.00  0.00     0.018 A 
HETATM   27  C   UNL     1       6.884  25.778  54.108  1.00  0.00     0.015 A 
HETATM   28  C   UNL     1       6.917  25.752  52.711  1.00  0.00     0.001 A 
HETATM   29  C   UNL     1       7.575  24.720  52.043  1.00  0.00     0.001 A 
ENDBRANCH   2  18
TORSDOF 3
ENDMDL
MODEL 4
REMARK VINA RESULT:     -10.0      5.100     10.873
REMARK  3 active torsions:
REMARK  status: ('A' for Active; 'I' for Inactive)
REMARK    1  A    between atoms: C_7  and  C_8 
REMARK    2  A    between atoms: N_9  and  N_10 
REMARK       I    between atoms: N_10  and  C_11 
REMARK    3  A    between atoms: C_11  and  C_12 
ROOT
HETATM    1  N   UNL     1       7.325  31.619  60.979  1.00  0.00    -0.242 N 
HETATM    2  C   UNL     1       7.287  31.956  59.639  1.00  0.00     0.292 C 
HETATM    3  O   UNL     1       6.464  32.627  59.036  1.00  0.00    -0.264 OA
HETATM    4  H   UNL     1       8.189  31.210  61.331  1.00  0.00     0.192 HD
ENDROOT
BRANCH   1   5
HETATM    5  N   UNL     1       6.417  31.940  61.957  1.00  0.00    -0.183 NA
HETATM    6  C   UNL     1       6.412  33.127  62.471  1.00  0.00     0.153 C 
BRANCH   6   7
HETATM    7  C   UNL     1       5.450  33.468  63.508  1.00  0.00     0.018 A 
HETATM    8  C   UNL     1       4.081  33.562  63.284  1.00  0.00     0.018 A 
HETATM    9  C   UNL     1       3.280  33.376  62.044  1.00  0.00     0.069 C 
HETATM   10  N   UNL     1       3.484  33.892  64.473  1.00  0.00    -0.358 N 
HETATM   11  H   UNL     1       2.492  34.031  64.609  1.00  0.00     0.166 HD
HETATM   12  C   UNL     1       4.420  34.009  65.471  1.00  0.00     0.043 A 
HETATM   13  C   UNL     1       5.667  33.753  64.897  1.00  0.00     0.004 A 
HETATM   14  C   UNL     1       4.253  34.321  66.825  1.00  0.00     0.030 A 
HETATM   15  C   UNL     1       6.804  33.813  65.732  1.00  0.00     0.014 A 
HETATM   16  C   UNL     1       6.656  34.124  67.089  1.00  0.00     0.001 A 
HETATM   17  C   UNL     1       5.398  34.373  67.626  1.00  0.00     0.002 A 
ENDBRANCH   6   7
ENDBRANCH   1   5
BRANCH   2  18
HETATM   18  C   UNL     1       8.452  31.356  58.869  1.00  0.00     0.157 A 
HETATM   19  N   UNL     1       9.569  32.026  58.890  1.00  0.00    -0.166 NA
HETATM   20  N   UNL     1      10.629  31.514  58.203  1.00  0.00    -0.242 N 
HETATM   21  C   UNL     1      10.638  30.345  57.479  1.00  0.00     0.272 A 
HETATM   22  H   UNL     1      11.483  32.067  58.198  1.00  0.00     0.192 HD
HETATM   23  O   UNL     1      11.627  29.958  56.868  1.00  0.00    -0.266 OA
HETATM   24  C   UNL     1       9.386  29.567  57.488  1.00  0.00     0.046 A 
HETATM   25  C   UNL     1       8.285  30.061  58.183  1.00  0.00     0.016 A 
HETATM   26  C   UNL     1       9.313  28.339  56.820  1.00  0.00     0.018 A 
HETATM   27  C   UNL     1       7.101  29.315  58.222  1.00  0.00     0.015 A 
HETATM   28  C   UNL     1       7.026  28.088  57.556  1.00  0.00     0.001 A 
HETATM   29  C   UNL     1       8.129  27.601  56.856  1.00  0.00     0.001 A 
ENDBRANCH   2  18
TORSDOF 3
ENDMDL
MODEL 5
REMARK VINA RESULT:      -9.9      4.273      6.775
REMARK  3 active torsions:
REMARK  status: ('A' for Active; 'I' for Inactive)
REMARK    1  A    between atoms: C_7  and  C_8 
REMARK    2  A    between atoms: N_9  and  N_10 
REMARK       I    between atoms: N_10  and  C_11 
REMARK    3  A    between atoms: C_11  and  C_12 
ROOT
HETATM    1  N   UNL     1       6.472  26.179  52.293  1.00  0.00    -0.242 N 
HETATM    2  C   UNL     1       5.361  26.996  52.389  1.00  0.00     0.292 C 
HETATM    3  O   UNL     1       4.430  26.940  53.177  1.00  0.00    -0.264 OA
HETATM    4  H   UNL     1       7.231  26.497  51.692  1.00  0.00     0.192 HD
ENDROOT
BRANCH   1   5
HETATM    5  N   UNL     1       6.780  25.078  53.052  1.00  0.00    -0.183 NA
HETATM    6  C   UNL     1       7.592  25.189  54.053  1.00  0.00     0.153 C 
BRANCH   6   7
HETATM    7  C   UNL     1       7.918  24.022  54.858  1.00  0.00     0.018 A 
HETATM    8  C   UNL     1       8.037  24.054  56.244  1.00  0.00     0.018 A 
HETATM    9  C   UNL     1       7.892  25.176  57.209  1.00  0.00     0.069 C 
HETATM   10  N   UNL     1       8.344  22.786  56.666  1.00  0.00    -0.358 N 
HETATM   11  H   UNL     1       8.493  22.512  57.627  1.00  0.00     0.166 HD
HETATM   12  C   UNL     1       8.423  21.924  55.600  1.00  0.00     0.043 A 
HETATM   13  C   UNL     1       8.165  22.670  54.448  1.00  0.00     0.004 A 
HETATM   14  C   UNL     1       8.703  20.553  55.575  1.00  0.00     0.030 A 
HETATM   15  C   UNL     1       8.189  21.998  53.206  1.00  0.00     0.014 A 
HETATM   16  C   UNL     1       8.467  20.626  53.162  1.00  0.00     0.001 A 
HETATM   17  C   UNL     1       8.719  19.915  54.331  1.00  0.00     0.002 A 
ENDBRANCH   6   7
ENDBRANCH   1   5
BRANCH   2  18
HETATM   18  C   UNL     1       5.357  28.078  51.322  1.00  0.00     0.157 A 
HETATM   19  N   UNL     1       5.811  29.247  51.678  1.00  0.00    -0.166 NA
HETATM   20  N   UNL     1       5.815  30.238  50.742  1.00  0.00    -0.242 N 
HETATM   21  C   UNL     1       5.379  30.127  49.442  1.00  0.00     0.272 A 
HETATM   22  H   UNL     1       6.137  31.153  51.045  1.00  0.00     0.192 HD
HETATM   23  O   UNL     1       5.392  31.072  48.662  1.00  0.00    -0.266 OA
HETATM   24  C   UNL     1       4.902  28.795  49.029  1.00  0.00     0.046 A 
HETATM   25  C   UNL     1       4.889  27.760  49.960  1.00  0.00     0.016 A 
HETATM   26  C   UNL     1       4.484  28.572  47.711  1.00  0.00     0.018 A 
HETATM   27  C   UNL     1       4.466  26.483  49.569  1.00  0.00     0.015 A 
HETATM   28  C   UNL     1       4.050  26.259  48.253  1.00  0.00     0.001 A 
HETATM   29  C   UNL     1       4.058  27.301  47.327  1.00  0.00     0.001 A 
ENDBRANCH   2  18
TORSDOF 3
ENDMDL
MODEL 6
REMARK VINA RESULT:      -9.8      4.923      8.457
REMARK  3 active torsions:
REMARK  status: ('A' for Active; 'I' for Inactive)
REMARK    1  A    between atoms: C_7  and  C_8 
REMARK    2  A    between atoms: N_9  and  N_10 
REMARK       I    between atoms: N_10  and  C_11 
REMARK    3  A    between atoms: C_11  and  C_12 
ROOT
HETATM    1  N   UNL     1       6.136  25.866  52.756  1.00  0.00    -0.242 N 
HETATM    2  C   UNL     1       7.439  25.411  52.850  1.00  0.00     0.292 C 
HETATM    3  O   UNL     1       8.362  25.551  52.064  1.00  0.00    -0.264 OA
HETATM    4  H   UNL     1       5.564  25.811  53.597  1.00  0.00     0.192 HD
ENDROOT
BRANCH   1   5
HETATM    5  N   UNL     1       5.559  26.568  51.727  1.00  0.00    -0.183 NA
HETATM    6  C   UNL     1       5.272  25.970  50.617  1.00  0.00     0.153 C 
BRANCH   6   7
HETATM    7  C   UNL     1       4.661  26.714  49.526  1.00  0.00     0.018 A 
HETATM    8  C   UNL     1       3.785  26.147  48.607  1.00  0.00     0.018 A 
HETATM    9  C   UNL     1       3.278  24.755  48.473  1.00  0.00     0.069 C 
HETATM   10  N   UNL     1       3.402  27.131  47.732  1.00  0.00    -0.358 N 
HETATM   11  H   UNL     1       2.771  27.006  46.953  1.00  0.00     0.166 HD
HETATM   12  C   UNL     1       3.996  28.327  48.056  1.00  0.00     0.043 A 
HETATM   13  C   UNL     1       4.797  28.098  49.176  1.00  0.00     0.004 A 
HETATM   14  C   UNL     1       3.883  29.579  47.441  1.00  0.00     0.030 A 
HETATM   15  C   UNL     1       5.520  29.190  49.706  1.00  0.00     0.014 A 
HETATM   16  C   UNL     1       5.418  30.450  49.104  1.00  0.00     0.001 A 
HETATM   17  C   UNL     1       4.610  30.640  47.988  1.00  0.00     0.002 A 
ENDBRANCH   6   7
ENDBRANCH   1   5
BRANCH   2  18
HETATM   18  C   UNL     1       7.672  24.619  54.125  1.00  0.00     0.157 A 
HETATM   19  N   UNL     1       7.667  25.295  55.239  1.00  0.00    -0.166 NA
HETATM   20  N   UNL     1       7.879  24.611  56.399  1.00  0.00    -0.242 N 
HETATM   21  C   UNL     1       8.104  23.259  56.512  1.00  0.00     0.272 A 
HETATM   22  H   UNL     1       7.909  25.158  57.255  1.00  0.00     0.192 HD
HETATM   23  O   UNL     1       8.310  22.715  57.591  1.00  0.00    -0.266 OA
HETATM   24  C   UNL     1       8.071  22.487  55.257  1.00  0.00     0.046 A 
HETATM   25  C   UNL     1       7.853  23.156  54.055  1.00  0.00     0.016 A 
HETATM   26  C   UNL     1       8.241  21.098  55.276  1.00  0.00     0.018 A 
HETATM   27  C   UNL     1       7.791  22.429  52.860  1.00  0.00     0.015 A 
HETATM   28  C   UNL     1       7.958  21.041  52.878  1.00  0.00     0.001 A 
HETATM   29  C   UNL     1       8.184  20.377  54.084  1.00  0.00     0.001 A 
ENDBRANCH   2  18
TORSDOF 3
ENDMDL
MODEL 7
REMARK VINA RESULT:      -9.6      1.682      2.144
REMARK  3 active torsions:
REMARK  status: ('A' for Active; 'I' for Inactive)
REMARK    1  A    between atoms: C_7  and  C_8 
REMARK    2  A    between atoms: N_9  and  N_10 
REMARK       I    between atoms: N_10  and  C_11 
REMARK    3  A    between atoms: C_11  and  C_12 
ROOT
HETATM    1  N   UNL     1       5.436  26.704  55.714  1.00  0.00    -0.242 N 
HETATM    2  C   UNL     1       5.572  27.994  55.237  1.00  0.00     0.292 C 
HETATM    3  O   UNL     1       6.075  28.380  54.193  1.00  0.00    -0.264 OA
HETATM    4  H   UNL     1       4.821  26.568  56.516  1.00  0.00     0.192 HD
ENDROOT
BRANCH   1   5
HETATM    5  N   UNL     1       5.866  25.538  55.132  1.00  0.00    -0.183 NA
HETATM    6  C   UNL     1       7.130  25.268  55.082  1.00  0.00     0.153 C 
BRANCH   6   7
HETATM    7  C   UNL     1       7.587  24.032  54.465  1.00  0.00     0.018 A 
HETATM    8  C   UNL     1       7.809  23.892  53.099  1.00  0.00     0.018 A 
HETATM    9  C   UNL     1       7.648  24.860  51.981  1.00  0.00     0.069 C 
HETATM   10  N   UNL     1       8.236  22.609  52.874  1.00  0.00    -0.358 N 
HETATM   11  H   UNL     1       8.469  22.222  51.970  1.00  0.00     0.166 HD
HETATM   12  C   UNL     1       8.307  21.907  54.052  1.00  0.00     0.043 A 
HETATM   13  C   UNL     1       7.902  22.771  55.071  1.00  0.00     0.004 A 
HETATM   14  C   UNL     1       8.696  20.582  54.285  1.00  0.00     0.030 A 
HETATM   15  C   UNL     1       7.890  22.275  56.393  1.00  0.00     0.014 A 
HETATM   16  C   UNL     1       8.276  20.952  56.644  1.00  0.00     0.001 A 
HETATM   17  C   UNL     1       8.674  20.120  55.604  1.00  0.00     0.002 A 
ENDBRANCH   6   7
ENDBRANCH   1   5
BRANCH   2  18
HETATM   18  C   UNL     1       5.014  29.021  56.208  1.00  0.00     0.157 A 
HETATM   19  N   UNL     1       3.717  29.149  56.237  1.00  0.00    -0.166 NA
HETATM   20  N   UNL     1       3.189  30.066  57.095  1.00  0.00    -0.242 N 
HETATM   21  C   UNL     1       3.897  30.884  57.944  1.00  0.00     0.272 A 
HETATM   22  H   UNL     1       2.179  30.180  57.080  1.00  0.00     0.192 HD
HETATM   23  O   UNL     1       3.352  31.704  58.674  1.00  0.00    -0.266 OA
HETATM   24  C   UNL     1       5.361  30.712  57.940  1.00  0.00     0.046 A 
HETATM   25  C   UNL     1       5.932  29.781  57.077  1.00  0.00     0.016 A 
HETATM   26  C   UNL     1       6.164  31.466  58.805  1.00  0.00     0.018 A 
HETATM   27  C   UNL     1       7.320  29.589  57.087  1.00  0.00     0.015 A 
HETATM   28  C   UNL     1       8.122  30.339  57.951  1.00  0.00     0.001 A 
HETATM   29  C   UNL     1       7.546  31.277  58.807  1.00  0.00     0.001 A 
ENDBRANCH   2  18
TORSDOF 3
ENDMDL
MODEL 8
REMARK VINA RESULT:      -9.5      1.384      2.393
REMARK  3 active torsions:
REMARK  status: ('A' for Active; 'I' for Inactive)
REMARK    1  A    between atoms: C_7  and  C_8 
REMARK    2  A    between atoms: N_9  and  N_10 
REMARK       I    between atoms: N_10  and  C_11 
REMARK    3  A    between atoms: C_11  and  C_12 
ROOT
HETATM    1  N   UNL     1       7.582  27.101  56.629  1.00  0.00    -0.242 N 
HETATM    2  C   UNL     1       7.487  28.339  56.022  1.00  0.00     0.292 C 
HETATM    3  O   UNL     1       7.204  28.611  54.866  1.00  0.00    -0.264 OA
HETATM    4  H   UNL     1       7.646  27.086  57.646  1.00  0.00     0.192 HD
ENDROOT
BRANCH   1   5
HETATM    5  N   UNL     1       7.406  25.865  56.059  1.00  0.00    -0.183 NA
HETATM    6  C   UNL     1       8.272  25.414  55.210  1.00  0.00     0.153 C 
BRANCH   6   7
HETATM    7  C   UNL     1       8.085  24.104  54.606  1.00  0.00     0.018 A 
HETATM    8  C   UNL     1       7.807  23.913  53.257  1.00  0.00     0.018 A 
HETATM    9  C   UNL     1       7.625  24.892  52.151  1.00  0.00     0.069 C 
HETATM   10  N   UNL     1       7.702  22.564  53.038  1.00  0.00    -0.358 N 
HETATM   11  H   UNL     1       7.500  22.131  52.147  1.00  0.00     0.166 HD
HETATM   12  C   UNL     1       7.909  21.865  54.202  1.00  0.00     0.043 A 
HETATM   13  C   UNL     1       8.149  22.803  55.208  1.00  0.00     0.004 A 
HETATM   14  C   UNL     1       7.901  20.485  54.432  1.00  0.00     0.030 A 
HETATM   15  C   UNL     1       8.394  22.324  56.513  1.00  0.00     0.014 A 
HETATM   16  C   UNL     1       8.389  20.946  56.762  1.00  0.00     0.001 A 
HETATM   17  C   UNL     1       8.147  20.041  55.735  1.00  0.00     0.002 A 
ENDBRANCH   6   7
ENDBRANCH   1   5
BRANCH   2  18
HETATM   18  C   UNL     1       7.815  29.469  56.983  1.00  0.00     0.157 A 
HETATM   19  N   UNL     1       9.079  29.715  57.183  1.00  0.00    -0.166 NA
HETATM   20  N   UNL     1       9.402  30.721  58.045  1.00  0.00    -0.242 N 
HETATM   21  C   UNL     1       8.515  31.511  58.738  1.00  0.00     0.272 A 
HETATM   22  H   UNL     1      10.392  30.876  58.218  1.00  0.00     0.192 HD
HETATM   23  O   UNL     1       8.881  32.384  59.515  1.00  0.00    -0.266 OA
HETATM   24  C   UNL     1       7.085  31.259  58.483  1.00  0.00     0.046 A 
HETATM   25  C   UNL     1       6.722  30.241  57.605  1.00  0.00     0.016 A 
HETATM   26  C   UNL     1       6.107  32.045  59.104  1.00  0.00     0.018 A 
HETATM   27  C   UNL     1       5.367  30.013  57.333  1.00  0.00     0.015 A 
HETATM   28  C   UNL     1       4.389  30.798  57.952  1.00  0.00     0.001 A 
HETATM   29  C   UNL     1       4.758  31.811  58.836  1.00  0.00     0.001 A 
ENDBRANCH   2  18
TORSDOF 3
ENDMDL
MODEL 9
REMARK VINA RESULT:      -9.4      2.408      8.675
REMARK  3 active torsions:
REMARK  status: ('A' for Active; 'I' for Inactive)
REMARK    1  A    between atoms: C_7  and  C_8 
REMARK    2  A    between atoms: N_9  and  N_10 
REMARK       I    between atoms: N_10  and  C_11 
REMARK    3  A    between atoms: C_11  and  C_12 
ROOT
HETATM    1  N   UNL     1       6.942  28.061  56.628  1.00  0.00    -0.242 N 
HETATM    2  C   UNL     1       6.086  27.047  56.242  1.00  0.00     0.292 C 
HETATM    3  O   UNL     1       5.014  26.718  56.725  1.00  0.00    -0.264 OA
HETATM    4  H   UNL     1       7.698  28.300  55.987  1.00  0.00     0.192 HD
ENDROOT
BRANCH   1   5
HETATM    5  N   UNL     1       6.801  28.931  57.680  1.00  0.00    -0.183 NA
HETATM    6  C   UNL     1       7.069  30.187  57.521  1.00  0.00     0.153 C 
BRANCH   6   7
HETATM    7  C   UNL     1       6.919  31.109  58.636  1.00  0.00     0.018 A 
HETATM    8  C   UNL     1       5.933  32.088  58.696  1.00  0.00     0.018 A 
HETATM    9  C   UNL     1       4.860  32.451  57.732  1.00  0.00     0.069 C 
HETATM   10  N   UNL     1       6.085  32.763  59.880  1.00  0.00    -0.358 N 
HETATM   11  H   UNL     1       5.508  33.532  60.191  1.00  0.00     0.166 HD
HETATM   12  C   UNL     1       7.136  32.250  60.600  1.00  0.00     0.043 A 
HETATM   13  C   UNL     1       7.685  31.212  59.845  1.00  0.00     0.004 A 
HETATM   14  C   UNL     1       7.635  32.630  61.852  1.00  0.00     0.030 A 
HETATM   15  C   UNL     1       8.793  30.520  60.380  1.00  0.00     0.014 A 
HETATM   16  C   UNL     1       9.305  30.885  61.632  1.00  0.00     0.001 A 
HETATM   17  C   UNL     1       8.732  31.925  62.356  1.00  0.00     0.002 A 
ENDBRANCH   6   7
ENDBRANCH   1   5
BRANCH   2  18
HETATM   18  C   UNL     1       6.630  26.264  55.059  1.00  0.00     0.157 A 
HETATM   19  N   UNL     1       6.471  26.802  53.882  1.00  0.00    -0.166 NA
HETATM   20  N   UNL     1       6.945  26.119  52.802  1.00  0.00    -0.242 N 
HETATM   21  C   UNL     1       7.581  24.900  52.829  1.00  0.00     0.272 A 
HETATM   22  H   UNL     1       6.781  26.535  51.889  1.00  0.00     0.192 HD
HETATM   23  O   UNL     1       7.961  24.335  51.811  1.00  0.00    -0.266 OA
HETATM   24  C   UNL     1       7.796  24.309  54.162  1.00  0.00     0.046 A 
HETATM   25  C   UNL     1       7.327  24.984  55.287  1.00  0.00     0.016 A 
HETATM   26  C   UNL     1       8.478  23.094  54.295  1.00  0.00     0.018 A 
HETATM   27  C   UNL     1       7.552  24.445  56.560  1.00  0.00     0.015 A 
HETATM   28  C   UNL     1       8.234  23.232  56.694  1.00  0.00     0.001 A 
HETATM   29  C   UNL     1       8.695  22.557  55.564  1.00  0.00     0.001 A 
ENDBRANCH   2  18
TORSDOF 3
ENDMDL
MODEL 10
REMARK VINA RESULT:      -9.3      2.423      3.906
REMARK  3 active torsions:
REMARK  status: ('A' for Active; 'I' for Inactive)
REMARK    1  A    between atoms: C_7  and  C_8 
REMARK    2  A    between atoms: N_9  and  N_10 
REMARK       I    between atoms: N_10  and  C_11 
REMARK    3  A    between atoms: C_11  and  C_12 
ROOT
HETATM    1  N   UNL     1       7.782  28.809  58.227  1.00  0.00    -0.242 N 
HETATM    2  C   UNL     1       8.560  29.943  58.368  1.00  0.00     0.292 C 
HETATM    3  O   UNL     1       9.336  30.448  57.572  1.00  0.00    -0.264 OA
HETATM    4  H   UNL     1       7.059  28.652  58.929  1.00  0.00     0.192 HD
ENDROOT
BRANCH   1   5
HETATM    5  N   UNL     1       7.719  27.955  57.155  1.00  0.00    -0.183 NA
HETATM    6  C   UNL     1       6.680  27.203  56.987  1.00  0.00     0.153 C 
BRANCH   6   7
HETATM    7  C   UNL     1       6.613  26.298  55.850  1.00  0.00     0.018 A 
HETATM    8  C   UNL     1       5.812  26.523  54.735  1.00  0.00     0.018 A 
HETATM    9  C   UNL     1       4.876  27.633  54.415  1.00  0.00     0.069 C 
HETATM   10  N   UNL     1       6.003  25.479  53.866  1.00  0.00    -0.358 N 
HETATM   11  H   UNL     1       5.545  25.375  52.971  1.00  0.00     0.166 HD
HETATM   12  C   UNL     1       6.909  24.582  54.375  1.00  0.00     0.043 A 
HETATM   13  C   UNL     1       7.309  25.064  55.623  1.00  0.00     0.004 A 
HETATM   14  C   UNL     1       7.395  23.390  53.826  1.00  0.00     0.030 A 
HETATM   15  C   UNL     1       8.250  24.306  56.354  1.00  0.00     0.014 A 
HETATM   16  C   UNL     1       8.748  23.111  55.820  1.00  0.00     0.001 A 
HETATM   17  C   UNL     1       8.326  22.662  54.573  1.00  0.00     0.002 A 
ENDBRANCH   6   7
ENDBRANCH   1   5
BRANCH   2  18
HETATM   18  C   UNL     1       8.389  30.583  59.736  1.00  0.00     0.157 A 
HETATM   19  N   UNL     1       9.265  30.257  60.644  1.00  0.00    -0.166 NA
HETATM   20  N   UNL     1       9.132  30.812  61.882  1.00  0.00    -0.242 N 
HETATM   21  C   UNL     1       8.151  31.693  62.275  1.00  0.00     0.272 A 
HETATM   22  H   UNL     1       9.801  30.520  62.590  1.00  0.00     0.192 HD
HETATM   23  O   UNL     1       8.083  32.134  63.415  1.00  0.00    -0.266 OA
HETATM   24  C   UNL     1       7.184  32.092  61.237  1.00  0.00     0.046 A 
HETATM   25  C   UNL     1       7.294  31.545  59.961  1.00  0.00     0.016 A 
HETATM   26  C   UNL     1       6.178  33.022  61.527  1.00  0.00     0.018 A 
HETATM   27  C   UNL     1       6.398  31.941  58.959  1.00  0.00     0.015 A 
HETATM   28  C   UNL     1       5.394  32.870  59.248  1.00  0.00     0.001 A 
HETATM   29  C   UNL     1       5.284  33.408  60.530  1.00  0.00     0.001 A 
ENDBRANCH   2  18
TORSDOF 3
ENDMDL
