MODEL 1
REMARK VINA RESULT:      -8.4      0.000      0.000
REMARK  3 active torsions:
REMARK  status: ('A' for Active; 'I' for Inactive)
REMARK    1  A    between atoms: C_2  and  N_3 
REMARK    2  A    between atoms: N_3  and  C_4 
REMARK    3  A    between atoms: C_12  and  C_13 
ROOT
HETATM    1  C   UNL     1       5.467  27.751  55.198  1.00  0.00     0.139 A 
HETATM    2  N   UNL     1       4.907  28.939  54.887  1.00  0.00    -0.224 NA
HETATM    3  C   UNL     1       5.357  30.058  55.468  1.00  0.00     0.236 A 
HETATM    4  N   UNL     1       6.341  30.165  56.356  1.00  0.00    -0.234 NA
HETATM    5  C   UNL     1       6.909  28.981  56.630  1.00  0.00     0.113 A 
HETATM    6  C   UNL     1       6.561  27.742  56.102  1.00  0.00     0.055 A 
HETATM    7  S   UNL     1       8.203  28.905  57.730  1.00  0.00    -0.081 SA
HETATM    8  C   UNL     1       8.367  27.227  57.507  1.00  0.00     0.062 A 
HETATM    9  C   UNL     1       7.455  26.703  56.604  1.00  0.00    -0.003 A 
ENDROOT
BRANCH   9  10
HETATM   10  C   UNL     1       7.460  25.239  56.228  1.00  0.00     0.188 C 
HETATM   11  O   UNL     1       7.907  25.045  54.873  1.00  0.00    -0.336 OA
HETATM   12  C   UNL     1       7.955  23.703  54.578  1.00  0.00     0.103 A 
HETATM   13  C   UNL     1       8.019  22.709  55.562  1.00  0.00     0.102 A 
HETATM   14  C   UNL     1       7.930  23.354  53.230  1.00  0.00     0.040 A 
HETATM   15  O   UNL     1       8.057  22.975  56.908  1.00  0.00    -0.345 OA
HETATM   16  C   UNL     1       8.015  21.365  55.193  1.00  0.00     0.039 A 
HETATM   17  C   UNL     1       8.286  24.368  57.176  1.00  0.00     0.213 C 
HETATM   18  C   UNL     1       7.970  21.014  53.844  1.00  0.00     0.003 A 
HETATM   19  C   UNL     1       7.931  22.007  52.863  1.00  0.00     0.003 A 
ENDBRANCH   9  10
BRANCH   1  20
HETATM   20  N   UNL     1       4.980  26.582  54.629  1.00  0.00    -0.366 N 
HETATM   21  H   UNL     1       4.111  26.297  55.079  1.00  0.00     0.162 HD
BRANCH  20  22
HETATM   22  C   UNL     1       5.017  26.297  53.186  1.00  0.00     0.021 C 
HETATM   23  C   UNL     1       4.650  24.835  52.893  1.00  0.00     0.037 C 
HETATM   24  C   UNL     1       6.370  26.672  52.567  1.00  0.00     0.037 C 
HETATM   25  C   UNL     1       3.933  27.186  52.540  1.00  0.00     0.037 C 
ENDBRANCH  20  22
ENDBRANCH   1  20
TORSDOF 3
ENDMDL
MODEL 2
REMARK VINA RESULT:      -8.2      2.846      5.815
REMARK  3 active torsions:
REMARK  status: ('A' for Active; 'I' for Inactive)
REMARK    1  A    between atoms: C_2  and  N_3 
REMARK    2  A    between atoms: N_3  and  C_4 
REMARK    3  A    between atoms: C_12  and  C_13 
ROOT
HETATM    1  C   UNL     1       7.913  23.404  53.532  1.00  0.00     0.139 A 
HETATM    2  N   UNL     1       7.879  22.474  52.554  1.00  0.00    -0.224 NA
HETATM    3  C   UNL     1       8.004  21.178  52.865  1.00  0.00     0.236 A 
HETATM    4  N   UNL     1       8.160  20.651  54.076  1.00  0.00    -0.234 NA
HETATM    5  C   UNL     1       8.159  21.585  55.040  1.00  0.00     0.113 A 
HETATM    6  C   UNL     1       8.030  22.960  54.875  1.00  0.00     0.055 A 
HETATM    7  S   UNL     1       8.328  21.114  56.665  1.00  0.00    -0.081 SA
HETATM    8  C   UNL     1       8.192  22.721  57.203  1.00  0.00     0.062 A 
HETATM    9  C   UNL     1       8.018  23.631  56.171  1.00  0.00    -0.003 A 
ENDROOT
BRANCH   9  10
HETATM   10  C   UNL     1       7.830  25.107  56.436  1.00  0.00     0.188 C 
HETATM   11  O   UNL     1       6.442  25.436  56.631  1.00  0.00    -0.336 OA
HETATM   12  C   UNL     1       6.309  26.772  56.926  1.00  0.00     0.103 A 
HETATM   13  C   UNL     1       7.362  27.553  57.415  1.00  0.00     0.102 A 
HETATM   14  C   UNL     1       5.056  27.341  56.708  1.00  0.00     0.040 A 
HETATM   15  O   UNL     1       8.619  27.062  57.663  1.00  0.00    -0.345 OA
HETATM   16  C   UNL     1       7.169  28.913  57.645  1.00  0.00     0.039 A 
HETATM   17  C   UNL     1       8.656  25.626  57.616  1.00  0.00     0.213 C 
HETATM   18  C   UNL     1       5.920  29.489  57.409  1.00  0.00     0.003 A 
HETATM   19  C   UNL     1       4.864  28.703  56.945  1.00  0.00     0.003 A 
ENDBRANCH   9  10
BRANCH   1  20
HETATM   20  N   UNL     1       7.824  24.752  53.214  1.00  0.00    -0.366 N 
HETATM   21  H   UNL     1       8.617  25.041  52.641  1.00  0.00     0.162 HD
BRANCH  20  22
HETATM   22  C   UNL     1       6.566  25.428  52.861  1.00  0.00     0.021 C 
HETATM   23  C   UNL     1       5.365  24.784  53.569  1.00  0.00     0.037 C 
HETATM   24  C   UNL     1       6.359  25.487  51.342  1.00  0.00     0.037 C 
HETATM   25  C   UNL     1       6.691  26.876  53.383  1.00  0.00     0.037 C 
ENDBRANCH  20  22
ENDBRANCH   1  20
TORSDOF 3
ENDMDL
MODEL 3
REMARK VINA RESULT:      -7.9      2.283      4.168
REMARK  3 active torsions:
REMARK  status: ('A' for Active; 'I' for Inactive)
REMARK    1  A    between atoms: C_2  and  N_3 
REMARK    2  A    between atoms: N_3  and  C_4 
REMARK    3  A    between atoms: C_12  and  C_13 
ROOT
HETATM    1  C   UNL     1       5.210  28.750  56.105  1.00  0.00     0.139 A 
HETATM    2  N   UNL     1       4.627  29.545  57.027  1.00  0.00    -0.224 NA
HETATM    3  C   UNL     1       3.746  30.476  56.640  1.00  0.00     0.236 A 
HETATM    4  N   UNL     1       3.339  30.734  55.401  1.00  0.00    -0.234 NA
HETATM    5  C   UNL     1       3.902  29.915  54.500  1.00  0.00     0.113 A 
HETATM    6  C   UNL     1       4.821  28.900  54.748  1.00  0.00     0.055 A 
HETATM    7  S   UNL     1       3.498  30.069  52.856  1.00  0.00    -0.081 SA
HETATM    8  C   UNL     1       4.500  28.764  52.428  1.00  0.00     0.062 A 
HETATM    9  C   UNL     1       5.150  28.195  53.514  1.00  0.00    -0.003 A 
ENDROOT
BRANCH   9  10
HETATM   10  C   UNL     1       6.053  26.993  53.359  1.00  0.00     0.188 C 
HETATM   11  O   UNL     1       5.744  25.973  54.328  1.00  0.00    -0.336 OA
HETATM   12  C   UNL     1       6.542  24.872  54.126  1.00  0.00     0.103 A 
HETATM   13  C   UNL     1       7.189  24.612  52.913  1.00  0.00     0.102 A 
HETATM   14  C   UNL     1       6.695  24.002  55.203  1.00  0.00     0.040 A 
HETATM   15  O   UNL     1       7.078  25.416  51.806  1.00  0.00    -0.345 OA
HETATM   16  C   UNL     1       8.023  23.502  52.794  1.00  0.00     0.039 A 
HETATM   17  C   UNL     1       6.034  26.392  51.951  1.00  0.00     0.213 C 
HETATM   18  C   UNL     1       8.192  22.640  53.878  1.00  0.00     0.003 A 
HETATM   19  C   UNL     1       7.527  22.887  55.080  1.00  0.00     0.003 A 
ENDBRANCH   9  10
BRANCH   1  20
HETATM   20  N   UNL     1       6.153  27.809  56.494  1.00  0.00    -0.366 N 
HETATM   21  H   UNL     1       6.043  26.946  55.962  1.00  0.00     0.162 HD
BRANCH  20  22
HETATM   22  C   UNL     1       7.554  28.134  56.805  1.00  0.00     0.021 C 
HETATM   23  C   UNL     1       7.665  28.966  58.090  1.00  0.00     0.037 C 
HETATM   24  C   UNL     1       8.252  28.823  55.626  1.00  0.00     0.037 C 
HETATM   25  C   UNL     1       8.264  26.787  57.061  1.00  0.00     0.037 C 
ENDBRANCH  20  22
ENDBRANCH   1  20
TORSDOF 3
ENDMDL
MODEL 4
REMARK VINA RESULT:      -7.8      2.929      6.127
REMARK  3 active torsions:
REMARK  status: ('A' for Active; 'I' for Inactive)
REMARK    1  A    between atoms: C_2  and  N_3 
REMARK    2  A    between atoms: N_3  and  C_4 
REMARK    3  A    between atoms: C_12  and  C_13 
ROOT
HETATM    1  C   UNL     1       6.603  25.782  54.214  1.00  0.00     0.139 A 
HETATM    2  N   UNL     1       6.451  24.756  53.350  1.00  0.00    -0.224 NA
HETATM    3  C   UNL     1       5.467  24.792  52.443  1.00  0.00     0.236 A 
HETATM    4  N   UNL     1       4.572  25.759  52.262  1.00  0.00    -0.234 NA
HETATM    5  C   UNL     1       4.757  26.786  53.105  1.00  0.00     0.113 A 
HETATM    6  C   UNL     1       5.734  26.897  54.089  1.00  0.00     0.055 A 
HETATM    7  S   UNL     1       3.726  28.135  53.024  1.00  0.00    -0.081 SA
HETATM    8  C   UNL     1       4.573  28.928  54.267  1.00  0.00     0.062 A 
HETATM    9  C   UNL     1       5.640  28.191  54.758  1.00  0.00    -0.003 A 
ENDROOT
BRANCH   9  10
HETATM   10  C   UNL     1       6.552  28.733  55.834  1.00  0.00     0.188 C 
HETATM   11  O   UNL     1       7.878  28.979  55.329  1.00  0.00    -0.336 OA
HETATM   12  C   UNL     1       8.667  29.523  56.313  1.00  0.00     0.103 A 
HETATM   13  C   UNL     1       8.143  30.161  57.444  1.00  0.00     0.102 A 
HETATM   14  C   UNL     1      10.045  29.411  56.148  1.00  0.00     0.040 A 
HETATM   15  O   UNL     1       6.799  30.319  57.671  1.00  0.00    -0.345 OA
HETATM   16  C   UNL     1       9.001  30.647  58.428  1.00  0.00     0.039 A 
HETATM   17  C   UNL     1       6.014  29.997  56.511  1.00  0.00     0.213 C 
HETATM   18  C   UNL     1      10.382  30.518  58.273  1.00  0.00     0.003 A 
HETATM   19  C   UNL     1      10.904  29.903  57.133  1.00  0.00     0.003 A 
ENDBRANCH   9  10
BRANCH   1  20
HETATM   20  N   UNL     1       7.596  25.735  55.182  1.00  0.00    -0.366 N 
HETATM   21  H   UNL     1       8.095  26.623  55.233  1.00  0.00     0.162 HD
BRANCH  20  22
HETATM   22  C   UNL     1       7.435  25.076  56.488  1.00  0.00     0.021 C 
HETATM   23  C   UNL     1       8.016  23.654  56.475  1.00  0.00     0.037 C 
HETATM   24  C   UNL     1       5.973  25.082  56.952  1.00  0.00     0.037 C 
HETATM   25  C   UNL     1       8.259  25.905  57.496  1.00  0.00     0.037 C 
ENDBRANCH  20  22
ENDBRANCH   1  20
TORSDOF 3
ENDMDL
MODEL 5
REMARK VINA RESULT:      -7.8      2.209      3.846
REMARK  3 active torsions:
REMARK  status: ('A' for Active; 'I' for Inactive)
REMARK    1  A    between atoms: C_2  and  N_3 
REMARK    2  A    between atoms: N_3  and  C_4 
REMARK    3  A    between atoms: C_12  and  C_13 
ROOT
HETATM    1  C   UNL     1       4.911  27.474  54.383  1.00  0.00     0.139 A 
HETATM    2  N   UNL     1       4.092  28.546  54.444  1.00  0.00    -0.224 NA
HETATM    3  C   UNL     1       3.604  29.074  53.316  1.00  0.00     0.236 A 
HETATM    4  N   UNL     1       3.822  28.659  52.071  1.00  0.00    -0.234 NA
HETATM    5  C   UNL     1       4.610  27.574  52.028  1.00  0.00     0.113 A 
HETATM    6  C   UNL     1       5.182  26.911  53.109  1.00  0.00     0.055 A 
HETATM    7  S   UNL     1       4.995  26.875  50.528  1.00  0.00    -0.081 SA
HETATM    8  C   UNL     1       5.901  25.642  51.271  1.00  0.00     0.062 A 
HETATM    9  C   UNL     1       5.925  25.740  52.654  1.00  0.00    -0.003 A 
ENDROOT
BRANCH   9  10
HETATM   10  C   UNL     1       6.637  24.717  53.510  1.00  0.00     0.188 C 
HETATM   11  O   UNL     1       6.962  23.533  52.758  1.00  0.00    -0.336 OA
HETATM   12  C   UNL     1       7.657  22.647  53.546  1.00  0.00     0.103 A 
HETATM   13  C   UNL     1       8.334  23.032  54.710  1.00  0.00     0.102 A 
HETATM   14  C   UNL     1       7.660  21.315  53.142  1.00  0.00     0.040 A 
HETATM   15  O   UNL     1       8.384  24.325  55.166  1.00  0.00    -0.345 OA
HETATM   16  C   UNL     1       8.977  22.072  55.489  1.00  0.00     0.039 A 
HETATM   17  C   UNL     1       7.896  25.261  54.191  1.00  0.00     0.213 C 
HETATM   18  C   UNL     1       8.964  20.734  55.095  1.00  0.00     0.003 A 
HETATM   19  C   UNL     1       8.309  20.356  53.921  1.00  0.00     0.003 A 
ENDBRANCH   9  10
BRANCH   1  20
HETATM   20  N   UNL     1       5.453  26.945  55.546  1.00  0.00    -0.366 N 
HETATM   21  H   UNL     1       5.771  25.988  55.394  1.00  0.00     0.162 HD
BRANCH  20  22
HETATM   22  C   UNL     1       6.305  27.707  56.472  1.00  0.00     0.021 C 
HETATM   23  C   UNL     1       5.471  28.635  57.368  1.00  0.00     0.037 C 
HETATM   24  C   UNL     1       7.404  28.479  55.730  1.00  0.00     0.037 C 
HETATM   25  C   UNL     1       6.987  26.667  57.388  1.00  0.00     0.037 C 
ENDBRANCH  20  22
ENDBRANCH   1  20
TORSDOF 3
ENDMDL
MODEL 6
REMARK VINA RESULT:      -7.6      8.203     11.843
REMARK  3 active torsions:
REMARK  status: ('A' for Active; 'I' for Inactive)
REMARK    1  A    between atoms: C_2  and  N_3 
REMARK    2  A    between atoms: N_3  and  C_4 
REMARK    3  A    between atoms: C_12  and  C_13 
ROOT
HETATM    1  C   UNL     1       6.562  31.705  60.150  1.00  0.00     0.139 A 
HETATM    2  N   UNL     1       7.089  31.108  59.060  1.00  0.00    -0.224 NA
HETATM    3  C   UNL     1       6.668  31.462  57.840  1.00  0.00     0.236 A 
HETATM    4  N   UNL     1       5.754  32.379  57.537  1.00  0.00    -0.234 NA
HETATM    5  C   UNL     1       5.264  32.987  58.629  1.00  0.00     0.113 A 
HETATM    6  C   UNL     1       5.607  32.736  59.953  1.00  0.00     0.055 A 
HETATM    7  S   UNL     1       4.093  34.207  58.456  1.00  0.00    -0.081 SA
HETATM    8  C   UNL     1       4.037  34.470  60.135  1.00  0.00     0.062 A 
HETATM    9  C   UNL     1       4.896  33.646  60.846  1.00  0.00    -0.003 A 
ENDROOT
BRANCH   9  10
HETATM   10  C   UNL     1       5.034  33.748  62.348  1.00  0.00     0.188 C 
HETATM   11  O   UNL     1       4.470  34.976  62.847  1.00  0.00    -0.336 OA
HETATM   12  C   UNL     1       4.559  35.015  64.218  1.00  0.00     0.103 A 
HETATM   13  C   UNL     1       4.728  33.868  65.003  1.00  0.00     0.102 A 
HETATM   14  C   UNL     1       4.481  36.269  64.817  1.00  0.00     0.040 A 
HETATM   15  O   UNL     1       4.804  32.599  64.487  1.00  0.00    -0.345 OA
HETATM   16  C   UNL     1       4.860  33.986  66.385  1.00  0.00     0.039 A 
HETATM   17  C   UNL     1       4.432  32.558  63.099  1.00  0.00     0.213 C 
HETATM   18  C   UNL     1       4.802  35.244  66.985  1.00  0.00     0.003 A 
HETATM   19  C   UNL     1       4.609  36.385  66.203  1.00  0.00     0.003 A 
ENDBRANCH   9  10
BRANCH   1  20
HETATM   20  N   UNL     1       6.965  31.315  61.420  1.00  0.00    -0.366 N 
HETATM   21  H   UNL     1       6.654  30.365  61.622  1.00  0.00     0.162 HD
BRANCH  20  22
HETATM   22  C   UNL     1       8.278  31.640  61.998  1.00  0.00     0.021 C 
HETATM   23  C   UNL     1       8.135  32.400  63.325  1.00  0.00     0.037 C 
HETATM   24  C   UNL     1       9.163  32.404  61.005  1.00  0.00     0.037 C 
HETATM   25  C   UNL     1       8.961  30.291  62.308  1.00  0.00     0.037 C 
ENDBRANCH  20  22
ENDBRANCH   1  20
TORSDOF 3
ENDMDL
MODEL 7
REMARK VINA RESULT:      -7.4      3.855      6.493
REMARK  3 active torsions:
REMARK  status: ('A' for Active; 'I' for Inactive)
REMARK    1  A    between atoms: C_2  and  N_3 
REMARK    2  A    between atoms: N_3  and  C_4 
REMARK    3  A    between atoms: C_12  and  C_13 
ROOT
HETATM    1  C   UNL     1       4.234  28.084  54.300  1.00  0.00     0.139 A 
HETATM    2  N   UNL     1       4.296  28.252  55.638  1.00  0.00    -0.224 NA
HETATM    3  C   UNL     1       4.237  29.485  56.156  1.00  0.00     0.236 A 
HETATM    4  N   UNL     1       4.112  30.632  55.495  1.00  0.00    -0.234 NA
HETATM    5  C   UNL     1       4.019  30.446  54.169  1.00  0.00     0.113 A 
HETATM    6  C   UNL     1       4.054  29.234  53.488  1.00  0.00     0.055 A 
HETATM    7  S   UNL     1       3.834  31.789  53.144  1.00  0.00    -0.081 SA
HETATM    8  C   UNL     1       3.753  30.797  51.765  1.00  0.00     0.062 A 
HETATM    9  C   UNL     1       3.862  29.446  52.057  1.00  0.00    -0.003 A 
ENDROOT
BRANCH   9  10
HETATM   10  C   UNL     1       3.768  28.390  50.979  1.00  0.00     0.188 C 
HETATM   11  O   UNL     1       2.828  28.764  49.955  1.00  0.00    -0.336 OA
HETATM   12  C   UNL     1       2.807  27.813  48.962  1.00  0.00     0.103 A 
HETATM   13  C   UNL     1       3.851  26.903  48.757  1.00  0.00     0.102 A 
HETATM   14  C   UNL     1       1.677  27.779  48.149  1.00  0.00     0.040 A 
HETATM   15  O   UNL     1       4.998  26.882  49.509  1.00  0.00    -0.345 OA
HETATM   16  C   UNL     1       3.741  25.934  47.762  1.00  0.00     0.039 A 
HETATM   17  C   UNL     1       5.118  28.045  50.343  1.00  0.00     0.213 C 
HETATM   18  C   UNL     1       2.601  25.886  46.959  1.00  0.00     0.003 A 
HETATM   19  C   UNL     1       1.571  26.810  47.150  1.00  0.00     0.003 A 
ENDBRANCH   9  10
BRANCH   1  20
HETATM   20  N   UNL     1       4.334  26.812  53.754  1.00  0.00    -0.366 N 
HETATM   21  H   UNL     1       3.786  26.743  52.896  1.00  0.00     0.162 HD
BRANCH  20  22
HETATM   22  C   UNL     1       5.580  26.031  53.720  1.00  0.00     0.021 C 
HETATM   23  C   UNL     1       5.770  25.222  55.012  1.00  0.00     0.037 C 
HETATM   24  C   UNL     1       6.798  26.915  53.425  1.00  0.00     0.037 C 
HETATM   25  C   UNL     1       5.428  25.023  52.560  1.00  0.00     0.037 C 
ENDBRANCH  20  22
ENDBRANCH   1  20
TORSDOF 3
ENDMDL
MODEL 8
REMARK VINA RESULT:      -7.3      5.886      8.224
REMARK  3 active torsions:
REMARK  status: ('A' for Active; 'I' for Inactive)
REMARK    1  A    between atoms: C_2  and  N_3 
REMARK    2  A    between atoms: N_3  and  C_4 
REMARK    3  A    between atoms: C_12  and  C_13 
ROOT
HETATM    1  C   UNL     1       5.586  33.308  60.692  1.00  0.00     0.139 A 
HETATM    2  N   UNL     1       4.518  34.099  60.929  1.00  0.00    -0.224 NA
HETATM    3  C   UNL     1       4.274  34.531  62.172  1.00  0.00     0.236 A 
HETATM    4  N   UNL     1       4.985  34.278  63.268  1.00  0.00    -0.234 NA
HETATM    5  C   UNL     1       6.060  33.518  63.011  1.00  0.00     0.113 A 
HETATM    6  C   UNL     1       6.449  33.004  61.778  1.00  0.00     0.055 A 
HETATM    7  S   UNL     1       7.112  33.096  64.278  1.00  0.00    -0.081 SA
HETATM    8  C   UNL     1       8.140  32.252  63.219  1.00  0.00     0.062 A 
HETATM    9  C   UNL     1       7.708  32.277  61.901  1.00  0.00    -0.003 A 
ENDROOT
BRANCH   9  10
HETATM   10  C   UNL     1       8.502  31.626  60.792  1.00  0.00     0.188 C 
HETATM   11  O   UNL     1       7.669  30.786  59.970  1.00  0.00    -0.336 OA
HETATM   12  C   UNL     1       8.405  30.254  58.939  1.00  0.00     0.103 A 
HETATM   13  C   UNL     1       9.613  30.809  58.499  1.00  0.00     0.102 A 
HETATM   14  C   UNL     1       7.899  29.107  58.332  1.00  0.00     0.040 A 
HETATM   15  O   UNL     1      10.168  31.941  59.039  1.00  0.00    -0.345 OA
HETATM   16  C   UNL     1      10.332  30.189  57.479  1.00  0.00     0.039 A 
HETATM   17  C   UNL     1       9.256  32.626  59.912  1.00  0.00     0.213 C 
HETATM   18  C   UNL     1       9.835  29.028  56.884  1.00  0.00     0.003 A 
HETATM   19  C   UNL     1       8.619  28.490  57.307  1.00  0.00     0.003 A 
ENDBRANCH   9  10
BRANCH   1  20
HETATM   20  N   UNL     1       5.824  32.824  59.413  1.00  0.00    -0.366 N 
HETATM   21  H   UNL     1       6.597  32.159  59.416  1.00  0.00     0.162 HD
BRANCH  20  22
HETATM   22  C   UNL     1       4.760  32.485  58.456  1.00  0.00     0.021 C 
HETATM   23  C   UNL     1       4.121  33.745  57.856  1.00  0.00     0.037 C 
HETATM   24  C   UNL     1       3.705  31.562  59.081  1.00  0.00     0.037 C 
HETATM   25  C   UNL     1       5.443  31.717  57.303  1.00  0.00     0.037 C 
ENDBRANCH  20  22
ENDBRANCH   1  20
TORSDOF 3
ENDMDL
MODEL 9
REMARK VINA RESULT:      -7.3      2.696      5.664
REMARK  3 active torsions:
REMARK  status: ('A' for Active; 'I' for Inactive)
REMARK    1  A    between atoms: C_2  and  N_3 
REMARK    2  A    between atoms: N_3  and  C_4 
REMARK    3  A    between atoms: C_12  and  C_13 
ROOT
HETATM    1  C   UNL     1       5.989  27.161  53.955  1.00  0.00     0.139 A 
HETATM    2  N   UNL     1       5.129  26.927  52.941  1.00  0.00    -0.224 NA
HETATM    3  C   UNL     1       4.955  25.679  52.492  1.00  0.00     0.236 A 
HETATM    4  N   UNL     1       5.542  24.572  52.938  1.00  0.00    -0.234 NA
HETATM    5  C   UNL     1       6.369  24.816  53.967  1.00  0.00     0.113 A 
HETATM    6  C   UNL     1       6.644  26.050  54.547  1.00  0.00     0.055 A 
HETATM    7  S   UNL     1       7.206  23.528  54.695  1.00  0.00    -0.081 SA
HETATM    8  C   UNL     1       7.928  24.566  55.832  1.00  0.00     0.062 A 
HETATM    9  C   UNL     1       7.550  25.891  55.680  1.00  0.00    -0.003 A 
ENDROOT
BRANCH   9  10
HETATM   10  C   UNL     1       8.042  26.970  56.617  1.00  0.00     0.188 C 
HETATM   11  O   UNL     1       8.704  28.030  55.900  1.00  0.00    -0.336 OA
HETATM   12  C   UNL     1       9.089  29.021  56.770  1.00  0.00     0.103 A 
HETATM   13  C   UNL     1       8.518  29.187  58.038  1.00  0.00     0.102 A 
HETATM   14  C   UNL     1      10.101  29.876  56.341  1.00  0.00     0.040 A 
HETATM   15  O   UNL     1       7.511  28.393  58.526  1.00  0.00    -0.345 OA
HETATM   16  C   UNL     1       8.991  30.185  58.888  1.00  0.00     0.039 A 
HETATM   17  C   UNL     1       6.942  27.556  57.506  1.00  0.00     0.213 C 
HETATM   18  C   UNL     1      10.019  31.029  58.466  1.00  0.00     0.003 A 
HETATM   19  C   UNL     1      10.571  30.878  57.192  1.00  0.00     0.003 A 
ENDBRANCH   9  10
BRANCH   1  20
HETATM   20  N   UNL     1       6.204  28.458  54.400  1.00  0.00    -0.366 N 
HETATM   21  H   UNL     1       6.837  28.954  53.773  1.00  0.00     0.162 HD
BRANCH  20  22
HETATM   22  C   UNL     1       5.152  29.313  54.971  1.00  0.00     0.021 C 
HETATM   23  C   UNL     1       5.746  30.429  55.842  1.00  0.00     0.037 C 
HETATM   24  C   UNL     1       4.109  28.493  55.742  1.00  0.00     0.037 C 
HETATM   25  C   UNL     1       4.443  29.984  53.775  1.00  0.00     0.037 C 
ENDBRANCH  20  22
ENDBRANCH   1  20
TORSDOF 3
ENDMDL
MODEL 10
REMARK VINA RESULT:      -7.2      3.098      6.529
REMARK  3 active torsions:
REMARK  status: ('A' for Active; 'I' for Inactive)
REMARK    1  A    between atoms: C_2  and  N_3 
REMARK    2  A    between atoms: N_3  and  C_4 
REMARK    3  A    between atoms: C_12  and  C_13 
ROOT
HETATM    1  C   UNL     1       6.058  27.810  54.913  1.00  0.00     0.139 A 
HETATM    2  N   UNL     1       5.136  27.200  54.138  1.00  0.00    -0.224 NA
HETATM    3  C   UNL     1       5.089  25.864  54.088  1.00  0.00     0.236 A 
HETATM    4  N   UNL     1       5.866  25.005  54.741  1.00  0.00    -0.234 NA
HETATM    5  C   UNL     1       6.755  25.625  55.532  1.00  0.00     0.113 A 
HETATM    6  C   UNL     1       6.918  26.996  55.696  1.00  0.00     0.055 A 
HETATM    7  S   UNL     1       7.832  24.702  56.469  1.00  0.00    -0.081 SA
HETATM    8  C   UNL     1       8.522  26.098  57.154  1.00  0.00     0.062 A 
HETATM    9  C   UNL     1       7.952  27.273  56.689  1.00  0.00    -0.003 A 
ENDROOT
BRANCH   9  10
HETATM   10  C   UNL     1       8.387  28.626  57.204  1.00  0.00     0.188 C 
HETATM   11  O   UNL     1       8.098  28.774  58.607  1.00  0.00    -0.336 OA
HETATM   12  C   UNL     1       8.556  29.989  59.059  1.00  0.00     0.103 A 
HETATM   13  C   UNL     1       9.540  30.728  58.391  1.00  0.00     0.102 A 
HETATM   14  C   UNL     1       7.987  30.477  60.232  1.00  0.00     0.040 A 
HETATM   15  O   UNL     1      10.152  30.309  57.238  1.00  0.00    -0.345 OA
HETATM   16  C   UNL     1       9.921  31.976  58.880  1.00  0.00     0.039 A 
HETATM   17  C   UNL     1       9.864  28.932  56.944  1.00  0.00     0.213 C 
HETATM   18  C   UNL     1       9.338  32.476  60.045  1.00  0.00     0.003 A 
HETATM   19  C   UNL     1       8.375  31.726  60.723  1.00  0.00     0.003 A 
ENDBRANCH   9  10
BRANCH   1  20
HETATM   20  N   UNL     1       6.139  29.195  54.939  1.00  0.00    -0.366 N 
HETATM   21  H   UNL     1       6.500  29.552  54.054  1.00  0.00     0.162 HD
BRANCH  20  22
HETATM   22  C   UNL     1       5.123  30.063  55.553  1.00  0.00     0.021 C 
HETATM   23  C   UNL     1       4.197  29.271  56.488  1.00  0.00     0.037 C 
HETATM   24  C   UNL     1       4.325  30.840  54.497  1.00  0.00     0.037 C 
HETATM   25  C   UNL     1       5.891  31.085  56.418  1.00  0.00     0.037 C 
ENDBRANCH  20  22
ENDBRANCH   1  20
TORSDOF 3
ENDMDL
