MODEL 1
REMARK VINA RESULT:      -9.5      0.000      0.000
REMARK  6 active torsions:
REMARK  status: ('A' for Active; 'I' for Inactive)
REMARK    1  A    between atoms: O_2  and  C_3 
REMARK    2  A    between atoms: C_4  and  C_5 
REMARK    3  A    between atoms: C_5  and  N_6 
REMARK    4  A    between atoms: N_6  and  C_7 
REMARK    5  A    between atoms: C_9  and  N_10 
REMARK    6  A    between atoms: N_10  and  C_11 
ROOT
HETATM    1  C   UNL     1       7.276  25.490  56.923  1.00  0.00     0.181 A 
HETATM    2  N   UNL     1       7.803  26.401  57.746  1.00  0.00    -0.207 NA
HETATM    3  C   UNL     1       7.373  27.670  57.644  1.00  0.00     0.119 A 
HETATM    4  C   UNL     1       6.393  28.041  56.697  1.00  0.00     0.031 A 
HETATM    5  C   UNL     1       5.892  27.020  55.862  1.00  0.00     0.048 A 
HETATM    6  N   UNL     1       6.348  25.770  56.015  1.00  0.00    -0.330 N 
HETATM    7  H   UNL     1       5.964  24.994  55.488  1.00  0.00     0.168 HD
HETATM    8  C   UNL     1       5.864  29.343  56.542  1.00  0.00     0.017 A 
HETATM    9  C   UNL     1       4.892  29.616  55.577  1.00  0.00     0.001 A 
HETATM   10  C   UNL     1       4.422  28.598  54.753  1.00  0.00     0.002 A 
HETATM   11  C   UNL     1       4.914  27.301  54.895  1.00  0.00     0.030 A 
ENDROOT
BRANCH   1  12
HETATM   12  N   UNL     1       7.665  24.182  57.125  1.00  0.00    -0.258 NA
HETATM   13  H   UNL     1       7.778  24.074  58.135  1.00  0.00     0.130 HD
BRANCH  12  14
HETATM   14  C   UNL     1       8.838  23.689  56.407  1.00  0.00     0.136 C 
BRANCH  14  15
HETATM   15  C   UNL     1       8.448  22.689  55.339  1.00  0.00    -0.012 A 
HETATM   16  C   UNL     1       8.130  23.147  54.044  1.00  0.00     0.075 A 
HETATM   17  C   UNL     1       7.830  22.229  53.030  1.00  0.00     0.037 A 
HETATM   18  C   UNL     1       7.872  20.858  53.285  1.00  0.00     0.003 A 
HETATM   19  C   UNL     1       8.210  20.394  54.550  1.00  0.00     0.001 A 
HETATM   20  C   UNL     1       8.502  21.301  55.568  1.00  0.00     0.011 A 
BRANCH  16  21
HETATM   21  O   UNL     1       8.121  24.509  53.875  1.00  0.00    -0.355 OA
HETATM   22  C   UNL     1       7.980  24.976  52.534  1.00  0.00     0.210 C 
ENDBRANCH  16  21
ENDBRANCH  14  15
ENDBRANCH  12  14
ENDBRANCH   1  12
BRANCH   3  23
HETATM   23  N   UNL     1       7.858  28.619  58.553  1.00  0.00    -0.272 NA
HETATM   24  H   UNL     1       7.123  28.908  59.196  1.00  0.00     0.129 HD
BRANCH  23  25
HETATM   25  C   UNL     1       8.575  29.775  58.009  1.00  0.00     0.061 C 
HETATM   26  C   UNL     1       9.147  30.621  59.145  1.00  0.00     0.020 C 
HETATM   27  C   UNL     1      10.201  31.464  58.447  1.00  0.00     0.002 C 
HETATM   28  C   UNL     1      10.820  30.533  57.411  1.00  0.00     0.002 C 
HETATM   29  C   UNL     1       9.830  29.381  57.225  1.00  0.00     0.020 C 
ENDBRANCH  23  25
ENDBRANCH   3  23
TORSDOF 6
ENDMDL
MODEL 2
REMARK VINA RESULT:      -9.0      3.156      5.828
REMARK  6 active torsions:
REMARK  status: ('A' for Active; 'I' for Inactive)
REMARK    1  A    between atoms: O_2  and  C_3 
REMARK    2  A    between atoms: C_4  and  C_5 
REMARK    3  A    between atoms: C_5  and  N_6 
REMARK    4  A    between atoms: N_6  and  C_7 
REMARK    5  A    between atoms: C_9  and  N_10 
REMARK    6  A    between atoms: N_10  and  C_11 
ROOT
HETATM    1  C   UNL     1       5.975  24.805  53.280  1.00  0.00     0.181 A 
HETATM    2  N   UNL     1       5.441  25.421  52.220  1.00  0.00    -0.207 NA
HETATM    3  C   UNL     1       4.849  26.611  52.413  1.00  0.00     0.119 A 
HETATM    4  C   UNL     1       4.784  27.203  53.694  1.00  0.00     0.031 A 
HETATM    5  C   UNL     1       5.364  26.485  54.760  1.00  0.00     0.048 A 
HETATM    6  N   UNL     1       5.953  25.308  54.509  1.00  0.00    -0.330 N 
HETATM    7  H   UNL     1       6.446  24.794  55.230  1.00  0.00     0.168 HD
HETATM    8  C   UNL     1       4.206  28.462  53.978  1.00  0.00     0.017 A 
HETATM    9  C   UNL     1       4.190  28.969  55.280  1.00  0.00     0.001 A 
HETATM   10  C   UNL     1       4.756  28.239  56.321  1.00  0.00     0.002 A 
HETATM   11  C   UNL     1       5.347  27.001  56.064  1.00  0.00     0.030 A 
ENDROOT
BRANCH   1  12
HETATM   12  N   UNL     1       6.664  23.637  53.029  1.00  0.00    -0.258 NA
HETATM   13  H   UNL     1       6.129  22.891  53.478  1.00  0.00     0.130 HD
BRANCH  12  14
HETATM   14  C   UNL     1       8.075  23.573  53.401  1.00  0.00     0.136 C 
BRANCH  14  15
HETATM   15  C   UNL     1       8.348  22.406  54.326  1.00  0.00    -0.012 A 
HETATM   16  C   UNL     1       8.208  22.579  55.718  1.00  0.00     0.075 A 
HETATM   17  C   UNL     1       8.395  21.493  56.581  1.00  0.00     0.037 A 
HETATM   18  C   UNL     1       8.691  20.229  56.071  1.00  0.00     0.003 A 
HETATM   19  C   UNL     1       8.804  20.040  54.700  1.00  0.00     0.001 A 
HETATM   20  C   UNL     1       8.629  21.118  53.833  1.00  0.00     0.011 A 
BRANCH  16  21
HETATM   21  O   UNL     1       7.907  23.850  56.137  1.00  0.00    -0.355 OA
HETATM   22  C   UNL     1       8.693  24.363  57.212  1.00  0.00     0.210 C 
ENDBRANCH  16  21
ENDBRANCH  14  15
ENDBRANCH  12  14
ENDBRANCH   1  12
BRANCH   3  23
HETATM   23  N   UNL     1       4.356  27.304  51.299  1.00  0.00    -0.272 NA
HETATM   24  H   UNL     1       3.350  27.170  51.210  1.00  0.00     0.129 HD
BRANCH  23  25
HETATM   25  C   UNL     1       5.035  27.101  50.018  1.00  0.00     0.061 C 
HETATM   26  C   UNL     1       4.109  26.380  49.040  1.00  0.00     0.020 C 
HETATM   27  C   UNL     1       4.754  26.656  47.692  1.00  0.00     0.002 C 
HETATM   28  C   UNL     1       5.273  28.086  47.794  1.00  0.00     0.002 C 
HETATM   29  C   UNL     1       5.332  28.413  49.287  1.00  0.00     0.020 C 
ENDBRANCH  23  25
ENDBRANCH   3  23
TORSDOF 6
ENDMDL
MODEL 3
REMARK VINA RESULT:      -9.0      2.474      3.694
REMARK  6 active torsions:
REMARK  status: ('A' for Active; 'I' for Inactive)
REMARK    1  A    between atoms: O_2  and  C_3 
REMARK    2  A    between atoms: C_4  and  C_5 
REMARK    3  A    between atoms: C_5  and  N_6 
REMARK    4  A    between atoms: N_6  and  C_7 
REMARK    5  A    between atoms: C_9  and  N_10 
REMARK    6  A    between atoms: N_10  and  C_11 
ROOT
HETATM    1  C   UNL     1       7.407  25.526  52.584  1.00  0.00     0.181 A 
HETATM    2  N   UNL     1       7.565  26.478  53.509  1.00  0.00    -0.207 NA
HETATM    3  C   UNL     1       6.846  27.606  53.386  1.00  0.00     0.119 A 
HETATM    4  C   UNL     1       5.946  27.793  52.313  1.00  0.00     0.031 A 
HETATM    5  C   UNL     1       5.843  26.743  51.376  1.00  0.00     0.048 A 
HETATM    6  N   UNL     1       6.575  25.635  51.553  1.00  0.00    -0.330 N 
HETATM    7  H   UNL     1       6.478  24.830  50.947  1.00  0.00     0.168 HD
HETATM    8  C   UNL     1       5.132  28.933  52.125  1.00  0.00     0.017 A 
HETATM    9  C   UNL     1       4.268  29.028  51.032  1.00  0.00     0.001 A 
HETATM   10  C   UNL     1       4.191  27.988  50.110  1.00  0.00     0.002 A 
HETATM   11  C   UNL     1       4.971  26.845  50.281  1.00  0.00     0.030 A 
ENDROOT
BRANCH   1  12
HETATM   12  N   UNL     1       8.082  24.343  52.797  1.00  0.00    -0.258 NA
HETATM   13  H   UNL     1       8.820  24.308  52.090  1.00  0.00     0.130 HD
BRANCH  12  14
HETATM   14  C   UNL     1       7.313  23.101  52.821  1.00  0.00     0.136 C 
BRANCH  14  15
HETATM   15  C   UNL     1       7.838  22.149  53.874  1.00  0.00    -0.012 A 
HETATM   16  C   UNL     1       7.610  22.430  55.237  1.00  0.00     0.075 A 
HETATM   17  C   UNL     1       8.034  21.527  56.219  1.00  0.00     0.037 A 
HETATM   18  C   UNL     1       8.658  20.332  55.857  1.00  0.00     0.003 A 
HETATM   19  C   UNL     1       8.864  20.032  54.516  1.00  0.00     0.001 A 
HETATM   20  C   UNL     1       8.453  20.930  53.532  1.00  0.00     0.011 A 
BRANCH  16  21
HETATM   21  O   UNL     1       6.983  23.620  55.508  1.00  0.00    -0.355 OA
HETATM   22  C   UNL     1       7.527  24.391  56.578  1.00  0.00     0.210 C 
ENDBRANCH  16  21
ENDBRANCH  14  15
ENDBRANCH  12  14
ENDBRANCH   1  12
BRANCH   3  23
HETATM   23  N   UNL     1       6.943  28.577  54.392  1.00  0.00    -0.272 NA
HETATM   24  H   UNL     1       7.255  29.465  54.003  1.00  0.00     0.129 HD
BRANCH  23  25
HETATM   25  C   UNL     1       7.693  28.231  55.600  1.00  0.00     0.061 C 
HETATM   26  C   UNL     1       8.837  29.222  55.811  1.00  0.00     0.020 C 
HETATM   27  C   UNL     1       9.200  29.019  57.273  1.00  0.00     0.002 C 
HETATM   28  C   UNL     1       7.868  28.780  57.975  1.00  0.00     0.002 C 
HETATM   29  C   UNL     1       6.870  28.398  56.880  1.00  0.00     0.020 C 
ENDBRANCH  23  25
ENDBRANCH   3  23
TORSDOF 6
ENDMDL
MODEL 4
REMARK VINA RESULT:      -9.0      2.771      7.270
REMARK  6 active torsions:
REMARK  status: ('A' for Active; 'I' for Inactive)
REMARK    1  A    between atoms: O_2  and  C_3 
REMARK    2  A    between atoms: C_4  and  C_5 
REMARK    3  A    between atoms: C_5  and  N_6 
REMARK    4  A    between atoms: N_6  and  C_7 
REMARK    5  A    between atoms: C_9  and  N_10 
REMARK    6  A    between atoms: N_10  and  C_11 
ROOT
HETATM    1  C   UNL     1       6.557  28.144  54.191  1.00  0.00     0.181 A 
HETATM    2  N   UNL     1       6.520  26.829  54.429  1.00  0.00    -0.207 NA
HETATM    3  C   UNL     1       6.072  26.021  53.453  1.00  0.00     0.119 A 
HETATM    4  C   UNL     1       5.649  26.535  52.208  1.00  0.00     0.031 A 
HETATM    5  C   UNL     1       5.713  27.934  52.039  1.00  0.00     0.048 A 
HETATM    6  N   UNL     1       6.179  28.692  53.041  1.00  0.00    -0.330 N 
HETATM    7  H   UNL     1       6.311  29.691  52.937  1.00  0.00     0.168 HD
HETATM    8  C   UNL     1       5.193  25.756  51.120  1.00  0.00     0.017 A 
HETATM    9  C   UNL     1       4.796  26.355  49.922  1.00  0.00     0.001 A 
HETATM   10  C   UNL     1       4.853  27.738  49.780  1.00  0.00     0.002 A 
HETATM   11  C   UNL     1       5.315  28.529  50.832  1.00  0.00     0.030 A 
ENDROOT
BRANCH   1  12
HETATM   12  N   UNL     1       7.118  28.931  55.175  1.00  0.00    -0.258 NA
HETATM   13  H   UNL     1       7.549  29.722  54.691  1.00  0.00     0.130 HD
BRANCH  12  14
HETATM   14  C   UNL     1       8.051  28.310  56.110  1.00  0.00     0.136 C 
BRANCH  14  15
HETATM   15  C   UNL     1       8.868  29.351  56.845  1.00  0.00    -0.012 A 
HETATM   16  C   UNL     1       8.257  30.128  57.851  1.00  0.00     0.075 A 
HETATM   17  C   UNL     1       9.015  31.050  58.582  1.00  0.00     0.037 A 
HETATM   18  C   UNL     1      10.383  31.187  58.342  1.00  0.00     0.003 A 
HETATM   19  C   UNL     1      11.002  30.407  57.373  1.00  0.00     0.001 A 
HETATM   20  C   UNL     1      10.253  29.493  56.634  1.00  0.00     0.011 A 
BRANCH  16  21
HETATM   21  O   UNL     1       6.912  29.926  58.030  1.00  0.00    -0.355 OA
HETATM   22  C   UNL     1       6.102  31.099  58.100  1.00  0.00     0.210 C 
ENDBRANCH  16  21
ENDBRANCH  14  15
ENDBRANCH  12  14
ENDBRANCH   1  12
BRANCH   3  23
HETATM   23  N   UNL     1       6.103  24.636  53.661  1.00  0.00    -0.272 NA
HETATM   24  H   UNL     1       5.431  24.366  54.377  1.00  0.00     0.129 HD
BRANCH  23  25
HETATM   25  C   UNL     1       7.407  24.013  53.894  1.00  0.00     0.061 C 
HETATM   26  C   UNL     1       7.386  23.219  55.199  1.00  0.00     0.020 C 
HETATM   27  C   UNL     1       8.589  22.301  55.061  1.00  0.00     0.002 C 
HETATM   28  C   UNL     1       8.612  21.909  53.588  1.00  0.00     0.002 C 
HETATM   29  C   UNL     1       7.747  22.938  52.858  1.00  0.00     0.020 C 
ENDBRANCH  23  25
ENDBRANCH   3  23
TORSDOF 6
ENDMDL
MODEL 5
REMARK VINA RESULT:      -8.9      2.229      7.401
REMARK  6 active torsions:
REMARK  status: ('A' for Active; 'I' for Inactive)
REMARK    1  A    between atoms: O_2  and  C_3 
REMARK    2  A    between atoms: C_4  and  C_5 
REMARK    3  A    between atoms: C_5  and  N_6 
REMARK    4  A    between atoms: N_6  and  C_7 
REMARK    5  A    between atoms: C_9  and  N_10 
REMARK    6  A    between atoms: N_10  and  C_11 
ROOT
HETATM    1  C   UNL     1       7.445  26.344  56.305  1.00  0.00     0.181 A 
HETATM    2  N   UNL     1       7.277  25.018  56.303  1.00  0.00    -0.207 NA
HETATM    3  C   UNL     1       6.793  24.443  55.189  1.00  0.00     0.119 A 
HETATM    4  C   UNL     1       6.465  25.208  54.049  1.00  0.00     0.031 A 
HETATM    5  C   UNL     1       6.665  26.602  54.135  1.00  0.00     0.048 A 
HETATM    6  N   UNL     1       7.162  27.121  55.265  1.00  0.00    -0.330 N 
HETATM    7  H   UNL     1       7.390  28.105  55.346  1.00  0.00     0.168 HD
HETATM    8  C   UNL     1       5.979  24.682  52.830  1.00  0.00     0.017 A 
HETATM    9  C   UNL     1       5.684  25.519  51.751  1.00  0.00     0.001 A 
HETATM   10  C   UNL     1       5.874  26.894  51.861  1.00  0.00     0.002 A 
HETATM   11  C   UNL     1       6.369  27.437  53.047  1.00  0.00     0.030 A 
ENDROOT
BRANCH   1  12
HETATM   12  N   UNL     1       8.040  26.886  57.426  1.00  0.00    -0.258 NA
HETATM   13  H   UNL     1       7.939  26.187  58.165  1.00  0.00     0.130 HD
BRANCH  12  14
HETATM   14  C   UNL     1       7.593  28.202  57.878  1.00  0.00     0.136 C 
BRANCH  14  15
HETATM   15  C   UNL     1       8.708  29.222  57.785  1.00  0.00    -0.012 A 
HETATM   16  C   UNL     1       8.658  30.378  58.591  1.00  0.00     0.075 A 
HETATM   17  C   UNL     1       9.712  31.298  58.561  1.00  0.00     0.037 A 
HETATM   18  C   UNL     1      10.830  31.067  57.759  1.00  0.00     0.003 A 
HETATM   19  C   UNL     1      10.902  29.918  56.980  1.00  0.00     0.001 A 
HETATM   20  C   UNL     1       9.853  29.000  56.996  1.00  0.00     0.011 A 
BRANCH  16  21
HETATM   21  O   UNL     1       7.530  30.526  59.358  1.00  0.00    -0.355 OA
HETATM   22  C   UNL     1       7.038  31.857  59.505  1.00  0.00     0.210 C 
ENDBRANCH  16  21
ENDBRANCH  14  15
ENDBRANCH  12  14
ENDBRANCH   1  12
BRANCH   3  23
HETATM   23  N   UNL     1       6.687  23.047  55.146  1.00  0.00    -0.272 NA
HETATM   24  H   UNL     1       6.260  22.693  56.000  1.00  0.00     0.129 HD
BRANCH  23  25
HETATM   25  C   UNL     1       7.888  22.286  54.797  1.00  0.00     0.061 C 
HETATM   26  C   UNL     1       7.902  20.953  55.544  1.00  0.00     0.020 C 
HETATM   27  C   UNL     1       8.907  20.129  54.756  1.00  0.00     0.002 C 
HETATM   28  C   UNL     1       8.675  20.521  53.301  1.00  0.00     0.002 C 
HETATM   29  C   UNL     1       7.908  21.844  53.331  1.00  0.00     0.020 C 
ENDBRANCH  23  25
ENDBRANCH   3  23
TORSDOF 6
ENDMDL
MODEL 6
REMARK VINA RESULT:      -8.9      1.528      4.308
REMARK  6 active torsions:
REMARK  status: ('A' for Active; 'I' for Inactive)
REMARK    1  A    between atoms: O_2  and  C_3 
REMARK    2  A    between atoms: C_4  and  C_5 
REMARK    3  A    between atoms: C_5  and  N_6 
REMARK    4  A    between atoms: N_6  and  C_7 
REMARK    5  A    between atoms: C_9  and  N_10 
REMARK    6  A    between atoms: N_10  and  C_11 
ROOT
HETATM    1  C   UNL     1       6.891  25.352  56.997  1.00  0.00     0.181 A 
HETATM    2  N   UNL     1       5.995  25.465  56.012  1.00  0.00    -0.207 NA
HETATM    3  C   UNL     1       5.598  26.699  55.657  1.00  0.00     0.119 A 
HETATM    4  C   UNL     1       6.106  27.849  56.299  1.00  0.00     0.031 A 
HETATM    5  C   UNL     1       7.043  27.643  57.333  1.00  0.00     0.048 A 
HETATM    6  N   UNL     1       7.413  26.393  57.639  1.00  0.00    -0.330 N 
HETATM    7  H   UNL     1       8.135  26.202  58.323  1.00  0.00     0.168 HD
HETATM    8  C   UNL     1       5.765  29.181  55.969  1.00  0.00     0.017 A 
HETATM    9  C   UNL     1       6.322  30.260  56.660  1.00  0.00     0.001 A 
HETATM   10  C   UNL     1       7.234  30.035  57.687  1.00  0.00     0.002 A 
HETATM   11  C   UNL     1       7.600  28.731  58.022  1.00  0.00     0.030 A 
ENDROOT
BRANCH   1  12
HETATM   12  N   UNL     1       7.352  24.080  57.266  1.00  0.00    -0.258 NA
HETATM   13  H   UNL     1       7.348  23.987  58.284  1.00  0.00     0.130 HD
BRANCH  12  14
HETATM   14  C   UNL     1       8.639  23.677  56.704  1.00  0.00     0.136 C 
BRANCH  14  15
HETATM   15  C   UNL     1       8.477  22.540  55.719  1.00  0.00    -0.012 A 
HETATM   16  C   UNL     1       8.347  22.826  54.344  1.00  0.00     0.075 A 
HETATM   17  C   UNL     1       8.260  21.782  53.416  1.00  0.00     0.037 A 
HETATM   18  C   UNL     1       8.329  20.455  53.838  1.00  0.00     0.003 A 
HETATM   19  C   UNL     1       8.484  20.159  55.187  1.00  0.00     0.001 A 
HETATM   20  C   UNL     1       8.563  21.193  56.120  1.00  0.00     0.011 A 
BRANCH  16  21
HETATM   21  O   UNL     1       8.296  24.156  54.012  1.00  0.00    -0.355 OA
HETATM   22  C   UNL     1       8.127  24.454  52.626  1.00  0.00     0.210 C 
ENDBRANCH  16  21
ENDBRANCH  14  15
ENDBRANCH  12  14
ENDBRANCH   1  12
BRANCH   3  23
HETATM   23  N   UNL     1       4.720  26.835  54.574  1.00  0.00    -0.272 NA
HETATM   24  H   UNL     1       3.934  26.193  54.666  1.00  0.00     0.129 HD
BRANCH  23  25
HETATM   25  C   UNL     1       5.291  26.787  53.227  1.00  0.00     0.061 C 
HETATM   26  C   UNL     1       4.832  25.520  52.506  1.00  0.00     0.020 C 
HETATM   27  C   UNL     1       5.107  25.839  51.045  1.00  0.00     0.002 C 
HETATM   28  C   UNL     1       4.766  27.317  50.899  1.00  0.00     0.002 C 
HETATM   29  C   UNL     1       4.759  27.897  52.315  1.00  0.00     0.020 C 
ENDBRANCH  23  25
ENDBRANCH   3  23
TORSDOF 6
ENDMDL
MODEL 7
REMARK VINA RESULT:      -8.9      3.844      7.175
REMARK  6 active torsions:
REMARK  status: ('A' for Active; 'I' for Inactive)
REMARK    1  A    between atoms: O_2  and  C_3 
REMARK    2  A    between atoms: C_4  and  C_5 
REMARK    3  A    between atoms: C_5  and  N_6 
REMARK    4  A    between atoms: N_6  and  C_7 
REMARK    5  A    between atoms: C_9  and  N_10 
REMARK    6  A    between atoms: N_10  and  C_11 
ROOT
HETATM    1  C   UNL     1       5.447  26.373  53.043  1.00  0.00     0.181 A 
HETATM    2  N   UNL     1       6.354  25.392  53.094  1.00  0.00    -0.207 NA
HETATM    3  C   UNL     1       7.108  25.284  54.200  1.00  0.00     0.119 A 
HETATM    4  C   UNL     1       6.957  26.176  55.284  1.00  0.00     0.031 A 
HETATM    5  C   UNL     1       5.984  27.187  55.149  1.00  0.00     0.048 A 
HETATM    6  N   UNL     1       5.250  27.242  54.029  1.00  0.00    -0.330 N 
HETATM    7  H   UNL     1       4.492  27.904  53.920  1.00  0.00     0.168 HD
HETATM    8  C   UNL     1       7.688  26.116  56.494  1.00  0.00     0.017 A 
HETATM    9  C   UNL     1       7.467  27.043  57.515  1.00  0.00     0.001 A 
HETATM   10  C   UNL     1       6.512  28.043  57.356  1.00  0.00     0.002 A 
HETATM   11  C   UNL     1       5.766  28.115  56.180  1.00  0.00     0.030 A 
ENDROOT
BRANCH   1  12
HETATM   12  N   UNL     1       4.621  26.391  51.939  1.00  0.00    -0.258 NA
HETATM   13  H   UNL     1       3.784  25.868  52.204  1.00  0.00     0.130 HD
BRANCH  12  14
HETATM   14  C   UNL     1       5.159  25.917  50.665  1.00  0.00     0.136 C 
BRANCH  14  15
HETATM   15  C   UNL     1       4.420  26.531  49.495  1.00  0.00    -0.012 A 
HETATM   16  C   UNL     1       4.603  27.897  49.199  1.00  0.00     0.075 A 
HETATM   17  C   UNL     1       3.976  28.462  48.082  1.00  0.00     0.037 A 
HETATM   18  C   UNL     1       3.190  27.674  47.240  1.00  0.00     0.003 A 
HETATM   19  C   UNL     1       3.024  26.321  47.506  1.00  0.00     0.001 A 
HETATM   20  C   UNL     1       3.638  25.751  48.621  1.00  0.00     0.011 A 
BRANCH  16  21
HETATM   21  O   UNL     1       5.397  28.598  50.071  1.00  0.00    -0.355 OA
HETATM   22  C   UNL     1       5.766  29.916  49.667  1.00  0.00     0.210 C 
ENDBRANCH  16  21
ENDBRANCH  14  15
ENDBRANCH  12  14
ENDBRANCH   1  12
BRANCH   3  23
HETATM   23  N   UNL     1       8.006  24.213  54.298  1.00  0.00    -0.272 NA
HETATM   24  H   UNL     1       8.805  24.357  53.683  1.00  0.00     0.129 HD
BRANCH  23  25
HETATM   25  C   UNL     1       7.466  22.859  54.161  1.00  0.00     0.061 C 
HETATM   26  C   UNL     1       8.118  22.149  52.976  1.00  0.00     0.020 C 
HETATM   27  C   UNL     1       7.817  20.685  53.246  1.00  0.00     0.002 C 
HETATM   28  C   UNL     1       7.934  20.536  54.758  1.00  0.00     0.002 C 
HETATM   29  C   UNL     1       7.835  21.949  55.336  1.00  0.00     0.020 C 
ENDBRANCH  23  25
ENDBRANCH   3  23
TORSDOF 6
ENDMDL
MODEL 8
REMARK VINA RESULT:      -8.8      1.983      7.128
REMARK  6 active torsions:
REMARK  status: ('A' for Active; 'I' for Inactive)
REMARK    1  A    between atoms: O_2  and  C_3 
REMARK    2  A    between atoms: C_4  and  C_5 
REMARK    3  A    between atoms: C_5  and  N_6 
REMARK    4  A    between atoms: N_6  and  C_7 
REMARK    5  A    between atoms: C_9  and  N_10 
REMARK    6  A    between atoms: N_10  and  C_11 
ROOT
HETATM    1  C   UNL     1       7.782  24.361  56.445  1.00  0.00     0.181 A 
HETATM    2  N   UNL     1       7.891  24.940  55.245  1.00  0.00    -0.207 NA
HETATM    3  C   UNL     1       8.091  24.150  54.177  1.00  0.00     0.119 A 
HETATM    4  C   UNL     1       8.186  22.747  54.306  1.00  0.00     0.031 A 
HETATM    5  C   UNL     1       8.067  22.215  55.607  1.00  0.00     0.048 A 
HETATM    6  N   UNL     1       7.856  23.048  56.635  1.00  0.00    -0.330 N 
HETATM    7  H   UNL     1       7.691  22.705  57.574  1.00  0.00     0.168 HD
HETATM    8  C   UNL     1       8.366  21.842  53.234  1.00  0.00     0.017 A 
HETATM    9  C   UNL     1       8.446  20.466  53.459  1.00  0.00     0.001 A 
HETATM   10  C   UNL     1       8.340  19.962  54.752  1.00  0.00     0.002 A 
HETATM   11  C   UNL     1       8.146  20.831  55.826  1.00  0.00     0.030 A 
ENDROOT
BRANCH   1  12
HETATM   12  N   UNL     1       7.475  25.191  57.502  1.00  0.00    -0.258 NA
HETATM   13  H   UNL     1       6.454  25.208  57.560  1.00  0.00     0.130 HD
BRANCH  12  14
HETATM   14  C   UNL     1       8.027  26.543  57.504  1.00  0.00     0.136 C 
BRANCH  14  15
HETATM   15  C   UNL     1       6.936  27.583  57.364  1.00  0.00    -0.012 A 
HETATM   16  C   UNL     1       7.153  28.886  57.858  1.00  0.00     0.075 A 
HETATM   17  C   UNL     1       6.178  29.874  57.679  1.00  0.00     0.037 A 
HETATM   18  C   UNL     1       5.000  29.587  56.989  1.00  0.00     0.003 A 
HETATM   19  C   UNL     1       4.787  28.315  56.474  1.00  0.00     0.001 A 
HETATM   20  C   UNL     1       5.748  27.322  56.655  1.00  0.00     0.011 A 
BRANCH  16  21
HETATM   21  O   UNL     1       8.340  29.087  58.516  1.00  0.00    -0.355 OA
HETATM   22  C   UNL     1       9.050  30.279  58.183  1.00  0.00     0.210 C 
ENDBRANCH  16  21
ENDBRANCH  14  15
ENDBRANCH  12  14
ENDBRANCH   1  12
BRANCH   3  23
HETATM   23  N   UNL     1       8.128  24.737  52.905  1.00  0.00    -0.272 NA
HETATM   24  H   UNL     1       8.891  25.408  52.842  1.00  0.00     0.129 HD
BRANCH  23  25
HETATM   25  C   UNL     1       6.881  25.297  52.380  1.00  0.00     0.061 C 
HETATM   26  C   UNL     1       5.687  24.488  52.883  1.00  0.00     0.020 C 
HETATM   27  C   UNL     1       4.515  25.428  52.652  1.00  0.00     0.002 C 
HETATM   28  C   UNL     1       5.060  26.815  52.972  1.00  0.00     0.002 C 
HETATM   29  C   UNL     1       6.584  26.698  52.922  1.00  0.00     0.020 C 
ENDBRANCH  23  25
ENDBRANCH   3  23
TORSDOF 6
ENDMDL
MODEL 9
REMARK VINA RESULT:      -8.7      3.940      6.558
REMARK  6 active torsions:
REMARK  status: ('A' for Active; 'I' for Inactive)
REMARK    1  A    between atoms: O_2  and  C_3 
REMARK    2  A    between atoms: C_4  and  C_5 
REMARK    3  A    between atoms: C_5  and  N_6 
REMARK    4  A    between atoms: N_6  and  C_7 
REMARK    5  A    between atoms: C_9  and  N_10 
REMARK    6  A    between atoms: N_10  and  C_11 
ROOT
HETATM    1  C   UNL     1       5.236  25.377  52.688  1.00  0.00     0.181 A 
HETATM    2  N   UNL     1       5.120  25.891  53.917  1.00  0.00    -0.207 NA
HETATM    3  C   UNL     1       5.915  25.404  54.884  1.00  0.00     0.119 A 
HETATM    4  C   UNL     1       6.849  24.377  54.622  1.00  0.00     0.031 A 
HETATM    5  C   UNL     1       6.904  23.885  53.301  1.00  0.00     0.048 A 
HETATM    6  N   UNL     1       6.097  24.415  52.373  1.00  0.00    -0.330 N 
HETATM    7  H   UNL     1       6.153  24.144  51.399  1.00  0.00     0.168 HD
HETATM    8  C   UNL     1       7.741  23.829  55.572  1.00  0.00     0.017 A 
HETATM    9  C   UNL     1       8.634  22.814  55.219  1.00  0.00     0.001 A 
HETATM   10  C   UNL     1       8.663  22.332  53.914  1.00  0.00     0.002 A 
HETATM   11  C   UNL     1       7.805  22.867  52.953  1.00  0.00     0.030 A 
ENDROOT
BRANCH   1  12
HETATM   12  N   UNL     1       4.479  25.971  51.700  1.00  0.00    -0.258 NA
HETATM   13  H   UNL     1       3.645  25.389  51.596  1.00  0.00     0.130 HD
BRANCH  12  14
HETATM   14  C   UNL     1       5.108  26.229  50.407  1.00  0.00     0.136 C 
BRANCH  14  15
HETATM   15  C   UNL     1       4.076  26.548  49.347  1.00  0.00    -0.012 A 
HETATM   16  C   UNL     1       3.456  27.814  49.341  1.00  0.00     0.075 A 
HETATM   17  C   UNL     1       2.547  28.145  48.330  1.00  0.00     0.037 A 
HETATM   18  C   UNL     1       2.269  27.239  47.307  1.00  0.00     0.003 A 
HETATM   19  C   UNL     1       2.893  25.998  47.286  1.00  0.00     0.001 A 
HETATM   20  C   UNL     1       3.794  25.656  48.294  1.00  0.00     0.011 A 
BRANCH  16  21
HETATM   21  O   UNL     1       3.791  28.650  50.377  1.00  0.00    -0.355 OA
HETATM   22  C   UNL     1       2.707  29.161  51.150  1.00  0.00     0.210 C 
ENDBRANCH  16  21
ENDBRANCH  14  15
ENDBRANCH  12  14
ENDBRANCH   1  12
BRANCH   3  23
HETATM   23  N   UNL     1       5.860  25.988  56.156  1.00  0.00    -0.272 NA
HETATM   24  H   UNL     1       4.904  25.989  56.509  1.00  0.00     0.129 HD
BRANCH  23  25
HETATM   25  C   UNL     1       6.493  27.296  56.331  1.00  0.00     0.061 C 
HETATM   26  C   UNL     1       5.557  28.237  57.087  1.00  0.00     0.020 C 
HETATM   27  C   UNL     1       6.492  29.331  57.575  1.00  0.00     0.002 C 
HETATM   28  C   UNL     1       7.781  28.605  57.943  1.00  0.00     0.002 C 
HETATM   29  C   UNL     1       7.721  27.246  57.245  1.00  0.00     0.020 C 
ENDBRANCH  23  25
ENDBRANCH   3  23
TORSDOF 6
ENDMDL
MODEL 10
REMARK VINA RESULT:      -8.7      2.431      7.364
REMARK  6 active torsions:
REMARK  status: ('A' for Active; 'I' for Inactive)
REMARK    1  A    between atoms: O_2  and  C_3 
REMARK    2  A    between atoms: C_4  and  C_5 
REMARK    3  A    between atoms: C_5  and  N_6 
REMARK    4  A    between atoms: N_6  and  C_7 
REMARK    5  A    between atoms: C_9  and  N_10 
REMARK    6  A    between atoms: N_10  and  C_11 
ROOT
HETATM    1  C   UNL     1       7.189  26.311  56.585  1.00  0.00     0.181 A 
HETATM    2  N   UNL     1       6.243  26.519  55.665  1.00  0.00    -0.207 NA
HETATM    3  C   UNL     1       6.150  25.648  54.645  1.00  0.00     0.119 A 
HETATM    4  C   UNL     1       7.023  24.543  54.539  1.00  0.00     0.031 A 
HETATM    5  C   UNL     1       7.998  24.399  55.548  1.00  0.00     0.048 A 
HETATM    6  N   UNL     1       8.038  25.289  56.548  1.00  0.00    -0.330 N 
HETATM    7  H   UNL     1       8.672  25.184  57.331  1.00  0.00     0.168 HD
HETATM    8  C   UNL     1       6.976  23.566  53.518  1.00  0.00     0.017 A 
HETATM    9  C   UNL     1       7.882  22.503  53.496  1.00  0.00     0.001 A 
HETATM   10  C   UNL     1       8.846  22.387  54.493  1.00  0.00     0.002 A 
HETATM   11  C   UNL     1       8.904  23.328  55.521  1.00  0.00     0.030 A 
ENDROOT
BRANCH   1  12
HETATM   12  N   UNL     1       7.189  27.163  57.670  1.00  0.00    -0.258 NA
HETATM   13  H   UNL     1       6.480  26.803  58.312  1.00  0.00     0.130 HD
BRANCH  12  14
HETATM   14  C   UNL     1       7.005  28.592  57.427  1.00  0.00     0.136 C 
BRANCH  14  15
HETATM   15  C   UNL     1       8.331  29.322  57.406  1.00  0.00    -0.012 A 
HETATM   16  C   UNL     1       8.645  30.219  58.447  1.00  0.00     0.075 A 
HETATM   17  C   UNL     1       9.893  30.852  58.473  1.00  0.00     0.037 A 
HETATM   18  C   UNL     1      10.844  30.580  57.489  1.00  0.00     0.003 A 
HETATM   19  C   UNL     1      10.557  29.677  56.474  1.00  0.00     0.001 A 
HETATM   20  C   UNL     1       9.313  29.048  56.434  1.00  0.00     0.011 A 
BRANCH  16  21
HETATM   21  O   UNL     1       7.660  30.425  59.379  1.00  0.00    -0.355 OA
HETATM   22  C   UNL     1       7.538  31.754  59.885  1.00  0.00     0.210 C 
ENDBRANCH  16  21
ENDBRANCH  14  15
ENDBRANCH  12  14
ENDBRANCH   1  12
BRANCH   3  23
HETATM   23  N   UNL     1       5.113  25.809  53.717  1.00  0.00    -0.272 NA
HETATM   24  H   UNL     1       4.748  24.904  53.427  1.00  0.00     0.129 HD
BRANCH  23  25
HETATM   25  C   UNL     1       5.362  26.677  52.565  1.00  0.00     0.061 C 
HETATM   26  C   UNL     1       5.149  25.901  51.266  1.00  0.00     0.020 C 
HETATM   27  C   UNL     1       4.990  27.002  50.231  1.00  0.00     0.002 C 
HETATM   28  C   UNL     1       4.206  28.096  50.946  1.00  0.00     0.002 C 
HETATM   29  C   UNL     1       4.341  27.812  52.442  1.00  0.00     0.020 C 
ENDBRANCH  23  25
ENDBRANCH   3  23
TORSDOF 6
ENDMDL
