MODEL 1
REMARK VINA RESULT:      -9.3      0.000      0.000
REMARK  8 active torsions:
REMARK  status: ('A' for Active; 'I' for Inactive)
REMARK    1  A    between atoms: C_2  and  O_3 
REMARK    2  A    between atoms: O_3  and  C_4 
REMARK    3  A    between atoms: C_5  and  O_6 
REMARK    4  A    between atoms: O_6  and  C_7 
REMARK    5  A    between atoms: C_7  and  C_8 
REMARK       I    between atoms: C_8  and  N_9 
REMARK    6  A    between atoms: C_13  and  C_14 
REMARK    7  A    between atoms: C_21  and  C_22 
REMARK       I    between atoms: C_22  and  N_23 
REMARK    8  A    between atoms: N_23  and  C_24 
ROOT
HETATM    1  C   UNL     1       6.762  27.336  53.866  1.00  0.00     0.160 C 
HETATM    2  N   UNL     1       6.864  28.667  54.434  1.00  0.00    -0.330 N 
HETATM    3  C   UNL     1       6.260  29.069  55.581  1.00  0.00     0.321 C 
HETATM    4  O   UNL     1       6.262  30.245  55.928  1.00  0.00    -0.247 OA
HETATM    5  N   UNL     1       5.673  28.096  56.335  1.00  0.00    -0.312 N 
HETATM    6  C   UNL     1       5.646  26.757  56.024  1.00  0.00     0.024 C 
HETATM    7  C   UNL     1       5.002  25.856  57.038  1.00  0.00     0.069 C 
HETATM    8  C   UNL     1       6.188  26.369  54.857  1.00  0.00     0.059 C 
HETATM    9  H   UNL     1       7.241  29.414  53.869  1.00  0.00     0.165 HD
HETATM   10  H   UNL     1       5.249  28.427  57.194  1.00  0.00     0.170 HD
ENDROOT
BRANCH   1  11
HETATM   11  C   UNL     1       6.005  27.365  52.547  1.00  0.00    -0.028 A 
HETATM   12  C   UNL     1       6.076  26.297  51.640  1.00  0.00     0.012 A 
HETATM   13  C   UNL     1       5.422  26.368  50.410  1.00  0.00     0.040 A 
HETATM   14  C   UNL     1       4.714  27.521  50.064  1.00  0.00     0.102 A 
HETATM   15  C   UNL     1       4.613  28.598  50.959  1.00  0.00     0.102 A 
HETATM   16  C   UNL     1       5.264  28.511  52.193  1.00  0.00     0.049 A 
BRANCH  14  17
HETATM   17  O   UNL     1       4.048  27.617  48.868  1.00  0.00    -0.339 OA
BRANCH  17  18
HETATM   18  C   UNL     1       4.279  26.497  48.010  1.00  0.00     0.278 C 
BRANCH  18  19
HETATM   19  C   UNL     1       2.942  25.971  47.497  1.00  0.00     0.239 C 
HETATM   20  N   UNL     1       1.850  26.344  48.230  1.00  0.00    -0.368 N 
HETATM   21  H   UNL     1       1.988  26.732  49.159  1.00  0.00     0.159 HD
HETATM   22  H   UNL     1       0.950  25.960  47.980  1.00  0.00     0.159 HD
HETATM   23  O   UNL     1       2.822  25.310  46.470  1.00  0.00    -0.271 OA
ENDBRANCH  18  19
ENDBRANCH  17  18
ENDBRANCH  14  17
BRANCH  15  24
HETATM   24  O   UNL     1       3.898  29.680  50.513  1.00  0.00    -0.349 OA
BRANCH  24  25
HETATM   25  C   UNL     1       2.658  30.004  51.139  1.00  0.00     0.171 C 
HETATM   26  C   UNL     1       1.492  29.337  50.428  1.00  0.00     0.034 C 
ENDBRANCH  24  25
ENDBRANCH  15  24
ENDBRANCH   1  11
BRANCH   8  27
HETATM   27  C   UNL     1       6.179  24.941  54.458  1.00  0.00     0.256 C 
HETATM   28  N   UNL     1       7.374  24.320  54.755  1.00  0.00    -0.323 N 
HETATM   29  H   UNL     1       8.048  24.864  55.275  1.00  0.00     0.169 HD
HETATM   30  O   UNL     1       5.175  24.457  53.956  1.00  0.00    -0.267 OA
BRANCH  28  31
HETATM   31  C   UNL     1       7.746  22.986  54.458  1.00  0.00     0.041 A 
HETATM   32  C   UNL     1       8.187  22.151  55.509  1.00  0.00    -0.035 A 
HETATM   33  C   UNL     1       8.266  22.620  56.937  1.00  0.00     0.050 C 
HETATM   34  C   UNL     1       8.565  20.826  55.224  1.00  0.00     0.009 A 
HETATM   35  C   UNL     1       8.514  20.330  53.925  1.00  0.00     0.001 A 
HETATM   36  C   UNL     1       8.086  21.153  52.891  1.00  0.00     0.002 A 
HETATM   37  C   UNL     1       7.706  22.471  53.157  1.00  0.00     0.030 A 
ENDBRANCH  28  31
ENDBRANCH   8  27
TORSDOF 8
ENDMDL
MODEL 2
REMARK VINA RESULT:      -9.3      1.749      3.014
REMARK  8 active torsions:
REMARK  status: ('A' for Active; 'I' for Inactive)
REMARK    1  A    between atoms: C_2  and  O_3 
REMARK    2  A    between atoms: O_3  and  C_4 
REMARK    3  A    between atoms: C_5  and  O_6 
REMARK    4  A    between atoms: O_6  and  C_7 
REMARK    5  A    between atoms: C_7  and  C_8 
REMARK       I    between atoms: C_8  and  N_9 
REMARK    6  A    between atoms: C_13  and  C_14 
REMARK    7  A    between atoms: C_21  and  C_22 
REMARK       I    between atoms: C_22  and  N_23 
REMARK    8  A    between atoms: N_23  and  C_24 
ROOT
HETATM    1  C   UNL     1       7.647  27.695  54.639  1.00  0.00     0.160 C 
HETATM    2  N   UNL     1       8.284  28.907  55.118  1.00  0.00    -0.330 N 
HETATM    3  C   UNL     1       8.489  29.213  56.424  1.00  0.00     0.321 C 
HETATM    4  O   UNL     1       8.895  30.318  56.767  1.00  0.00    -0.247 OA
HETATM    5  N   UNL     1       8.241  28.223  57.328  1.00  0.00    -0.312 N 
HETATM    6  C   UNL     1       7.804  26.956  57.020  1.00  0.00     0.024 C 
HETATM    7  C   UNL     1       7.665  26.007  58.175  1.00  0.00     0.069 C 
HETATM    8  C   UNL     1       7.540  26.675  55.733  1.00  0.00     0.059 C 
HETATM    9  H   UNL     1       8.421  29.675  54.476  1.00  0.00     0.165 HD
HETATM   10  H   UNL     1       8.423  28.478  58.292  1.00  0.00     0.170 HD
ENDROOT
BRANCH   1  11
HETATM   11  C   UNL     1       6.314  28.006  53.976  1.00  0.00    -0.028 A 
HETATM   12  C   UNL     1       5.305  28.705  54.656  1.00  0.00     0.012 A 
HETATM   13  C   UNL     1       4.069  28.929  54.051  1.00  0.00     0.040 A 
HETATM   14  C   UNL     1       3.820  28.430  52.770  1.00  0.00     0.102 A 
HETATM   15  C   UNL     1       4.816  27.739  52.062  1.00  0.00     0.102 A 
HETATM   16  C   UNL     1       6.056  27.531  52.674  1.00  0.00     0.049 A 
BRANCH  14  17
HETATM   17  O   UNL     1       2.619  28.645  52.142  1.00  0.00    -0.339 OA
BRANCH  17  18
HETATM   18  C   UNL     1       2.618  29.822  51.330  1.00  0.00     0.278 C 
BRANCH  18  19
HETATM   19  C   UNL     1       1.777  29.573  50.083  1.00  0.00     0.239 C 
HETATM   20  N   UNL     1       1.613  28.258  49.744  1.00  0.00    -0.368 N 
HETATM   21  H   UNL     1       2.215  27.560  50.171  1.00  0.00     0.159 HD
HETATM   22  H   UNL     1       1.131  28.041  48.884  1.00  0.00     0.159 HD
HETATM   23  O   UNL     1       1.225  30.466  49.446  1.00  0.00    -0.271 OA
ENDBRANCH  18  19
ENDBRANCH  17  18
ENDBRANCH  14  17
BRANCH  15  24
HETATM   24  O   UNL     1       4.460  27.290  50.816  1.00  0.00    -0.349 OA
BRANCH  24  25
HETATM   25  C   UNL     1       5.187  27.743  49.675  1.00  0.00     0.171 C 
HETATM   26  C   UNL     1       4.763  26.995  48.422  1.00  0.00     0.034 C 
ENDBRANCH  24  25
ENDBRANCH  15  24
ENDBRANCH   1  11
BRANCH   8  27
HETATM   27  C   UNL     1       7.054  25.331  55.338  1.00  0.00     0.256 C 
HETATM   28  N   UNL     1       8.096  24.454  55.121  1.00  0.00    -0.323 N 
HETATM   29  H   UNL     1       9.023  24.791  55.343  1.00  0.00     0.169 HD
HETATM   30  O   UNL     1       5.853  25.118  55.264  1.00  0.00    -0.267 OA
BRANCH  28  31
HETATM   31  C   UNL     1       8.011  23.114  54.671  1.00  0.00     0.041 A 
HETATM   32  C   UNL     1       7.923  22.865  53.283  1.00  0.00    -0.035 A 
HETATM   33  C   UNL     1       7.926  23.970  52.260  1.00  0.00     0.050 C 
HETATM   34  C   UNL     1       7.832  21.538  52.824  1.00  0.00     0.009 A 
HETATM   35  C   UNL     1       7.825  20.471  53.718  1.00  0.00     0.001 A 
HETATM   36  C   UNL     1       7.906  20.716  55.082  1.00  0.00     0.002 A 
HETATM   37  C   UNL     1       7.997  22.028  55.554  1.00  0.00     0.030 A 
ENDBRANCH  28  31
ENDBRANCH   8  27
TORSDOF 8
ENDMDL
MODEL 3
REMARK VINA RESULT:      -9.2      2.617      7.040
REMARK  8 active torsions:
REMARK  status: ('A' for Active; 'I' for Inactive)
REMARK    1  A    between atoms: C_2  and  O_3 
REMARK    2  A    between atoms: O_3  and  C_4 
REMARK    3  A    between atoms: C_5  and  O_6 
REMARK    4  A    between atoms: O_6  and  C_7 
REMARK    5  A    between atoms: C_7  and  C_8 
REMARK       I    between atoms: C_8  and  N_9 
REMARK    6  A    between atoms: C_13  and  C_14 
REMARK    7  A    between atoms: C_21  and  C_22 
REMARK       I    between atoms: C_22  and  N_23 
REMARK    8  A    between atoms: N_23  and  C_24 
ROOT
HETATM    1  C   UNL     1       5.326  26.387  54.405  1.00  0.00     0.160 C 
HETATM    2  N   UNL     1       4.519  27.015  53.376  1.00  0.00    -0.330 N 
HETATM    3  C   UNL     1       4.869  27.114  52.068  1.00  0.00     0.321 C 
HETATM    4  O   UNL     1       4.214  27.787  51.279  1.00  0.00    -0.247 OA
HETATM    5  N   UNL     1       5.969  26.410  51.676  1.00  0.00    -0.312 N 
HETATM    6  C   UNL     1       6.741  25.620  52.495  1.00  0.00     0.024 C 
HETATM    7  C   UNL     1       7.866  24.881  51.830  1.00  0.00     0.069 C 
HETATM    8  C   UNL     1       6.432  25.574  53.802  1.00  0.00     0.059 C 
HETATM    9  H   UNL     1       3.736  27.590  53.650  1.00  0.00     0.165 HD
HETATM   10  H   UNL     1       6.191  26.490  50.690  1.00  0.00     0.170 HD
ENDROOT
BRANCH   1  11
HETATM   11  C   UNL     1       5.818  27.415  55.413  1.00  0.00    -0.028 A 
HETATM   12  C   UNL     1       5.096  27.696  56.582  1.00  0.00     0.012 A 
HETATM   13  C   UNL     1       5.533  28.684  57.464  1.00  0.00     0.040 A 
HETATM   14  C   UNL     1       6.682  29.421  57.169  1.00  0.00     0.102 A 
HETATM   15  C   UNL     1       7.432  29.151  56.014  1.00  0.00     0.102 A 
HETATM   16  C   UNL     1       6.991  28.150  55.143  1.00  0.00     0.049 A 
BRANCH  14  17
HETATM   17  O   UNL     1       7.147  30.391  58.023  1.00  0.00    -0.339 OA
BRANCH  17  18
HETATM   18  C   UNL     1       8.089  29.890  58.974  1.00  0.00     0.278 C 
BRANCH  18  19
HETATM   19  C   UNL     1       8.855  31.058  59.587  1.00  0.00     0.239 C 
HETATM   20  N   UNL     1       9.263  30.873  60.879  1.00  0.00    -0.368 N 
HETATM   21  H   UNL     1       8.859  30.113  61.419  1.00  0.00     0.159 HD
HETATM   22  H   UNL     1       9.705  31.644  61.358  1.00  0.00     0.159 HD
HETATM   23  O   UNL     1       9.150  32.075  58.968  1.00  0.00    -0.271 OA
ENDBRANCH  18  19
ENDBRANCH  17  18
ENDBRANCH  14  17
BRANCH  15  24
HETATM   24  O   UNL     1       8.538  29.939  55.823  1.00  0.00    -0.349 OA
BRANCH  24  25
HETATM   25  C   UNL     1       9.801  29.323  55.571  1.00  0.00     0.171 C 
HETATM   26  C   UNL     1      10.798  29.644  56.672  1.00  0.00     0.034 C 
ENDBRANCH  24  25
ENDBRANCH  15  24
ENDBRANCH   1  11
BRANCH   8  27
HETATM   27  C   UNL     1       7.233  24.751  54.739  1.00  0.00     0.256 C 
HETATM   28  N   UNL     1       7.115  23.404  54.466  1.00  0.00    -0.323 N 
HETATM   29  H   UNL     1       6.596  23.156  53.635  1.00  0.00     0.169 HD
HETATM   30  O   UNL     1       7.906  25.294  55.603  1.00  0.00    -0.267 OA
BRANCH  28  31
HETATM   31  C   UNL     1       7.681  22.328  55.190  1.00  0.00     0.041 A 
HETATM   32  C   UNL     1       8.052  21.156  54.493  1.00  0.00    -0.035 A 
HETATM   33  C   UNL     1       7.879  21.011  53.004  1.00  0.00     0.050 C 
HETATM   34  C   UNL     1       8.610  20.077  55.203  1.00  0.00     0.009 A 
HETATM   35  C   UNL     1       8.798  20.148  56.581  1.00  0.00     0.001 A 
HETATM   36  C   UNL     1       8.429  21.297  57.267  1.00  0.00     0.002 A 
HETATM   37  C   UNL     1       7.873  22.378  56.576  1.00  0.00     0.030 A 
ENDBRANCH  28  31
ENDBRANCH   8  27
TORSDOF 8
ENDMDL
MODEL 4
REMARK VINA RESULT:      -9.1      3.662      8.097
REMARK  8 active torsions:
REMARK  status: ('A' for Active; 'I' for Inactive)
REMARK    1  A    between atoms: C_2  and  O_3 
REMARK    2  A    between atoms: O_3  and  C_4 
REMARK    3  A    between atoms: C_5  and  O_6 
REMARK    4  A    between atoms: O_6  and  C_7 
REMARK    5  A    between atoms: C_7  and  C_8 
REMARK       I    between atoms: C_8  and  N_9 
REMARK    6  A    between atoms: C_13  and  C_14 
REMARK    7  A    between atoms: C_21  and  C_22 
REMARK       I    between atoms: C_22  and  N_23 
REMARK    8  A    between atoms: N_23  and  C_24 
ROOT
HETATM    1  C   UNL     1       4.140  29.551  56.419  1.00  0.00     0.160 C 
HETATM    2  N   UNL     1       3.007  30.443  56.586  1.00  0.00    -0.330 N 
HETATM    3  C   UNL     1       2.467  31.203  55.599  1.00  0.00     0.321 C 
HETATM    4  O   UNL     1       1.609  32.046  55.838  1.00  0.00    -0.247 OA
HETATM    5  N   UNL     1       2.910  30.963  54.332  1.00  0.00    -0.312 N 
HETATM    6  C   UNL     1       3.852  30.023  53.984  1.00  0.00     0.024 C 
HETATM    7  C   UNL     1       4.135  29.886  52.516  1.00  0.00     0.069 C 
HETATM    8  C   UNL     1       4.433  29.317  54.968  1.00  0.00     0.059 C 
HETATM    9  H   UNL     1       2.703  30.680  57.519  1.00  0.00     0.165 HD
HETATM   10  H   UNL     1       2.472  31.533  53.618  1.00  0.00     0.170 HD
ENDROOT
BRANCH   1  11
HETATM   11  C   UNL     1       5.344  30.050  57.202  1.00  0.00    -0.028 A 
HETATM   12  C   UNL     1       5.381  31.345  57.740  1.00  0.00     0.012 A 
HETATM   13  C   UNL     1       6.518  31.804  58.404  1.00  0.00     0.040 A 
HETATM   14  C   UNL     1       7.642  30.981  58.510  1.00  0.00     0.102 A 
HETATM   15  C   UNL     1       7.628  29.676  57.993  1.00  0.00     0.102 A 
HETATM   16  C   UNL     1       6.478  29.223  57.341  1.00  0.00     0.049 A 
BRANCH  14  17
HETATM   17  O   UNL     1       8.772  31.398  59.168  1.00  0.00    -0.339 OA
BRANCH  17  18
HETATM   18  C   UNL     1       8.489  32.005  60.432  1.00  0.00     0.278 C 
BRANCH  18  19
HETATM   19  C   UNL     1       8.441  30.926  61.509  1.00  0.00     0.239 C 
HETATM   20  N   UNL     1       7.292  30.892  62.249  1.00  0.00    -0.368 N 
HETATM   21  H   UNL     1       6.658  31.685  62.211  1.00  0.00     0.159 HD
HETATM   22  H   UNL     1       7.240  30.249  63.025  1.00  0.00     0.159 HD
HETATM   23  O   UNL     1       9.331  30.099  61.680  1.00  0.00    -0.271 OA
ENDBRANCH  18  19
ENDBRANCH  17  18
ENDBRANCH  14  17
BRANCH  15  24
HETATM   24  O   UNL     1       8.787  28.960  58.150  1.00  0.00    -0.349 OA
BRANCH  24  25
HETATM   25  C   UNL     1       9.548  28.602  56.998  1.00  0.00     0.171 C 
HETATM   26  C   UNL     1      10.582  29.666  56.671  1.00  0.00     0.034 C 
ENDBRANCH  24  25
ENDBRANCH  15  24
ENDBRANCH   1  11
BRANCH   8  27
HETATM   27  C   UNL     1       5.464  28.298  54.658  1.00  0.00     0.256 C 
HETATM   28  N   UNL     1       4.965  27.017  54.764  1.00  0.00    -0.323 N 
HETATM   29  H   UNL     1       3.973  26.932  54.937  1.00  0.00     0.169 HD
HETATM   30  O   UNL     1       6.588  28.651  54.334  1.00  0.00    -0.267 OA
BRANCH  28  31
HETATM   31  C   UNL     1       5.676  25.802  54.607  1.00  0.00     0.041 A 
HETATM   32  C   UNL     1       6.081  25.094  55.760  1.00  0.00    -0.035 A 
HETATM   33  C   UNL     1       5.776  25.574  57.154  1.00  0.00     0.050 C 
HETATM   34  C   UNL     1       6.793  23.889  55.615  1.00  0.00     0.009 A 
HETATM   35  C   UNL     1       7.105  23.389  54.355  1.00  0.00     0.001 A 
HETATM   36  C   UNL     1       6.713  24.088  53.221  1.00  0.00     0.002 A 
HETATM   37  C   UNL     1       6.004  25.286  53.347  1.00  0.00     0.030 A 
ENDBRANCH  28  31
ENDBRANCH   8  27
TORSDOF 8
ENDMDL
MODEL 5
REMARK VINA RESULT:      -9.1      2.557      6.899
REMARK  8 active torsions:
REMARK  status: ('A' for Active; 'I' for Inactive)
REMARK    1  A    between atoms: C_2  and  O_3 
REMARK    2  A    between atoms: O_3  and  C_4 
REMARK    3  A    between atoms: C_5  and  O_6 
REMARK    4  A    between atoms: O_6  and  C_7 
REMARK    5  A    between atoms: C_7  and  C_8 
REMARK       I    between atoms: C_8  and  N_9 
REMARK    6  A    between atoms: C_13  and  C_14 
REMARK    7  A    between atoms: C_21  and  C_22 
REMARK       I    between atoms: C_22  and  N_23 
REMARK    8  A    between atoms: N_23  and  C_24 
ROOT
HETATM    1  C   UNL     1       3.987  27.920  53.811  1.00  0.00     0.160 C 
HETATM    2  N   UNL     1       3.438  29.120  53.210  1.00  0.00    -0.330 N 
HETATM    3  C   UNL     1       3.732  29.569  51.964  1.00  0.00     0.321 C 
HETATM    4  O   UNL     1       3.352  30.668  51.572  1.00  0.00    -0.247 OA
HETATM    5  N   UNL     1       4.450  28.728  51.167  1.00  0.00    -0.312 N 
HETATM    6  C   UNL     1       4.894  27.477  51.526  1.00  0.00     0.024 C 
HETATM    7  C   UNL     1       5.608  26.697  50.460  1.00  0.00     0.069 C 
HETATM    8  C   UNL     1       4.657  27.060  52.782  1.00  0.00     0.059 C 
HETATM    9  H   UNL     1       2.955  29.786  53.798  1.00  0.00     0.165 HD
HETATM   10  H   UNL     1       4.636  29.085  50.236  1.00  0.00     0.170 HD
ENDROOT
BRANCH   1  11
HETATM   11  C   UNL     1       4.890  28.264  54.986  1.00  0.00    -0.028 A 
HETATM   12  C   UNL     1       4.463  28.094  56.311  1.00  0.00     0.012 A 
HETATM   13  C   UNL     1       5.283  28.471  57.373  1.00  0.00     0.040 A 
HETATM   14  C   UNL     1       6.529  29.048  57.120  1.00  0.00     0.102 A 
HETATM   15  C   UNL     1       6.989  29.217  55.804  1.00  0.00     0.102 A 
HETATM   16  C   UNL     1       6.162  28.824  54.747  1.00  0.00     0.049 A 
BRANCH  14  17
HETATM   17  O   UNL     1       7.366  29.417  58.143  1.00  0.00    -0.339 OA
BRANCH  17  18
HETATM   18  C   UNL     1       7.135  30.753  58.598  1.00  0.00     0.278 C 
BRANCH  18  19
HETATM   19  C   UNL     1       8.334  31.221  59.416  1.00  0.00     0.239 C 
HETATM   20  N   UNL     1       8.685  30.405  60.455  1.00  0.00    -0.368 N 
HETATM   21  H   UNL     1       8.030  29.692  60.764  1.00  0.00     0.159 HD
HETATM   22  H   UNL     1       9.421  30.707  61.075  1.00  0.00     0.159 HD
HETATM   23  O   UNL     1       8.991  32.222  59.145  1.00  0.00    -0.271 OA
ENDBRANCH  18  19
ENDBRANCH  17  18
ENDBRANCH  14  17
BRANCH  15  24
HETATM   24  O   UNL     1       8.223  29.798  55.673  1.00  0.00    -0.349 OA
BRANCH  24  25
HETATM   25  C   UNL     1       9.394  29.008  55.875  1.00  0.00     0.171 C 
HETATM   26  C   UNL     1      10.506  29.827  56.509  1.00  0.00     0.034 C 
ENDBRANCH  24  25
ENDBRANCH  15  24
ENDBRANCH   1  11
BRANCH   8  27
HETATM   27  C   UNL     1       5.121  25.727  53.235  1.00  0.00     0.256 C 
HETATM   28  N   UNL     1       6.485  25.700  53.433  1.00  0.00    -0.323 N 
HETATM   29  H   UNL     1       6.972  26.582  53.344  1.00  0.00     0.169 HD
HETATM   30  O   UNL     1       4.310  24.828  53.407  1.00  0.00    -0.267 OA
BRANCH  28  31
HETATM   31  C   UNL     1       7.279  24.586  53.798  1.00  0.00     0.041 A 
HETATM   32  C   UNL     1       7.791  24.515  55.113  1.00  0.00    -0.035 A 
HETATM   33  C   UNL     1       7.516  25.573  56.148  1.00  0.00     0.050 C 
HETATM   34  C   UNL     1       8.586  23.415  55.486  1.00  0.00     0.009 A 
HETATM   35  C   UNL     1       8.876  22.401  54.577  1.00  0.00     0.001 A 
HETATM   36  C   UNL     1       8.378  22.474  53.283  1.00  0.00     0.002 A 
HETATM   37  C   UNL     1       7.586  23.559  52.897  1.00  0.00     0.030 A 
ENDBRANCH  28  31
ENDBRANCH   8  27
TORSDOF 8
ENDMDL
MODEL 6
REMARK VINA RESULT:      -8.9      3.448      7.302
REMARK  8 active torsions:
REMARK  status: ('A' for Active; 'I' for Inactive)
REMARK    1  A    between atoms: C_2  and  O_3 
REMARK    2  A    between atoms: O_3  and  C_4 
REMARK    3  A    between atoms: C_5  and  O_6 
REMARK    4  A    between atoms: O_6  and  C_7 
REMARK    5  A    between atoms: C_7  and  C_8 
REMARK       I    between atoms: C_8  and  N_9 
REMARK    6  A    between atoms: C_13  and  C_14 
REMARK    7  A    between atoms: C_21  and  C_22 
REMARK       I    between atoms: C_22  and  N_23 
REMARK    8  A    between atoms: N_23  and  C_24 
ROOT
HETATM    1  C   UNL     1       4.790  28.671  56.301  1.00  0.00     0.160 C 
HETATM    2  N   UNL     1       3.693  29.543  56.678  1.00  0.00    -0.330 N 
HETATM    3  C   UNL     1       3.046  30.385  55.833  1.00  0.00     0.321 C 
HETATM    4  O   UNL     1       2.230  31.203  56.245  1.00  0.00    -0.247 OA
HETATM    5  N   UNL     1       3.333  30.257  54.506  1.00  0.00    -0.312 N 
HETATM    6  C   UNL     1       4.218  29.353  53.968  1.00  0.00     0.024 C 
HETATM    7  C   UNL     1       4.323  29.344  52.470  1.00  0.00     0.069 C 
HETATM    8  C   UNL     1       4.906  28.564  54.811  1.00  0.00     0.059 C 
HETATM    9  H   UNL     1       3.504  29.697  57.658  1.00  0.00     0.165 HD
HETATM   10  H   UNL     1       2.818  30.886  53.902  1.00  0.00     0.170 HD
ENDROOT
BRANCH   1  11
HETATM   11  C   UNL     1       6.084  29.102  56.975  1.00  0.00    -0.028 A 
HETATM   12  C   UNL     1       7.171  28.224  57.099  1.00  0.00     0.012 A 
HETATM   13  C   UNL     1       8.326  28.619  57.772  1.00  0.00     0.040 A 
HETATM   14  C   UNL     1       8.394  29.887  58.353  1.00  0.00     0.102 A 
HETATM   15  C   UNL     1       7.327  30.792  58.231  1.00  0.00     0.102 A 
HETATM   16  C   UNL     1       6.179  30.388  57.544  1.00  0.00     0.049 A 
BRANCH  14  17
HETATM   17  O   UNL     1       9.522  30.312  59.010  1.00  0.00    -0.339 OA
BRANCH  17  18
HETATM   18  C   UNL     1      10.343  31.168  58.211  1.00  0.00     0.278 C 
BRANCH  18  19
HETATM   19  C   UNL     1      10.927  30.366  57.052  1.00  0.00     0.239 C 
HETATM   20  N   UNL     1      12.036  29.626  57.356  1.00  0.00    -0.368 N 
HETATM   21  H   UNL     1      12.532  29.814  58.222  1.00  0.00     0.159 HD
HETATM   22  H   UNL     1      12.507  29.139  56.608  1.00  0.00     0.159 HD
HETATM   23  O   UNL     1      10.422  30.324  55.934  1.00  0.00    -0.271 OA
ENDBRANCH  18  19
ENDBRANCH  17  18
ENDBRANCH  14  17
BRANCH  15  24
HETATM   24  O   UNL     1       7.501  32.006  58.844  1.00  0.00    -0.349 OA
BRANCH  24  25
HETATM   25  C   UNL     1       6.620  32.388  59.900  1.00  0.00     0.171 C 
HETATM   26  C   UNL     1       7.396  32.825  61.131  1.00  0.00     0.034 C 
ENDBRANCH  24  25
ENDBRANCH  15  24
ENDBRANCH   1  11
BRANCH   8  27
HETATM   27  C   UNL     1       5.884  27.578  54.293  1.00  0.00     0.256 C 
HETATM   28  N   UNL     1       5.495  26.282  54.561  1.00  0.00    -0.323 N 
HETATM   29  H   UNL     1       4.580  26.163  54.975  1.00  0.00     0.169 HD
HETATM   30  O   UNL     1       6.875  27.964  53.691  1.00  0.00    -0.267 OA
BRANCH  28  31
HETATM   31  C   UNL     1       6.209  25.094  54.276  1.00  0.00     0.041 A 
HETATM   32  C   UNL     1       6.715  24.327  55.350  1.00  0.00    -0.035 A 
HETATM   33  C   UNL     1       6.514  24.719  56.789  1.00  0.00     0.050 C 
HETATM   34  C   UNL     1       7.432  23.147  55.078  1.00  0.00     0.009 A 
HETATM   35  C   UNL     1       7.652  22.729  53.769  1.00  0.00     0.001 A 
HETATM   36  C   UNL     1       7.160  23.485  52.713  1.00  0.00     0.002 A 
HETATM   37  C   UNL     1       6.446  24.659  52.966  1.00  0.00     0.030 A 
ENDBRANCH  28  31
ENDBRANCH   8  27
TORSDOF 8
ENDMDL
MODEL 7
REMARK VINA RESULT:      -8.8      2.492      6.617
REMARK  8 active torsions:
REMARK  status: ('A' for Active; 'I' for Inactive)
REMARK    1  A    between atoms: C_2  and  O_3 
REMARK    2  A    between atoms: O_3  and  C_4 
REMARK    3  A    between atoms: C_5  and  O_6 
REMARK    4  A    between atoms: O_6  and  C_7 
REMARK    5  A    between atoms: C_7  and  C_8 
REMARK       I    between atoms: C_8  and  N_9 
REMARK    6  A    between atoms: C_13  and  C_14 
REMARK    7  A    between atoms: C_21  and  C_22 
REMARK       I    between atoms: C_22  and  N_23 
REMARK    8  A    between atoms: N_23  and  C_24 
ROOT
HETATM    1  C   UNL     1       4.759  28.257  53.371  1.00  0.00     0.160 C 
HETATM    2  N   UNL     1       4.440  29.478  52.655  1.00  0.00    -0.330 N 
HETATM    3  C   UNL     1       4.565  29.646  51.313  1.00  0.00     0.321 C 
HETATM    4  O   UNL     1       4.423  30.745  50.790  1.00  0.00    -0.247 OA
HETATM    5  N   UNL     1       4.832  28.527  50.581  1.00  0.00    -0.312 N 
HETATM    6  C   UNL     1       4.985  27.259  51.093  1.00  0.00     0.024 C 
HETATM    7  C   UNL     1       5.205  26.165  50.089  1.00  0.00     0.069 C 
HETATM    8  C   UNL     1       4.925  27.105  52.426  1.00  0.00     0.059 C 
HETATM    9  H   UNL     1       4.299  30.331  53.177  1.00  0.00     0.165 HD
HETATM   10  H   UNL     1       4.899  28.683  49.582  1.00  0.00     0.170 HD
ENDROOT
BRANCH   1  11
HETATM   11  C   UNL     1       5.957  28.461  54.286  1.00  0.00    -0.028 A 
HETATM   12  C   UNL     1       7.256  28.129  53.874  1.00  0.00     0.012 A 
HETATM   13  C   UNL     1       8.333  28.267  54.749  1.00  0.00     0.040 A 
HETATM   14  C   UNL     1       8.116  28.712  56.055  1.00  0.00     0.102 A 
HETATM   15  C   UNL     1       6.829  29.065  56.489  1.00  0.00     0.102 A 
HETATM   16  C   UNL     1       5.759  28.933  55.600  1.00  0.00     0.049 A 
BRANCH  14  17
HETATM   17  O   UNL     1       9.156  28.873  56.936  1.00  0.00    -0.339 OA
BRANCH  17  18
HETATM   18  C   UNL     1       9.922  30.054  56.684  1.00  0.00     0.278 C 
BRANCH  18  19
HETATM   19  C   UNL     1      10.020  30.873  57.967  1.00  0.00     0.239 C 
HETATM   20  N   UNL     1       9.438  30.306  59.067  1.00  0.00    -0.368 N 
HETATM   21  H   UNL     1       8.800  29.526  58.939  1.00  0.00     0.159 HD
HETATM   22  H   UNL     1       9.407  30.840  59.922  1.00  0.00     0.159 HD
HETATM   23  O   UNL     1      10.625  31.938  58.047  1.00  0.00    -0.271 OA
ENDBRANCH  18  19
ENDBRANCH  17  18
ENDBRANCH  14  17
BRANCH  15  24
HETATM   24  O   UNL     1       6.732  29.484  57.791  1.00  0.00    -0.349 OA
BRANCH  24  25
HETATM   25  C   UNL     1       5.727  30.432  58.149  1.00  0.00     0.171 C 
HETATM   26  C   UNL     1       6.342  31.769  58.527  1.00  0.00     0.034 C 
ENDBRANCH  24  25
ENDBRANCH  15  24
ENDBRANCH   1  11
BRANCH   8  27
HETATM   27  C   UNL     1       5.094  25.766  53.040  1.00  0.00     0.256 C 
HETATM   28  N   UNL     1       6.425  25.429  53.173  1.00  0.00    -0.323 N 
HETATM   29  H   UNL     1       7.097  26.146  52.936  1.00  0.00     0.169 HD
HETATM   30  O   UNL     1       4.110  25.124  53.377  1.00  0.00    -0.267 OA
BRANCH  28  31
HETATM   31  C   UNL     1       6.958  24.209  53.653  1.00  0.00     0.041 A 
HETATM   32  C   UNL     1       7.054  24.008  55.049  1.00  0.00    -0.035 A 
HETATM   33  C   UNL     1       6.600  25.038  56.048  1.00  0.00     0.050 C 
HETATM   34  C   UNL     1       7.588  22.801  55.537  1.00  0.00     0.009 A 
HETATM   35  C   UNL     1       8.025  21.808  54.666  1.00  0.00     0.001 A 
HETATM   36  C   UNL     1       7.936  22.007  53.295  1.00  0.00     0.002 A 
HETATM   37  C   UNL     1       7.407  23.200  52.793  1.00  0.00     0.030 A 
ENDBRANCH  28  31
ENDBRANCH   8  27
TORSDOF 8
ENDMDL
MODEL 8
REMARK VINA RESULT:      -8.7      2.723      6.874
REMARK  8 active torsions:
REMARK  status: ('A' for Active; 'I' for Inactive)
REMARK    1  A    between atoms: C_2  and  O_3 
REMARK    2  A    between atoms: O_3  and  C_4 
REMARK    3  A    between atoms: C_5  and  O_6 
REMARK    4  A    between atoms: O_6  and  C_7 
REMARK    5  A    between atoms: C_7  and  C_8 
REMARK       I    between atoms: C_8  and  N_9 
REMARK    6  A    between atoms: C_13  and  C_14 
REMARK    7  A    between atoms: C_21  and  C_22 
REMARK       I    between atoms: C_22  and  N_23 
REMARK    8  A    between atoms: N_23  and  C_24 
ROOT
HETATM    1  C   UNL     1       3.403  28.195  52.888  1.00  0.00     0.160 C 
HETATM    2  N   UNL     1       2.229  28.676  52.185  1.00  0.00    -0.330 N 
HETATM    3  C   UNL     1       2.202  29.041  50.878  1.00  0.00     0.321 C 
HETATM    4  O   UNL     1       1.218  29.580  50.383  1.00  0.00    -0.247 OA
HETATM    5  N   UNL     1       3.315  28.756  50.142  1.00  0.00    -0.312 N 
HETATM    6  C   UNL     1       4.447  28.138  50.619  1.00  0.00     0.024 C 
HETATM    7  C   UNL     1       5.524  27.863  49.610  1.00  0.00     0.069 C 
HETATM    8  C   UNL     1       4.497  27.836  51.928  1.00  0.00     0.059 C 
HETATM    9  H   UNL     1       1.416  28.949  52.718  1.00  0.00     0.165 HD
HETATM   10  H   UNL     1       3.255  29.024  49.167  1.00  0.00     0.170 HD
ENDROOT
BRANCH   1  11
HETATM   11  C   UNL     1       3.843  29.186  53.954  1.00  0.00    -0.028 A 
HETATM   12  C   UNL     1       3.875  30.566  53.701  1.00  0.00     0.012 A 
HETATM   13  C   UNL     1       4.337  31.453  54.673  1.00  0.00     0.040 A 
HETATM   14  C   UNL     1       4.798  30.965  55.897  1.00  0.00     0.102 A 
HETATM   15  C   UNL     1       4.764  29.591  56.183  1.00  0.00     0.102 A 
HETATM   16  C   UNL     1       4.288  28.713  55.206  1.00  0.00     0.049 A 
BRANCH  14  17
HETATM   17  O   UNL     1       5.246  31.813  56.880  1.00  0.00    -0.339 OA
BRANCH  17  18
HETATM   18  C   UNL     1       4.204  32.615  57.441  1.00  0.00     0.278 C 
BRANCH  18  19
HETATM   19  C   UNL     1       3.946  32.172  58.878  1.00  0.00     0.239 C 
HETATM   20  N   UNL     1       4.993  31.537  59.488  1.00  0.00    -0.368 N 
HETATM   21  H   UNL     1       5.763  31.198  58.919  1.00  0.00     0.159 HD
HETATM   22  H   UNL     1       4.849  31.155  60.411  1.00  0.00     0.159 HD
HETATM   23  O   UNL     1       2.907  32.410  59.485  1.00  0.00    -0.271 OA
ENDBRANCH  18  19
ENDBRANCH  17  18
ENDBRANCH  14  17
BRANCH  15  24
HETATM   24  O   UNL     1       5.247  29.225  57.413  1.00  0.00    -0.349 OA
BRANCH  24  25
HETATM   25  C   UNL     1       6.455  28.472  57.495  1.00  0.00     0.171 C 
HETATM   26  C   UNL     1       7.575  29.295  58.108  1.00  0.00     0.034 C 
ENDBRANCH  24  25
ENDBRANCH  15  24
ENDBRANCH   1  11
BRANCH   8  27
HETATM   27  C   UNL     1       5.695  27.180  52.506  1.00  0.00     0.256 C 
HETATM   28  N   UNL     1       5.516  25.819  52.643  1.00  0.00    -0.323 N 
HETATM   29  H   UNL     1       4.663  25.435  52.259  1.00  0.00     0.169 HD
HETATM   30  O   UNL     1       6.683  27.847  52.773  1.00  0.00    -0.267 OA
BRANCH  28  31
HETATM   31  C   UNL     1       6.415  24.888  53.216  1.00  0.00     0.041 A 
HETATM   32  C   UNL     1       6.390  24.686  54.614  1.00  0.00    -0.035 A 
HETATM   33  C   UNL     1       5.433  25.414  55.520  1.00  0.00     0.050 C 
HETATM   34  C   UNL     1       7.284  23.767  55.195  1.00  0.00     0.009 A 
HETATM   35  C   UNL     1       8.192  23.060  54.413  1.00  0.00     0.001 A 
HETATM   36  C   UNL     1       8.221  23.263  53.040  1.00  0.00     0.002 A 
HETATM   37  C   UNL     1       7.340  24.171  52.447  1.00  0.00     0.030 A 
ENDBRANCH  28  31
ENDBRANCH   8  27
TORSDOF 8
ENDMDL
MODEL 9
REMARK VINA RESULT:      -8.7      2.183      7.416
REMARK  8 active torsions:
REMARK  status: ('A' for Active; 'I' for Inactive)
REMARK    1  A    between atoms: C_2  and  O_3 
REMARK    2  A    between atoms: O_3  and  C_4 
REMARK    3  A    between atoms: C_5  and  O_6 
REMARK    4  A    between atoms: O_6  and  C_7 
REMARK    5  A    between atoms: C_7  and  C_8 
REMARK       I    between atoms: C_8  and  N_9 
REMARK    6  A    between atoms: C_13  and  C_14 
REMARK    7  A    between atoms: C_21  and  C_22 
REMARK       I    between atoms: C_22  and  N_23 
REMARK    8  A    between atoms: N_23  and  C_24 
ROOT
HETATM    1  C   UNL     1       4.115  27.554  53.214  1.00  0.00     0.160 C 
HETATM    2  N   UNL     1       3.930  28.283  54.455  1.00  0.00    -0.330 N 
HETATM    3  C   UNL     1       4.301  29.572  54.661  1.00  0.00     0.321 C 
HETATM    4  O   UNL     1       4.255  30.081  55.776  1.00  0.00    -0.247 OA
HETATM    5  N   UNL     1       4.704  30.273  53.563  1.00  0.00    -0.312 N 
HETATM    6  C   UNL     1       4.764  29.779  52.281  1.00  0.00     0.024 C 
HETATM    7  C   UNL     1       5.172  30.755  51.216  1.00  0.00     0.069 C 
HETATM    8  C   UNL     1       4.459  28.485  52.089  1.00  0.00     0.059 C 
HETATM    9  H   UNL     1       3.691  27.771  55.292  1.00  0.00     0.165 HD
HETATM   10  H   UNL     1       4.955  31.238  53.749  1.00  0.00     0.170 HD
ENDROOT
BRANCH   1  11
HETATM   11  C   UNL     1       5.121  26.427  53.389  1.00  0.00    -0.028 A 
HETATM   12  C   UNL     1       5.006  25.226  52.673  1.00  0.00     0.012 A 
HETATM   13  C   UNL     1       5.904  24.183  52.892  1.00  0.00     0.040 A 
HETATM   14  C   UNL     1       6.910  24.320  53.851  1.00  0.00     0.102 A 
HETATM   15  C   UNL     1       7.058  25.516  54.571  1.00  0.00     0.102 A 
HETATM   16  C   UNL     1       6.159  26.560  54.335  1.00  0.00     0.049 A 
BRANCH  14  17
HETATM   17  O   UNL     1       7.819  23.317  54.080  1.00  0.00    -0.339 OA
BRANCH  17  18
HETATM   18  C   UNL     1       7.889  22.373  53.009  1.00  0.00     0.278 C 
BRANCH  18  19
HETATM   19  C   UNL     1       8.074  20.972  53.584  1.00  0.00     0.239 C 
HETATM   20  N   UNL     1       7.759  20.840  54.908  1.00  0.00    -0.368 N 
HETATM   21  H   UNL     1       7.650  21.676  55.474  1.00  0.00     0.159 HD
HETATM   22  H   UNL     1       7.937  19.954  55.357  1.00  0.00     0.159 HD
HETATM   23  O   UNL     1       8.419  20.004  52.913  1.00  0.00    -0.271 OA
ENDBRANCH  18  19
ENDBRANCH  17  18
ENDBRANCH  14  17
BRANCH  15  24
HETATM   24  O   UNL     1       8.076  25.538  55.490  1.00  0.00    -0.349 OA
BRANCH  24  25
HETATM   25  C   UNL     1       7.776  25.348  56.871  1.00  0.00     0.171 C 
HETATM   26  C   UNL     1       8.814  24.465  57.543  1.00  0.00     0.034 C 
ENDBRANCH  24  25
ENDBRANCH  15  24
ENDBRANCH   1  11
BRANCH   8  27
HETATM   27  C   UNL     1       4.516  27.889  50.733  1.00  0.00     0.256 C 
HETATM   28  N   UNL     1       3.257  27.685  50.210  1.00  0.00    -0.323 N 
HETATM   29  H   UNL     1       2.480  28.042  50.751  1.00  0.00     0.169 HD
HETATM   30  O   UNL     1       5.599  27.663  50.214  1.00  0.00    -0.267 OA
BRANCH  28  31
HETATM   31  C   UNL     1       2.927  27.078  48.974  1.00  0.00     0.041 A 
HETATM   32  C   UNL     1       2.013  27.730  48.116  1.00  0.00    -0.035 A 
HETATM   33  C   UNL     1       1.384  29.054  48.458  1.00  0.00     0.050 C 
HETATM   34  C   UNL     1       1.674  27.132  46.888  1.00  0.00     0.009 A 
HETATM   35  C   UNL     1       2.222  25.909  46.511  1.00  0.00     0.001 A 
HETATM   36  C   UNL     1       3.115  25.266  47.357  1.00  0.00     0.002 A 
HETATM   37  C   UNL     1       3.463  25.846  48.580  1.00  0.00     0.030 A 
ENDBRANCH  28  31
ENDBRANCH   8  27
TORSDOF 8
ENDMDL
MODEL 10
REMARK VINA RESULT:      -8.7      3.855      8.197
REMARK  8 active torsions:
REMARK  status: ('A' for Active; 'I' for Inactive)
REMARK    1  A    between atoms: C_2  and  O_3 
REMARK    2  A    between atoms: O_3  and  C_4 
REMARK    3  A    between atoms: C_5  and  O_6 
REMARK    4  A    between atoms: O_6  and  C_7 
REMARK    5  A    between atoms: C_7  and  C_8 
REMARK       I    between atoms: C_8  and  N_9 
REMARK    6  A    between atoms: C_13  and  C_14 
REMARK    7  A    between atoms: C_21  and  C_22 
REMARK       I    between atoms: C_22  and  N_23 
REMARK    8  A    between atoms: N_23  and  C_24 
ROOT
HETATM    1  C   UNL     1       4.247  29.407  56.399  1.00  0.00     0.160 C 
HETATM    2  N   UNL     1       3.112  30.295  56.571  1.00  0.00    -0.330 N 
HETATM    3  C   UNL     1       2.563  31.052  55.588  1.00  0.00     0.321 C 
HETATM    4  O   UNL     1       1.704  31.892  55.831  1.00  0.00    -0.247 OA
HETATM    5  N   UNL     1       2.999  30.812  54.318  1.00  0.00    -0.312 N 
HETATM    6  C   UNL     1       3.943  29.875  53.965  1.00  0.00     0.024 C 
HETATM    7  C   UNL     1       4.217  29.737  52.496  1.00  0.00     0.069 C 
HETATM    8  C   UNL     1       4.532  29.172  54.947  1.00  0.00     0.059 C 
HETATM    9  H   UNL     1       2.813  30.532  57.506  1.00  0.00     0.165 HD
HETATM   10  H   UNL     1       2.555  31.380  53.606  1.00  0.00     0.170 HD
ENDROOT
BRANCH   1  11
HETATM   11  C   UNL     1       5.455  29.912  57.174  1.00  0.00    -0.028 A 
HETATM   12  C   UNL     1       6.597  29.116  57.348  1.00  0.00     0.012 A 
HETATM   13  C   UNL     1       7.669  29.574  58.112  1.00  0.00     0.040 A 
HETATM   14  C   UNL     1       7.598  30.824  58.733  1.00  0.00     0.102 A 
HETATM   15  C   UNL     1       6.474  31.647  58.564  1.00  0.00     0.102 A 
HETATM   16  C   UNL     1       5.410  31.182  57.786  1.00  0.00     0.049 A 
BRANCH  14  17
HETATM   17  O   UNL     1       8.643  31.310  59.479  1.00  0.00    -0.339 OA
BRANCH  17  18
HETATM   18  C   UNL     1       9.163  30.349  60.401  1.00  0.00     0.278 C 
BRANCH  18  19
HETATM   19  C   UNL     1       8.856  30.798  61.825  1.00  0.00     0.239 C 
HETATM   20  N   UNL     1       8.772  29.793  62.749  1.00  0.00    -0.368 N 
HETATM   21  H   UNL     1       8.688  28.834  62.426  1.00  0.00     0.159 HD
HETATM   22  H   UNL     1       8.494  30.028  63.690  1.00  0.00     0.159 HD
HETATM   23  O   UNL     1       8.747  31.975  62.157  1.00  0.00    -0.271 OA
ENDBRANCH  18  19
ENDBRANCH  17  18
ENDBRANCH  14  17
BRANCH  15  24
HETATM   24  O   UNL     1       6.510  32.849  59.223  1.00  0.00    -0.349 OA
BRANCH  24  25
HETATM   25  C   UNL     1       5.742  33.017  60.413  1.00  0.00     0.171 C 
HETATM   26  C   UNL     1       4.555  33.935  60.176  1.00  0.00     0.034 C 
ENDBRANCH  24  25
ENDBRANCH  15  24
ENDBRANCH   1  11
BRANCH   8  27
HETATM   27  C   UNL     1       5.566  28.157  54.632  1.00  0.00     0.256 C 
HETATM   28  N   UNL     1       5.078  26.874  54.761  1.00  0.00    -0.323 N 
HETATM   29  H   UNL     1       4.089  26.784  54.952  1.00  0.00     0.169 HD
HETATM   30  O   UNL     1       6.682  28.514  54.284  1.00  0.00    -0.267 OA
BRANCH  28  31
HETATM   31  C   UNL     1       5.794  25.663  54.607  1.00  0.00     0.041 A 
HETATM   32  C   UNL     1       6.221  24.970  55.762  1.00  0.00    -0.035 A 
HETATM   33  C   UNL     1       5.934  25.463  57.154  1.00  0.00     0.050 C 
HETATM   34  C   UNL     1       6.939  23.768  55.619  1.00  0.00     0.009 A 
HETATM   35  C   UNL     1       7.237  23.257  54.360  1.00  0.00     0.001 A 
HETATM   36  C   UNL     1       6.822  23.941  53.225  1.00  0.00     0.002 A 
HETATM   37  C   UNL     1       6.108  25.135  53.348  1.00  0.00     0.030 A 
ENDBRANCH  28  31
ENDBRANCH   8  27
TORSDOF 8
ENDMDL
