MODEL 1
REMARK VINA RESULT:      -8.8      0.000      0.000
REMARK  9 active torsions:
REMARK  status: ('A' for Active; 'I' for Inactive)
REMARK    1  A    between atoms: C_5  and  C_6 
REMARK    2  A    between atoms: C_8  and  C_9 
REMARK    3  A    between atoms: C_9  and  C_10 
REMARK       I    between atoms: C_10  and  N_11 
REMARK    4  A    between atoms: N_11  and  C_12 
REMARK    5  A    between atoms: C_12  and  C_13 
REMARK    6  A    between atoms: C_13  and  N_14 
REMARK    7  A    between atoms: C_28  and  C_29 
REMARK    8  A    between atoms: C_29  and  O_30 
REMARK    9  A    between atoms: O_30  and  C_31 
ROOT
HETATM    1  C   UNL     1       5.173  27.225  53.325  1.00  0.00     0.166 C 
HETATM    2  N   UNL     1       5.369  28.140  54.464  1.00  0.00    -0.319 N 
HETATM    3  C   UNL     1       6.282  28.554  55.279  1.00  0.00     0.011 C 
HETATM    4  C   UNL     1       4.031  28.887  54.713  1.00  0.00     0.170 C 
HETATM    5  S   UNL     1       3.929  29.457  56.336  1.00  0.00    -0.086 SA
HETATM    6  C   UNL     1       5.741  29.273  56.510  1.00  0.00     0.135 C 
HETATM    7  N   UNL     1       3.190  29.149  53.770  1.00  0.00    -0.229 NA
HETATM    8  C   UNL     1       3.615  28.899  52.462  1.00  0.00     0.048 C 
HETATM    9  C   UNL     1       2.953  29.790  51.436  1.00  0.00     0.071 C 
HETATM   10  C   UNL     1       4.623  28.029  52.193  1.00  0.00     0.069 C 
ENDROOT
BRANCH   3  11
HETATM   11  C   UNL     1       7.749  28.352  55.017  1.00  0.00     0.156 C 
BRANCH  11  12
HETATM   12  C   UNL     1       8.607  28.482  56.273  1.00  0.00     0.223 C 
HETATM   13  N   UNL     1       9.247  29.684  56.425  1.00  0.00    -0.359 N 
HETATM   14  H   UNL     1       9.166  30.360  55.668  1.00  0.00     0.162 HD
HETATM   15  O   UNL     1       8.713  27.578  57.097  1.00  0.00    -0.273 OA
BRANCH  13  16
HETATM   16  C   UNL     1      10.327  29.963  57.382  1.00  0.00     0.150 C 
BRANCH  16  17
HETATM   17  C   UNL     1      10.302  31.304  58.158  1.00  0.00     0.254 C 
BRANCH  17  18
HETATM   18  N   UNL     1       9.403  31.294  59.384  1.00  0.00    -0.070 N 
HETATM   19  H   UNL     1       9.301  30.291  59.639  1.00  0.00     0.279 HD
HETATM   20  C   UNL     1       9.976  32.012  60.583  1.00  0.00     0.235 C 
HETATM   21  C   UNL     1       9.063  31.805  61.785  1.00  0.00     0.028 C 
HETATM   22  C   UNL     1       7.643  32.275  61.501  1.00  0.00     0.003 C 
HETATM   23  C   UNL     1       7.092  31.616  60.244  1.00  0.00     0.028 C 
HETATM   24  C   UNL     1       8.017  31.809  59.050  1.00  0.00     0.235 C 
ENDBRANCH  17  18
ENDBRANCH  16  17
ENDBRANCH  13  16
ENDBRANCH  11  12
ENDBRANCH   3  11
BRANCH   1  25
HETATM   25  C   UNL     1       6.113  26.033  53.264  1.00  0.00    -0.030 A 
HETATM   26  C   UNL     1       5.960  25.038  54.263  1.00  0.00     0.010 A 
HETATM   27  C   UNL     1       6.682  23.843  54.234  1.00  0.00     0.007 A 
HETATM   28  C   UNL     1       7.592  23.599  53.210  1.00  0.00    -0.062 A 
HETATM   29  C   UNL     1       8.277  22.268  53.096  1.00  0.00     0.048 C 
HETATM   30  C   UNL     1       7.784  24.584  52.236  1.00  0.00     0.007 A 
HETATM   31  C   UNL     1       7.068  25.789  52.271  1.00  0.00     0.010 A 
ENDBRANCH   1  25
BRANCH  10  32
HETATM   32  C   UNL     1       5.308  28.068  50.906  1.00  0.00     0.294 C 
HETATM   33  O   UNL     1       6.206  28.873  50.715  1.00  0.00    -0.259 OA
BRANCH  32  34
HETATM   34  O   UNL     1       4.811  27.137  50.076  1.00  0.00    -0.313 OA
BRANCH  34  35
HETATM   35  C   UNL     1       4.310  27.519  48.770  1.00  0.00     0.124 C 
HETATM   36  C   UNL     1       5.035  26.809  47.629  1.00  0.00     0.040 C 
HETATM   37  C   UNL     1       2.795  27.368  48.691  1.00  0.00     0.040 C 
ENDBRANCH  34  35
ENDBRANCH  32  34
ENDBRANCH  10  32
TORSDOF 9
ENDMDL
MODEL 2
REMARK VINA RESULT:      -8.8      5.102     10.654
REMARK  9 active torsions:
REMARK  status: ('A' for Active; 'I' for Inactive)
REMARK    1  A    between atoms: C_5  and  C_6 
REMARK    2  A    between atoms: C_8  and  C_9 
REMARK    3  A    between atoms: C_9  and  C_10 
REMARK       I    between atoms: C_10  and  N_11 
REMARK    4  A    between atoms: N_11  and  C_12 
REMARK    5  A    between atoms: C_12  and  C_13 
REMARK    6  A    between atoms: C_13  and  N_14 
REMARK    7  A    between atoms: C_28  and  C_29 
REMARK    8  A    between atoms: C_29  and  O_30 
REMARK    9  A    between atoms: O_30  and  C_31 
ROOT
HETATM    1  C   UNL     1       5.424  34.282  61.375  1.00  0.00     0.166 C 
HETATM    2  N   UNL     1       4.548  34.245  60.190  1.00  0.00    -0.319 N 
HETATM    3  C   UNL     1       3.985  33.413  59.378  1.00  0.00     0.011 C 
HETATM    4  C   UNL     1       4.127  35.702  59.861  1.00  0.00     0.170 C 
HETATM    5  S   UNL     1       3.677  35.861  58.205  1.00  0.00    -0.086 SA
HETATM    6  C   UNL     1       3.467  34.048  58.092  1.00  0.00     0.135 C 
HETATM    7  N   UNL     1       4.008  36.617  60.763  1.00  0.00    -0.229 NA
HETATM    8  C   UNL     1       4.092  36.201  62.095  1.00  0.00     0.048 C 
HETATM    9  C   UNL     1       3.317  37.082  63.048  1.00  0.00     0.071 C 
HETATM   10  C   UNL     1       4.704  35.039  62.442  1.00  0.00     0.069 C 
ENDROOT
BRANCH   3  11
HETATM   11  C   UNL     1       3.846  31.948  59.692  1.00  0.00     0.156 C 
BRANCH  11  12
HETATM   12  C   UNL     1       3.866  31.062  58.449  1.00  0.00     0.223 C 
HETATM   13  N   UNL     1       5.094  30.569  58.099  1.00  0.00    -0.359 N 
HETATM   14  H   UNL     1       5.900  30.885  58.636  1.00  0.00     0.162 HD
HETATM   15  O   UNL     1       2.851  30.800  57.810  1.00  0.00    -0.273 OA
BRANCH  13  16
HETATM   16  C   UNL     1       5.426  29.931  56.817  1.00  0.00     0.150 C 
BRANCH  16  17
HETATM   17  C   UNL     1       6.607  28.928  56.771  1.00  0.00     0.254 C 
BRANCH  17  18
HETATM   18  N   UNL     1       7.978  29.581  56.843  1.00  0.00    -0.070 N 
HETATM   19  H   UNL     1       7.830  30.562  56.533  1.00  0.00     0.279 HD
HETATM   20  C   UNL     1       8.573  29.628  58.231  1.00  0.00     0.235 C 
HETATM   21  C   UNL     1       9.866  30.434  58.204  1.00  0.00     0.028 C 
HETATM   22  C   UNL     1      10.864  29.863  57.207  1.00  0.00     0.003 C 
HETATM   23  C   UNL     1      10.241  29.735  55.823  1.00  0.00     0.028 C 
HETATM   24  C   UNL     1       8.939  28.945  55.858  1.00  0.00     0.235 C 
ENDBRANCH  17  18
ENDBRANCH  16  17
ENDBRANCH  13  16
ENDBRANCH  11  12
ENDBRANCH   3  11
BRANCH   1  25
HETATM   25  C   UNL     1       6.376  33.108  61.532  1.00  0.00    -0.030 A 
HETATM   26  C   UNL     1       7.583  33.151  60.789  1.00  0.00     0.010 A 
HETATM   27  C   UNL     1       8.585  32.192  60.948  1.00  0.00     0.007 A 
HETATM   28  C   UNL     1       8.416  31.146  61.850  1.00  0.00    -0.062 A 
HETATM   29  C   UNL     1       9.536  30.184  62.124  1.00  0.00     0.048 C 
HETATM   30  C   UNL     1       7.218  31.065  62.566  1.00  0.00     0.007 A 
HETATM   31  C   UNL     1       6.206  32.023  62.397  1.00  0.00     0.010 A 
ENDBRANCH   1  25
BRANCH  10  32
HETATM   32  C   UNL     1       4.450  34.431  63.743  1.00  0.00     0.294 C 
HETATM   33  O   UNL     1       3.536  33.632  63.877  1.00  0.00    -0.259 OA
BRANCH  32  34
HETATM   34  O   UNL     1       5.332  34.873  64.653  1.00  0.00    -0.313 OA
BRANCH  34  35
HETATM   35  C   UNL     1       6.002  33.935  65.533  1.00  0.00     0.124 C 
HETATM   36  C   UNL     1       7.470  33.729  65.170  1.00  0.00     0.040 C 
HETATM   37  C   UNL     1       5.804  34.311  66.998  1.00  0.00     0.040 C 
ENDBRANCH  34  35
ENDBRANCH  32  34
ENDBRANCH  10  32
TORSDOF 9
ENDMDL
MODEL 3
REMARK VINA RESULT:      -8.7      2.840      5.328
REMARK  9 active torsions:
REMARK  status: ('A' for Active; 'I' for Inactive)
REMARK    1  A    between atoms: C_5  and  C_6 
REMARK    2  A    between atoms: C_8  and  C_9 
REMARK    3  A    between atoms: C_9  and  C_10 
REMARK       I    between atoms: C_10  and  N_11 
REMARK    4  A    between atoms: N_11  and  C_12 
REMARK    5  A    between atoms: C_12  and  C_13 
REMARK    6  A    between atoms: C_13  and  N_14 
REMARK    7  A    between atoms: C_28  and  C_29 
REMARK    8  A    between atoms: C_29  and  O_30 
REMARK    9  A    between atoms: O_30  and  C_31 
ROOT
HETATM    1  C   UNL     1       4.642  28.309  53.316  1.00  0.00     0.166 C 
HETATM    2  N   UNL     1       5.026  28.942  54.591  1.00  0.00    -0.319 N 
HETATM    3  C   UNL     1       5.993  28.980  55.447  1.00  0.00     0.011 C 
HETATM    4  C   UNL     1       3.901  29.935  54.990  1.00  0.00     0.170 C 
HETATM    5  S   UNL     1       3.902  30.228  56.688  1.00  0.00    -0.086 SA
HETATM    6  C   UNL     1       5.613  29.587  56.793  1.00  0.00     0.135 C 
HETATM    7  N   UNL     1       3.169  30.548  54.122  1.00  0.00    -0.229 NA
HETATM    8  C   UNL     1       3.550  30.429  52.783  1.00  0.00     0.048 C 
HETATM    9  C   UNL     1       3.144  31.614  51.937  1.00  0.00     0.071 C 
HETATM   10  C   UNL     1       4.326  29.402  52.349  1.00  0.00     0.069 C 
ENDROOT
BRANCH   3  11
HETATM   11  C   UNL     1       7.375  28.479  55.126  1.00  0.00     0.156 C 
BRANCH  11  12
HETATM   12  C   UNL     1       7.882  27.436  56.118  1.00  0.00     0.223 C 
HETATM   13  N   UNL     1       7.477  26.150  55.876  1.00  0.00    -0.359 N 
HETATM   14  H   UNL     1       6.819  25.999  55.113  1.00  0.00     0.162 HD
HETATM   15  O   UNL     1       8.610  27.723  57.064  1.00  0.00    -0.273 OA
BRANCH  13  16
HETATM   16  C   UNL     1       7.596  25.025  56.814  1.00  0.00     0.150 C 
BRANCH  16  17
HETATM   17  C   UNL     1       8.827  24.091  56.701  1.00  0.00     0.254 C 
BRANCH  17  18
HETATM   18  N   UNL     1       8.539  22.767  56.011  1.00  0.00    -0.070 N 
HETATM   19  H   UNL     1       7.679  22.932  55.452  1.00  0.00     0.279 HD
HETATM   20  C   UNL     1       9.620  22.313  55.058  1.00  0.00     0.235 C 
HETATM   21  C   UNL     1       9.157  21.065  54.318  1.00  0.00     0.028 C 
HETATM   22  C   UNL     1       8.780  19.947  55.280  1.00  0.00     0.003 C 
HETATM   23  C   UNL     1       7.751  20.425  56.297  1.00  0.00     0.028 C 
HETATM   24  C   UNL     1       8.211  21.684  57.020  1.00  0.00     0.235 C 
ENDBRANCH  17  18
ENDBRANCH  16  17
ENDBRANCH  13  16
ENDBRANCH  11  12
ENDBRANCH   3  11
BRANCH   1  25
HETATM   25  C   UNL     1       5.270  26.953  53.035  1.00  0.00    -0.030 A 
HETATM   26  C   UNL     1       6.548  26.949  52.421  1.00  0.00     0.010 A 
HETATM   27  C   UNL     1       7.272  25.770  52.230  1.00  0.00     0.007 A 
HETATM   28  C   UNL     1       6.744  24.549  52.636  1.00  0.00    -0.062 A 
HETATM   29  C   UNL     1       7.564  23.294  52.554  1.00  0.00     0.048 C 
HETATM   30  C   UNL     1       5.469  24.529  53.210  1.00  0.00     0.007 A 
HETATM   31  C   UNL     1       4.736  25.711  53.392  1.00  0.00     0.010 A 
ENDBRANCH   1  25
BRANCH  10  32
HETATM   32  C   UNL     1       5.028  29.493  51.075  1.00  0.00     0.294 C 
HETATM   33  O   UNL     1       6.084  30.102  51.001  1.00  0.00    -0.259 OA
BRANCH  32  34
HETATM   34  O   UNL     1       4.357  28.838  50.115  1.00  0.00    -0.313 OA
BRANCH  34  35
HETATM   35  C   UNL     1       5.047  27.891  49.261  1.00  0.00     0.124 C 
HETATM   36  C   UNL     1       4.526  26.464  49.419  1.00  0.00     0.040 C 
HETATM   37  C   UNL     1       5.056  28.357  47.810  1.00  0.00     0.040 C 
ENDBRANCH  34  35
ENDBRANCH  32  34
ENDBRANCH  10  32
TORSDOF 9
ENDMDL
MODEL 4
REMARK VINA RESULT:      -8.6      2.799      5.473
REMARK  9 active torsions:
REMARK  status: ('A' for Active; 'I' for Inactive)
REMARK    1  A    between atoms: C_5  and  C_6 
REMARK    2  A    between atoms: C_8  and  C_9 
REMARK    3  A    between atoms: C_9  and  C_10 
REMARK       I    between atoms: C_10  and  N_11 
REMARK    4  A    between atoms: N_11  and  C_12 
REMARK    5  A    between atoms: C_12  and  C_13 
REMARK    6  A    between atoms: C_13  and  N_14 
REMARK    7  A    between atoms: C_28  and  C_29 
REMARK    8  A    between atoms: C_29  and  O_30 
REMARK    9  A    between atoms: O_30  and  C_31 
ROOT
HETATM    1  C   UNL     1       6.744  27.763  55.606  1.00  0.00     0.166 C 
HETATM    2  N   UNL     1       7.010  28.744  56.673  1.00  0.00    -0.319 N 
HETATM    3  C   UNL     1       6.452  29.726  57.302  1.00  0.00     0.011 C 
HETATM    4  C   UNL     1       8.413  28.440  57.264  1.00  0.00     0.170 C 
HETATM    5  S   UNL     1       9.088  29.837  58.014  1.00  0.00    -0.086 SA
HETATM    6  C   UNL     1       7.425  30.594  58.093  1.00  0.00     0.135 C 
HETATM    7  N   UNL     1       8.917  27.253  57.293  1.00  0.00    -0.229 NA
HETATM    8  C   UNL     1       8.068  26.201  56.939  1.00  0.00     0.048 C 
HETATM    9  C   UNL     1       8.430  24.891  57.600  1.00  0.00     0.071 C 
HETATM   10  C   UNL     1       6.958  26.403  56.182  1.00  0.00     0.069 C 
ENDROOT
BRANCH   3  11
HETATM   11  C   UNL     1       4.969  29.970  57.263  1.00  0.00     0.156 C 
BRANCH  11  12
HETATM   12  C   UNL     1       4.554  31.264  57.960  1.00  0.00     0.223 C 
HETATM   13  N   UNL     1       4.419  31.180  59.320  1.00  0.00    -0.359 N 
HETATM   14  H   UNL     1       4.528  30.263  59.750  1.00  0.00     0.162 HD
HETATM   15  O   UNL     1       4.362  32.310  57.348  1.00  0.00    -0.273 OA
BRANCH  13  16
HETATM   16  C   UNL     1       3.777  32.186  60.179  1.00  0.00     0.150 C 
BRANCH  16  17
HETATM   17  C   UNL     1       4.655  33.305  60.794  1.00  0.00     0.254 C 
BRANCH  17  18
HETATM   18  N   UNL     1       5.643  32.814  61.839  1.00  0.00    -0.070 N 
HETATM   19  H   UNL     1       5.272  31.896  62.155  1.00  0.00     0.279 HD
HETATM   20  C   UNL     1       7.041  32.582  61.314  1.00  0.00     0.235 C 
HETATM   21  C   UNL     1       7.897  31.951  62.404  1.00  0.00     0.028 C 
HETATM   22  C   UNL     1       7.927  32.806  63.663  1.00  0.00     0.003 C 
HETATM   23  C   UNL     1       6.516  33.112  64.149  1.00  0.00     0.028 C 
HETATM   24  C   UNL     1       5.659  33.726  63.050  1.00  0.00     0.235 C 
ENDBRANCH  17  18
ENDBRANCH  16  17
ENDBRANCH  13  16
ENDBRANCH  11  12
ENDBRANCH   3  11
BRANCH   1  25
HETATM   25  C   UNL     1       5.740  28.191  54.548  1.00  0.00    -0.030 A 
HETATM   26  C   UNL     1       6.248  28.500  53.261  1.00  0.00     0.010 A 
HETATM   27  C   UNL     1       5.408  28.783  52.182  1.00  0.00     0.007 A 
HETATM   28  C   UNL     1       4.027  28.777  52.349  1.00  0.00    -0.062 A 
HETATM   29  C   UNL     1       3.112  28.952  51.171  1.00  0.00     0.048 C 
HETATM   30  C   UNL     1       3.507  28.512  53.620  1.00  0.00     0.007 A 
HETATM   31  C   UNL     1       4.351  28.239  54.707  1.00  0.00     0.010 A 
ENDBRANCH   1  25
BRANCH  10  32
HETATM   32  C   UNL     1       5.896  25.405  56.149  1.00  0.00     0.294 C 
HETATM   33  O   UNL     1       4.921  25.524  56.876  1.00  0.00    -0.259 OA
BRANCH  32  34
HETATM   34  O   UNL     1       6.174  24.446  55.252  1.00  0.00    -0.313 OA
BRANCH  34  35
HETATM   35  C   UNL     1       6.350  24.786  53.854  1.00  0.00     0.124 C 
HETATM   36  C   UNL     1       7.329  23.858  53.139  1.00  0.00     0.040 C 
HETATM   37  C   UNL     1       5.009  24.894  53.136  1.00  0.00     0.040 C 
ENDBRANCH  34  35
ENDBRANCH  32  34
ENDBRANCH  10  32
TORSDOF 9
ENDMDL
MODEL 5
REMARK VINA RESULT:      -8.4      4.446     10.957
REMARK  9 active torsions:
REMARK  status: ('A' for Active; 'I' for Inactive)
REMARK    1  A    between atoms: C_5  and  C_6 
REMARK    2  A    between atoms: C_8  and  C_9 
REMARK    3  A    between atoms: C_9  and  C_10 
REMARK       I    between atoms: C_10  and  N_11 
REMARK    4  A    between atoms: N_11  and  C_12 
REMARK    5  A    between atoms: C_12  and  C_13 
REMARK    6  A    between atoms: C_13  and  N_14 
REMARK    7  A    between atoms: C_28  and  C_29 
REMARK    8  A    between atoms: C_29  and  O_30 
REMARK    9  A    between atoms: O_30  and  C_31 
ROOT
HETATM    1  C   UNL     1       5.439  34.185  61.167  1.00  0.00     0.166 C 
HETATM    2  N   UNL     1       4.640  34.136  59.929  1.00  0.00    -0.319 N 
HETATM    3  C   UNL     1       4.160  33.298  59.071  1.00  0.00     0.011 C 
HETATM    4  C   UNL     1       4.185  35.582  59.596  1.00  0.00     0.170 C 
HETATM    5  S   UNL     1       3.832  35.753  57.918  1.00  0.00    -0.086 SA
HETATM    6  C   UNL     1       3.698  33.935  57.765  1.00  0.00     0.135 C 
HETATM    7  N   UNL     1       3.976  36.476  60.503  1.00  0.00    -0.229 NA
HETATM    8  C   UNL     1       3.993  36.040  61.830  1.00  0.00     0.048 C 
HETATM    9  C   UNL     1       3.128  36.875  62.746  1.00  0.00     0.071 C 
HETATM   10  C   UNL     1       4.626  34.895  62.198  1.00  0.00     0.069 C 
ENDROOT
BRANCH   3  11
HETATM   11  C   UNL     1       4.057  31.824  59.353  1.00  0.00     0.156 C 
BRANCH  11  12
HETATM   12  C   UNL     1       4.955  30.975  58.456  1.00  0.00     0.223 C 
HETATM   13  N   UNL     1       4.355  29.881  57.892  1.00  0.00    -0.359 N 
HETATM   14  H   UNL     1       3.396  29.674  58.168  1.00  0.00     0.162 HD
HETATM   15  O   UNL     1       6.131  31.256  58.245  1.00  0.00    -0.273 OA
BRANCH  13  16
HETATM   16  C   UNL     1       5.052  28.772  57.225  1.00  0.00     0.150 C 
BRANCH  16  17
HETATM   17  C   UNL     1       4.413  28.149  55.958  1.00  0.00     0.254 C 
BRANCH  17  18
HETATM   18  N   UNL     1       4.887  26.737  55.656  1.00  0.00    -0.070 N 
HETATM   19  H   UNL     1       4.051  26.134  55.789  1.00  0.00     0.279 HD
HETATM   20  C   UNL     1       5.372  26.532  54.239  1.00  0.00     0.235 C 
HETATM   21  C   UNL     1       5.674  25.057  54.011  1.00  0.00     0.028 C 
HETATM   22  C   UNL     1       6.691  24.529  55.013  1.00  0.00     0.003 C 
HETATM   23  C   UNL     1       6.246  24.808  56.442  1.00  0.00     0.028 C 
HETATM   24  C   UNL     1       5.927  26.281  56.660  1.00  0.00     0.235 C 
ENDBRANCH  17  18
ENDBRANCH  16  17
ENDBRANCH  13  16
ENDBRANCH  11  12
ENDBRANCH   3  11
BRANCH   1  25
HETATM   25  C   UNL     1       6.423  33.043  61.365  1.00  0.00    -0.030 A 
HETATM   26  C   UNL     1       7.645  33.113  60.650  1.00  0.00     0.010 A 
HETATM   27  C   UNL     1       8.673  32.188  60.848  1.00  0.00     0.007 A 
HETATM   28  C   UNL     1       8.515  31.152  61.763  1.00  0.00    -0.062 A 
HETATM   29  C   UNL     1       9.657  30.230  62.079  1.00  0.00     0.048 C 
HETATM   30  C   UNL     1       7.303  31.044  62.451  1.00  0.00     0.007 A 
HETATM   31  C   UNL     1       6.266  31.967  62.243  1.00  0.00     0.010 A 
ENDBRANCH   1  25
BRANCH  10  32
HETATM   32  C   UNL     1       4.315  34.256  63.471  1.00  0.00     0.294 C 
HETATM   33  O   UNL     1       3.438  33.409  63.532  1.00  0.00    -0.259 OA
BRANCH  32  34
HETATM   34  O   UNL     1       5.107  34.731  64.446  1.00  0.00    -0.313 OA
BRANCH  34  35
HETATM   35  C   UNL     1       5.716  33.821  65.396  1.00  0.00     0.124 C 
HETATM   36  C   UNL     1       7.227  33.700  65.214  1.00  0.00     0.040 C 
HETATM   37  C   UNL     1       5.321  34.168  66.827  1.00  0.00     0.040 C 
ENDBRANCH  34  35
ENDBRANCH  32  34
ENDBRANCH  10  32
TORSDOF 9
ENDMDL
MODEL 6
REMARK VINA RESULT:      -8.0      4.204      6.724
REMARK  9 active torsions:
REMARK  status: ('A' for Active; 'I' for Inactive)
REMARK    1  A    between atoms: C_5  and  C_6 
REMARK    2  A    between atoms: C_8  and  C_9 
REMARK    3  A    between atoms: C_9  and  C_10 
REMARK       I    between atoms: C_10  and  N_11 
REMARK    4  A    between atoms: N_11  and  C_12 
REMARK    5  A    between atoms: C_12  and  C_13 
REMARK    6  A    between atoms: C_13  and  N_14 
REMARK    7  A    between atoms: C_28  and  C_29 
REMARK    8  A    between atoms: C_29  and  O_30 
REMARK    9  A    between atoms: O_30  and  C_31 
ROOT
HETATM    1  C   UNL     1       3.960  29.927  50.993  1.00  0.00     0.166 C 
HETATM    2  N   UNL     1       4.215  29.708  52.429  1.00  0.00    -0.319 N 
HETATM    3  C   UNL     1       4.709  28.835  53.244  1.00  0.00     0.011 C 
HETATM    4  C   UNL     1       3.795  30.994  53.190  1.00  0.00     0.170 C 
HETATM    5  S   UNL     1       3.433  30.650  54.840  1.00  0.00    -0.086 SA
HETATM    6  C   UNL     1       4.344  29.069  54.705  1.00  0.00     0.135 C 
HETATM    7  N   UNL     1       3.853  32.170  52.663  1.00  0.00    -0.229 NA
HETATM    8  C   UNL     1       4.494  32.272  51.425  1.00  0.00     0.048 C 
HETATM    9  C   UNL     1       5.118  33.628  51.184  1.00  0.00     0.071 C 
HETATM   10  C   UNL     1       4.639  31.199  50.605  1.00  0.00     0.069 C 
ENDROOT
BRANCH   3  11
HETATM   11  C   UNL     1       5.580  27.700  52.779  1.00  0.00     0.156 C 
BRANCH  11  12
HETATM   12  C   UNL     1       5.309  26.393  53.520  1.00  0.00     0.223 C 
HETATM   13  N   UNL     1       5.978  26.241  54.705  1.00  0.00    -0.359 N 
HETATM   14  H   UNL     1       6.651  26.961  54.963  1.00  0.00     0.162 HD
HETATM   15  O   UNL     1       4.539  25.539  53.091  1.00  0.00    -0.273 OA
BRANCH  13  16
HETATM   16  C   UNL     1       6.105  24.986  55.461  1.00  0.00     0.150 C 
BRANCH  16  17
HETATM   17  C   UNL     1       7.487  24.287  55.511  1.00  0.00     0.254 C 
BRANCH  17  18
HETATM   18  N   UNL     1       7.484  22.868  54.967  1.00  0.00    -0.070 N 
HETATM   19  H   UNL     1       6.480  22.625  54.844  1.00  0.00     0.279 HD
HETATM   20  C   UNL     1       8.156  22.714  53.623  1.00  0.00     0.235 C 
HETATM   21  C   UNL     1       7.957  21.292  53.113  1.00  0.00     0.028 C 
HETATM   22  C   UNL     1       8.483  20.261  54.101  1.00  0.00     0.003 C 
HETATM   23  C   UNL     1       7.871  20.465  55.481  1.00  0.00     0.028 C 
HETATM   24  C   UNL     1       8.055  21.893  55.978  1.00  0.00     0.235 C 
ENDBRANCH  17  18
ENDBRANCH  16  17
ENDBRANCH  13  16
ENDBRANCH  11  12
ENDBRANCH   3  11
BRANCH   1  25
HETATM   25  C   UNL     1       3.760  28.673  50.158  1.00  0.00    -0.030 A 
HETATM   26  C   UNL     1       2.491  28.498  49.549  1.00  0.00     0.010 A 
HETATM   27  C   UNL     1       2.234  27.451  48.662  1.00  0.00     0.007 A 
HETATM   28  C   UNL     1       3.233  26.532  48.355  1.00  0.00    -0.062 A 
HETATM   29  C   UNL     1       3.010  25.480  47.307  1.00  0.00     0.048 C 
HETATM   30  C   UNL     1       4.480  26.666  48.974  1.00  0.00     0.007 A 
HETATM   31  C   UNL     1       4.735  27.711  49.874  1.00  0.00     0.010 A 
ENDBRANCH   1  25
BRANCH  10  32
HETATM   32  C   UNL     1       5.623  31.219  49.530  1.00  0.00     0.294 C 
HETATM   33  O   UNL     1       6.699  30.658  49.675  1.00  0.00    -0.259 OA
BRANCH  32  34
HETATM   34  O   UNL     1       5.154  31.894  48.469  1.00  0.00    -0.313 OA
BRANCH  34  35
HETATM   35  C   UNL     1       4.125  31.310  47.632  1.00  0.00     0.124 C 
HETATM   36  C   UNL     1       3.496  32.321  46.676  1.00  0.00     0.040 C 
HETATM   37  C   UNL     1       4.632  30.061  46.919  1.00  0.00     0.040 C 
ENDBRANCH  34  35
ENDBRANCH  32  34
ENDBRANCH  10  32
TORSDOF 9
ENDMDL
MODEL 7
REMARK VINA RESULT:      -8.0      3.064      7.755
REMARK  9 active torsions:
REMARK  status: ('A' for Active; 'I' for Inactive)
REMARK    1  A    between atoms: C_5  and  C_6 
REMARK    2  A    between atoms: C_8  and  C_9 
REMARK    3  A    between atoms: C_9  and  C_10 
REMARK       I    between atoms: C_10  and  N_11 
REMARK    4  A    between atoms: N_11  and  C_12 
REMARK    5  A    between atoms: C_12  and  C_13 
REMARK    6  A    between atoms: C_13  and  N_14 
REMARK    7  A    between atoms: C_28  and  C_29 
REMARK    8  A    between atoms: C_29  and  O_30 
REMARK    9  A    between atoms: O_30  and  C_31 
ROOT
HETATM    1  C   UNL     1       7.093  26.633  55.118  1.00  0.00     0.166 C 
HETATM    2  N   UNL     1       6.733  27.762  55.995  1.00  0.00    -0.319 N 
HETATM    3  C   UNL     1       5.747  28.549  56.273  1.00  0.00     0.011 C 
HETATM    4  C   UNL     1       7.940  28.045  56.929  1.00  0.00     0.170 C 
HETATM    5  S   UNL     1       7.912  29.668  57.509  1.00  0.00    -0.086 SA
HETATM    6  C   UNL     1       6.142  29.791  57.063  1.00  0.00     0.135 C 
HETATM    7  N   UNL     1       8.761  27.125  57.310  1.00  0.00    -0.229 NA
HETATM    8  C   UNL     1       8.415  25.807  57.000  1.00  0.00     0.048 C 
HETATM    9  C   UNL     1       8.970  24.796  57.977  1.00  0.00     0.071 C 
HETATM   10  C   UNL     1       7.552  25.513  55.992  1.00  0.00     0.069 C 
ENDROOT
BRANCH   3  11
HETATM   11  C   UNL     1       4.333  28.246  55.859  1.00  0.00     0.156 C 
BRANCH  11  12
HETATM   12  C   UNL     1       3.753  29.279  54.897  1.00  0.00     0.223 C 
HETATM   13  N   UNL     1       3.640  28.870  53.595  1.00  0.00    -0.359 N 
HETATM   14  H   UNL     1       4.014  27.954  53.354  1.00  0.00     0.162 HD
HETATM   15  O   UNL     1       3.403  30.398  55.262  1.00  0.00    -0.273 OA
BRANCH  13  16
HETATM   16  C   UNL     1       3.377  29.745  52.443  1.00  0.00     0.150 C 
BRANCH  16  17
HETATM   17  C   UNL     1       2.436  29.233  51.323  1.00  0.00     0.254 C 
BRANCH  17  18
HETATM   18  N   UNL     1       3.112  29.077  49.970  1.00  0.00    -0.070 N 
HETATM   19  H   UNL     1       3.569  28.144  49.999  1.00  0.00     0.279 HD
HETATM   20  C   UNL     1       2.162  29.079  48.795  1.00  0.00     0.235 C 
HETATM   21  C   UNL     1       2.929  28.764  47.517  1.00  0.00     0.028 C 
HETATM   22  C   UNL     1       4.072  29.744  47.291  1.00  0.00     0.003 C 
HETATM   23  C   UNL     1       4.986  29.807  48.507  1.00  0.00     0.028 C 
HETATM   24  C   UNL     1       4.212  30.104  49.785  1.00  0.00     0.235 C 
ENDBRANCH  17  18
ENDBRANCH  16  17
ENDBRANCH  13  16
ENDBRANCH  11  12
ENDBRANCH   3  11
BRANCH   1  25
HETATM   25  C   UNL     1       6.338  26.551  53.801  1.00  0.00    -0.030 A 
HETATM   26  C   UNL     1       6.728  27.450  52.776  1.00  0.00     0.010 A 
HETATM   27  C   UNL     1       6.191  27.382  51.488  1.00  0.00     0.007 A 
HETATM   28  C   UNL     1       5.237  26.419  51.177  1.00  0.00    -0.062 A 
HETATM   29  C   UNL     1       4.749  26.252  49.767  1.00  0.00     0.048 C 
HETATM   30  C   UNL     1       4.812  25.547  52.184  1.00  0.00     0.007 A 
HETATM   31  C   UNL     1       5.343  25.622  53.481  1.00  0.00     0.010 A 
ENDBRANCH   1  25
BRANCH  10  32
HETATM   32  C   UNL     1       6.907  24.208  55.930  1.00  0.00     0.294 C 
HETATM   33  O   UNL     1       5.755  24.075  56.314  1.00  0.00    -0.259 OA
BRANCH  32  34
HETATM   34  O   UNL     1       7.741  23.290  55.414  1.00  0.00    -0.313 OA
BRANCH  34  35
HETATM   35  C   UNL     1       7.460  22.696  54.122  1.00  0.00     0.124 C 
HETATM   36  C   UNL     1       8.124  23.447  52.970  1.00  0.00     0.040 C 
HETATM   37  C   UNL     1       7.780  21.205  54.116  1.00  0.00     0.040 C 
ENDBRANCH  34  35
ENDBRANCH  32  34
ENDBRANCH  10  32
TORSDOF 9
ENDMDL
MODEL 8
REMARK VINA RESULT:      -8.0      3.073      7.881
REMARK  9 active torsions:
REMARK  status: ('A' for Active; 'I' for Inactive)
REMARK    1  A    between atoms: C_5  and  C_6 
REMARK    2  A    between atoms: C_8  and  C_9 
REMARK    3  A    between atoms: C_9  and  C_10 
REMARK       I    between atoms: C_10  and  N_11 
REMARK    4  A    between atoms: N_11  and  C_12 
REMARK    5  A    between atoms: C_12  and  C_13 
REMARK    6  A    between atoms: C_13  and  N_14 
REMARK    7  A    between atoms: C_28  and  C_29 
REMARK    8  A    between atoms: C_29  and  O_30 
REMARK    9  A    between atoms: O_30  and  C_31 
ROOT
HETATM    1  C   UNL     1       5.038  30.472  55.337  1.00  0.00     0.166 C 
HETATM    2  N   UNL     1       4.438  30.452  53.990  1.00  0.00    -0.319 N 
HETATM    3  C   UNL     1       3.969  29.634  53.107  1.00  0.00     0.011 C 
HETATM    4  C   UNL     1       4.271  31.922  53.519  1.00  0.00     0.170 C 
HETATM    5  S   UNL     1       4.208  32.022  51.800  1.00  0.00    -0.086 SA
HETATM    6  C   UNL     1       3.816  30.237  51.715  1.00  0.00     0.135 C 
HETATM    7  N   UNL     1       4.070  32.900  54.337  1.00  0.00    -0.229 NA
HETATM    8  C   UNL     1       3.817  32.563  55.669  1.00  0.00     0.048 C 
HETATM    9  C   UNL     1       2.965  33.580  56.392  1.00  0.00     0.071 C 
HETATM   10  C   UNL     1       4.199  31.367  56.188  1.00  0.00     0.069 C 
ENDROOT
BRANCH   3  11
HETATM   11  C   UNL     1       3.595  28.216  53.440  1.00  0.00     0.156 C 
BRANCH  11  12
HETATM   12  C   UNL     1       4.566  27.187  52.866  1.00  0.00     0.223 C 
HETATM   13  N   UNL     1       4.300  25.884  53.191  1.00  0.00    -0.359 N 
HETATM   14  H   UNL     1       3.536  25.706  53.841  1.00  0.00     0.162 HD
HETATM   15  O   UNL     1       5.515  27.501  52.154  1.00  0.00    -0.273 OA
BRANCH  13  16
HETATM   16  C   UNL     1       5.217  24.750  53.000  1.00  0.00     0.150 C 
BRANCH  16  17
HETATM   17  C   UNL     1       6.395  24.574  53.991  1.00  0.00     0.254 C 
BRANCH  17  18
HETATM   18  N   UNL     1       6.906  23.147  54.099  1.00  0.00    -0.070 N 
HETATM   19  H   UNL     1       6.069  22.546  53.959  1.00  0.00     0.279 HD
HETATM   20  C   UNL     1       7.920  22.766  53.046  1.00  0.00     0.235 C 
HETATM   21  C   UNL     1       8.241  21.281  53.159  1.00  0.00     0.028 C 
HETATM   22  C   UNL     1       8.744  20.919  54.549  1.00  0.00     0.003 C 
HETATM   23  C   UNL     1       7.764  21.377  55.621  1.00  0.00     0.028 C 
HETATM   24  C   UNL     1       7.432  22.857  55.492  1.00  0.00     0.235 C 
ENDBRANCH  17  18
ENDBRANCH  16  17
ENDBRANCH  13  16
ENDBRANCH  11  12
ENDBRANCH   3  11
BRANCH   1  25
HETATM   25  C   UNL     1       5.790  29.216  55.745  1.00  0.00    -0.030 A 
HETATM   26  C   UNL     1       7.192  29.207  55.537  1.00  0.00     0.010 A 
HETATM   27  C   UNL     1       8.000  28.160  55.987  1.00  0.00     0.007 A 
HETATM   28  C   UNL     1       7.436  27.077  56.654  1.00  0.00    -0.062 A 
HETATM   29  C   UNL     1       8.306  26.010  57.255  1.00  0.00     0.048 C 
HETATM   30  C   UNL     1       6.050  27.050  56.836  1.00  0.00     0.007 A 
HETATM   31  C   UNL     1       5.236  28.096  56.374  1.00  0.00     0.010 A 
ENDBRANCH   1  25
BRANCH  10  32
HETATM   32  C   UNL     1       3.603  30.875  57.424  1.00  0.00     0.294 C 
HETATM   33  O   UNL     1       2.472  30.413  57.416  1.00  0.00    -0.259 OA
BRANCH  32  34
HETATM   34  O   UNL     1       4.458  31.009  58.450  1.00  0.00    -0.313 OA
BRANCH  34  35
HETATM   35  C   UNL     1       4.447  32.216  59.254  1.00  0.00     0.124 C 
HETATM   36  C   UNL     1       3.338  32.216  60.303  1.00  0.00     0.040 C 
HETATM   37  C   UNL     1       5.822  32.499  59.849  1.00  0.00     0.040 C 
ENDBRANCH  34  35
ENDBRANCH  32  34
ENDBRANCH  10  32
TORSDOF 9
ENDMDL
MODEL 9
REMARK VINA RESULT:      -7.8      5.309      9.525
REMARK  9 active torsions:
REMARK  status: ('A' for Active; 'I' for Inactive)
REMARK    1  A    between atoms: C_5  and  C_6 
REMARK    2  A    between atoms: C_8  and  C_9 
REMARK    3  A    between atoms: C_9  and  C_10 
REMARK       I    between atoms: C_10  and  N_11 
REMARK    4  A    between atoms: N_11  and  C_12 
REMARK    5  A    between atoms: C_12  and  C_13 
REMARK    6  A    between atoms: C_13  and  N_14 
REMARK    7  A    between atoms: C_28  and  C_29 
REMARK    8  A    between atoms: C_29  and  O_30 
REMARK    9  A    between atoms: O_30  and  C_31 
ROOT
HETATM    1  C   UNL     1       5.490  31.463  58.561  1.00  0.00     0.166 C 
HETATM    2  N   UNL     1       5.152  31.844  57.177  1.00  0.00    -0.319 N 
HETATM    3  C   UNL     1       4.764  32.858  56.476  1.00  0.00     0.011 C 
HETATM    4  C   UNL     1       5.411  30.614  56.266  1.00  0.00     0.170 C 
HETATM    5  S   UNL     1       4.479  30.703  54.820  1.00  0.00    -0.086 SA
HETATM    6  C   UNL     1       4.232  32.495  55.094  1.00  0.00     0.135 C 
HETATM    7  N   UNL     1       6.315  29.730  56.525  1.00  0.00    -0.229 NA
HETATM    8  C   UNL     1       7.195  30.019  57.571  1.00  0.00     0.048 C 
HETATM    9  C   UNL     1       8.550  29.369  57.411  1.00  0.00     0.071 C 
HETATM   10  C   UNL     1       6.876  30.908  58.548  1.00  0.00     0.069 C 
ENDROOT
BRANCH   3  11
HETATM   11  C   UNL     1       4.851  34.270  56.986  1.00  0.00     0.156 C 
BRANCH  11  12
HETATM   12  C   UNL     1       3.553  34.760  57.623  1.00  0.00     0.223 C 
HETATM   13  N   UNL     1       3.689  35.793  58.512  1.00  0.00    -0.359 N 
HETATM   14  H   UNL     1       4.634  36.101  58.736  1.00  0.00     0.162 HD
HETATM   15  O   UNL     1       2.460  34.270  57.355  1.00  0.00    -0.273 OA
BRANCH  13  16
HETATM   16  C   UNL     1       2.656  36.256  59.450  1.00  0.00     0.150 C 
BRANCH  16  17
HETATM   17  C   UNL     1       2.933  37.530  60.288  1.00  0.00     0.254 C 
BRANCH  17  18
HETATM   18  N   UNL     1       4.100  37.396  61.253  1.00  0.00    -0.070 N 
HETATM   19  H   UNL     1       4.479  36.441  61.092  1.00  0.00     0.279 HD
HETATM   20  C   UNL     1       5.224  38.376  61.010  1.00  0.00     0.235 C 
HETATM   21  C   UNL     1       6.394  38.049  61.930  1.00  0.00     0.028 C 
HETATM   22  C   UNL     1       5.977  38.055  63.394  1.00  0.00     0.003 C 
HETATM   23  C   UNL     1       4.789  37.131  63.628  1.00  0.00     0.028 C 
HETATM   24  C   UNL     1       3.630  37.450  62.693  1.00  0.00     0.235 C 
ENDBRANCH  17  18
ENDBRANCH  16  17
ENDBRANCH  13  16
ENDBRANCH  11  12
ENDBRANCH   3  11
BRANCH   1  25
HETATM   25  C   UNL     1       4.808  32.269  59.655  1.00  0.00    -0.030 A 
HETATM   26  C   UNL     1       3.452  31.963  59.932  1.00  0.00     0.010 A 
HETATM   27  C   UNL     1       2.763  32.551  60.996  1.00  0.00     0.007 A 
HETATM   28  C   UNL     1       3.401  33.474  61.818  1.00  0.00    -0.062 A 
HETATM   29  C   UNL     1       2.714  34.014  63.039  1.00  0.00     0.048 C 
HETATM   30  C   UNL     1       4.728  33.817  61.538  1.00  0.00     0.007 A 
HETATM   31  C   UNL     1       5.416  33.235  60.463  1.00  0.00     0.010 A 
ENDBRANCH   1  25
BRANCH  10  32
HETATM   32  C   UNL     1       7.917  31.485  59.390  1.00  0.00     0.294 C 
HETATM   33  O   UNL     1       8.584  32.423  58.981  1.00  0.00    -0.259 OA
BRANCH  32  34
HETATM   34  O   UNL     1       7.976  30.852  60.572  1.00  0.00    -0.313 OA
BRANCH  34  35
HETATM   35  C   UNL     1       8.911  31.294  61.588  1.00  0.00     0.124 C 
HETATM   36  C   UNL     1       8.281  32.256  62.593  1.00  0.00     0.040 C 
HETATM   37  C   UNL     1       9.603  30.112  62.257  1.00  0.00     0.040 C 
ENDBRANCH  34  35
ENDBRANCH  32  34
ENDBRANCH  10  32
TORSDOF 9
ENDMDL
MODEL 10
REMARK VINA RESULT:      -7.7      3.102      8.965
REMARK  9 active torsions:
REMARK  status: ('A' for Active; 'I' for Inactive)
REMARK    1  A    between atoms: C_5  and  C_6 
REMARK    2  A    between atoms: C_8  and  C_9 
REMARK    3  A    between atoms: C_9  and  C_10 
REMARK       I    between atoms: C_10  and  N_11 
REMARK    4  A    between atoms: N_11  and  C_12 
REMARK    5  A    between atoms: C_12  and  C_13 
REMARK    6  A    between atoms: C_13  and  N_14 
REMARK    7  A    between atoms: C_28  and  C_29 
REMARK    8  A    between atoms: C_29  and  O_30 
REMARK    9  A    between atoms: O_30  and  C_31 
ROOT
HETATM    1  C   UNL     1       6.100  27.205  56.046  1.00  0.00     0.166 C 
HETATM    2  N   UNL     1       6.271  26.645  54.693  1.00  0.00    -0.319 N 
HETATM    3  C   UNL     1       6.332  27.004  53.453  1.00  0.00     0.011 C 
HETATM    4  C   UNL     1       6.516  25.119  54.835  1.00  0.00     0.170 C 
HETATM    5  S   UNL     1       6.089  24.283  53.389  1.00  0.00    -0.086 SA
HETATM    6  C   UNL     1       6.163  25.858  52.462  1.00  0.00     0.135 C 
HETATM    7  N   UNL     1       7.093  24.595  55.864  1.00  0.00    -0.229 NA
HETATM    8  C   UNL     1       7.669  25.481  56.779  1.00  0.00     0.048 C 
HETATM    9  C   UNL     1       8.840  24.889  57.529  1.00  0.00     0.071 C 
HETATM   10  C   UNL     1       7.276  26.779  56.860  1.00  0.00     0.069 C 
ENDROOT
BRANCH   3  11
HETATM   11  C   UNL     1       6.566  28.430  53.037  1.00  0.00     0.156 C 
BRANCH  11  12
HETATM   12  C   UNL     1       5.394  29.031  52.265  1.00  0.00     0.223 C 
HETATM   13  N   UNL     1       5.660  29.370  50.965  1.00  0.00    -0.359 N 
HETATM   14  H   UNL     1       6.620  29.270  50.638  1.00  0.00     0.162 HD
HETATM   15  O   UNL     1       4.286  29.193  52.767  1.00  0.00    -0.273 OA
BRANCH  13  16
HETATM   16  C   UNL     1       4.805  30.201  50.105  1.00  0.00     0.150 C 
BRANCH  16  17
HETATM   17  C   UNL     1       4.563  29.751  48.642  1.00  0.00     0.254 C 
BRANCH  17  18
HETATM   18  N   UNL     1       3.838  28.421  48.515  1.00  0.00    -0.070 N 
HETATM   19  H   UNL     1       3.792  28.042  49.482  1.00  0.00     0.279 HD
HETATM   20  C   UNL     1       2.421  28.529  48.002  1.00  0.00     0.235 C 
HETATM   21  C   UNL     1       1.750  27.163  48.063  1.00  0.00     0.028 C 
HETATM   22  C   UNL     1       2.530  26.118  47.278  1.00  0.00     0.003 C 
HETATM   23  C   UNL     1       3.982  26.063  47.735  1.00  0.00     0.028 C 
HETATM   24  C   UNL     1       4.643  27.435  47.691  1.00  0.00     0.235 C 
ENDBRANCH  17  18
ENDBRANCH  16  17
ENDBRANCH  13  16
ENDBRANCH  11  12
ENDBRANCH   3  11
BRANCH   1  25
HETATM   25  C   UNL     1       5.317  28.505  56.130  1.00  0.00    -0.030 A 
HETATM   26  C   UNL     1       6.055  29.711  56.032  1.00  0.00     0.010 A 
HETATM   27  C   UNL     1       5.430  30.959  55.971  1.00  0.00     0.007 A 
HETATM   28  C   UNL     1       4.043  31.050  56.015  1.00  0.00    -0.062 A 
HETATM   29  C   UNL     1       3.356  32.371  55.821  1.00  0.00     0.048 C 
HETATM   30  C   UNL     1       3.298  29.874  56.149  1.00  0.00     0.007 A 
HETATM   31  C   UNL     1       3.926  28.621  56.222  1.00  0.00     0.010 A 
ENDBRANCH   1  25
BRANCH  10  32
HETATM   32  C   UNL     1       8.124  27.766  57.517  1.00  0.00     0.294 C 
HETATM   33  O   UNL     1       7.752  28.300  58.551  1.00  0.00    -0.259 OA
BRANCH  32  34
HETATM   34  O   UNL     1       9.268  27.939  56.836  1.00  0.00    -0.313 OA
BRANCH  34  35
HETATM   35  C   UNL     1       9.667  29.265  56.409  1.00  0.00     0.124 C 
HETATM   36  C   UNL     1      10.953  29.740  57.082  1.00  0.00     0.040 C 
HETATM   37  C   UNL     1       9.726  29.365  54.889  1.00  0.00     0.040 C 
ENDBRANCH  34  35
ENDBRANCH  32  34
ENDBRANCH  10  32
TORSDOF 9
ENDMDL
