MODEL 1
REMARK VINA RESULT:      -9.8      0.000      0.000
REMARK  5 active torsions:
REMARK  status: ('A' for Active; 'I' for Inactive)
REMARK    1  A    between atoms: C_2  and  N_3 
REMARK    2  A    between atoms: C_2  and  C_14 
REMARK       I    between atoms: N_3  and  C_4 
REMARK       I    between atoms: C_4  and  N_5 
REMARK    3  A    between atoms: N_5  and  C_6 
REMARK    4  A    between atoms: C_6  and  C_7 
REMARK    5  A    between atoms: C_16  and  C_17 
ROOT
HETATM    1  C   UNL     1      10.155  29.603  56.287  1.00  0.00     0.041 C 
HETATM    2  C   UNL     1       9.203  28.824  57.192  1.00  0.00     0.153 C 
ENDROOT
BRANCH   2   3
HETATM    3  N   UNL     1       8.258  28.048  56.416  1.00  0.00    -0.332 N 
HETATM    4  C   UNL     1       7.938  26.769  56.772  1.00  0.00     0.317 C 
HETATM    5  N   UNL     1       7.158  26.155  55.835  1.00  0.00    -0.339 N 
HETATM    6  O   UNL     1       8.318  26.241  57.808  1.00  0.00    -0.247 OA
HETATM    7  H   UNL     1       6.606  26.755  55.242  1.00  0.00     0.164 HD
HETATM    8  H   UNL     1       8.144  28.319  55.449  1.00  0.00     0.165 HD
BRANCH   5   9
HETATM    9  C   UNL     1       6.635  24.832  56.085  1.00  0.00     0.162 C 
BRANCH   9  10
HETATM   10  C   UNL     1       7.144  23.845  55.068  1.00  0.00    -0.040 A 
HETATM   11  C   UNL     1       7.441  22.528  55.455  1.00  0.00     0.009 A 
HETATM   12  C   UNL     1       7.899  21.600  54.520  1.00  0.00     0.001 A 
HETATM   13  C   UNL     1       8.066  21.977  53.190  1.00  0.00     0.000 A 
HETATM   14  C   UNL     1       7.780  23.282  52.793  1.00  0.00     0.001 A 
HETATM   15  C   UNL     1       7.322  24.214  53.729  1.00  0.00     0.009 A 
ENDBRANCH   9  10
ENDBRANCH   5   9
ENDBRANCH   2   3
BRANCH   2  16
HETATM   16  C   UNL     1       8.422  29.753  58.059  1.00  0.00     0.145 A 
HETATM   17  N   UNL     1       8.677  30.142  59.293  1.00  0.00    -0.210 NA
HETATM   18  C   UNL     1       7.631  30.992  59.593  1.00  0.00     0.181 A 
HETATM   19  N   UNL     1       6.745  31.129  58.592  1.00  0.00    -0.152 NA
HETATM   20  N   UNL     1       7.271  30.350  57.639  1.00  0.00    -0.261 N 
HETATM   21  H   UNL     1       6.800  30.274  56.744  1.00  0.00     0.190 HD
BRANCH  18  22
HETATM   22  C   UNL     1       7.517  31.670  60.881  1.00  0.00     0.014 A 
HETATM   23  C   UNL     1       6.422  32.507  61.148  1.00  0.00     0.017 A 
HETATM   24  C   UNL     1       6.304  33.152  62.384  1.00  0.00     0.025 A 
HETATM   25  C   UNL     1       7.280  32.966  63.359  1.00  0.00     0.034 A 
HETATM   26 CL   UNL     1       7.133  33.757  64.880  1.00  0.00    -0.084 Cl
HETATM   27  C   UNL     1       8.375  32.141  63.111  1.00  0.00     0.025 A 
HETATM   28  C   UNL     1       8.492  31.495  61.876  1.00  0.00     0.017 A 
ENDBRANCH  18  22
ENDBRANCH   2  16
TORSDOF 5
ENDMDL
MODEL 2
REMARK VINA RESULT:      -9.6      1.631      2.340
REMARK  5 active torsions:
REMARK  status: ('A' for Active; 'I' for Inactive)
REMARK    1  A    between atoms: C_2  and  N_3 
REMARK    2  A    between atoms: C_2  and  C_14 
REMARK       I    between atoms: N_3  and  C_4 
REMARK       I    between atoms: C_4  and  N_5 
REMARK    3  A    between atoms: N_5  and  C_6 
REMARK    4  A    between atoms: C_6  and  C_7 
REMARK    5  A    between atoms: C_16  and  C_17 
ROOT
HETATM    1  C   UNL     1       5.217  28.979  56.018  1.00  0.00     0.041 C 
HETATM    2  C   UNL     1       6.709  28.691  55.866  1.00  0.00     0.153 C 
ENDROOT
BRANCH   2   3
HETATM    3  N   UNL     1       6.963  27.267  55.779  1.00  0.00    -0.332 N 
HETATM    4  C   UNL     1       7.286  26.682  54.589  1.00  0.00     0.317 C 
HETATM    5  N   UNL     1       7.331  25.321  54.680  1.00  0.00    -0.339 N 
HETATM    6  O   UNL     1       7.501  27.313  53.562  1.00  0.00    -0.247 OA
HETATM    7  H   UNL     1       7.516  24.936  55.594  1.00  0.00     0.164 HD
HETATM    8  H   UNL     1       6.541  26.693  56.496  1.00  0.00     0.165 HD
BRANCH   5   9
HETATM    9  C   UNL     1       7.758  24.534  53.546  1.00  0.00     0.162 C 
BRANCH   9  10
HETATM   10  C   UNL     1       7.842  23.073  53.900  1.00  0.00    -0.040 A 
HETATM   11  C   UNL     1       8.058  22.118  52.893  1.00  0.00     0.009 A 
HETATM   12  C   UNL     1       8.154  20.763  53.209  1.00  0.00     0.001 A 
HETATM   13  C   UNL     1       8.033  20.347  54.534  1.00  0.00     0.000 A 
HETATM   14  C   UNL     1       7.813  21.284  55.542  1.00  0.00     0.001 A 
HETATM   15  C   UNL     1       7.716  22.642  55.227  1.00  0.00     0.009 A 
ENDBRANCH   9  10
ENDBRANCH   5   9
ENDBRANCH   2   3
BRANCH   2  16
HETATM   16  C   UNL     1       7.469  29.215  57.038  1.00  0.00     0.145 A 
HETATM   17  N   UNL     1       7.024  29.903  58.070  1.00  0.00    -0.210 NA
HETATM   18  C   UNL     1       8.153  30.118  58.835  1.00  0.00     0.181 A 
HETATM   19  N   UNL     1       9.270  29.594  58.304  1.00  0.00    -0.152 NA
HETATM   20  N   UNL     1       8.811  29.024  57.183  1.00  0.00    -0.261 N 
HETATM   21  H   UNL     1       9.457  28.531  56.575  1.00  0.00     0.190 HD
BRANCH  18  22
HETATM   22  C   UNL     1       8.116  30.847  60.100  1.00  0.00     0.014 A 
HETATM   23  C   UNL     1       7.158  31.849  60.314  1.00  0.00     0.017 A 
HETATM   24  C   UNL     1       7.113  32.544  61.527  1.00  0.00     0.025 A 
HETATM   25  C   UNL     1       8.026  32.242  62.533  1.00  0.00     0.034 A 
HETATM   26 CL   UNL     1       7.969  33.095  64.027  1.00  0.00    -0.084 Cl
HETATM   27  C   UNL     1       8.986  31.251  62.338  1.00  0.00     0.025 A 
HETATM   28  C   UNL     1       9.030  30.556  61.126  1.00  0.00     0.017 A 
ENDBRANCH  18  22
ENDBRANCH   2  16
TORSDOF 5
ENDMDL
MODEL 3
REMARK VINA RESULT:      -9.3      3.646      9.649
REMARK  5 active torsions:
REMARK  status: ('A' for Active; 'I' for Inactive)
REMARK    1  A    between atoms: C_2  and  N_3 
REMARK    2  A    between atoms: C_2  and  C_14 
REMARK       I    between atoms: N_3  and  C_4 
REMARK       I    between atoms: C_4  and  N_5 
REMARK    3  A    between atoms: N_5  and  C_6 
REMARK    4  A    between atoms: C_6  and  C_7 
REMARK    5  A    between atoms: C_16  and  C_17 
ROOT
HETATM    1  C   UNL     1      10.476  29.977  57.082  1.00  0.00     0.041 C 
HETATM    2  C   UNL     1       8.991  29.997  57.439  1.00  0.00     0.153 C 
ENDROOT
BRANCH   2   3
HETATM    3  N   UNL     1       8.797  30.026  58.875  1.00  0.00    -0.332 N 
HETATM    4  C   UNL     1       9.099  31.142  59.602  1.00  0.00     0.317 C 
HETATM    5  N   UNL     1       8.999  30.922  60.946  1.00  0.00    -0.339 N 
HETATM    6  O   UNL     1       9.429  32.208  59.100  1.00  0.00    -0.247 OA
HETATM    7  H   UNL     1       8.382  30.179  61.238  1.00  0.00     0.164 HD
HETATM    8  H   UNL     1       8.801  29.132  59.346  1.00  0.00     0.165 HD
BRANCH   5   9
HETATM    9  C   UNL     1       9.181  32.014  61.873  1.00  0.00     0.162 C 
BRANCH   9  10
HETATM   10  C   UNL     1       7.921  32.281  62.653  1.00  0.00    -0.040 A 
HETATM   11  C   UNL     1       7.980  33.004  63.855  1.00  0.00     0.009 A 
HETATM   12  C   UNL     1       6.818  33.271  64.580  1.00  0.00     0.001 A 
HETATM   13  C   UNL     1       5.587  32.817  64.113  1.00  0.00     0.000 A 
HETATM   14  C   UNL     1       5.516  32.094  62.924  1.00  0.00     0.001 A 
HETATM   15  C   UNL     1       6.678  31.824  62.197  1.00  0.00     0.009 A 
ENDBRANCH   9  10
ENDBRANCH   5   9
ENDBRANCH   2   3
BRANCH   2  16
HETATM   16  C   UNL     1       8.305  28.781  56.915  1.00  0.00     0.145 A 
HETATM   17  N   UNL     1       8.699  27.524  56.967  1.00  0.00    -0.210 NA
HETATM   18  C   UNL     1       7.686  26.835  56.332  1.00  0.00     0.181 A 
HETATM   19  N   UNL     1       6.693  27.624  55.889  1.00  0.00    -0.152 NA
HETATM   20  N   UNL     1       7.102  28.838  56.278  1.00  0.00    -0.261 N 
HETATM   21  H   UNL     1       6.521  29.645  56.078  1.00  0.00     0.190 HD
BRANCH  18  22
HETATM   22  C   UNL     1       7.707  25.383  56.169  1.00  0.00     0.014 A 
HETATM   23  C   UNL     1       8.337  24.571  57.125  1.00  0.00     0.017 A 
HETATM   24  C   UNL     1       8.353  23.180  56.978  1.00  0.00     0.025 A 
HETATM   25  C   UNL     1       7.741  22.593  55.874  1.00  0.00     0.034 A 
HETATM   26 CL   UNL     1       7.758  20.882  55.694  1.00  0.00    -0.084 Cl
HETATM   27  C   UNL     1       7.112  23.383  54.914  1.00  0.00     0.025 A 
HETATM   28  C   UNL     1       7.096  24.774  55.062  1.00  0.00     0.017 A 
ENDBRANCH  18  22
ENDBRANCH   2  16
TORSDOF 5
ENDMDL
MODEL 4
REMARK VINA RESULT:      -9.2      3.943      9.737
REMARK  5 active torsions:
REMARK  status: ('A' for Active; 'I' for Inactive)
REMARK    1  A    between atoms: C_2  and  N_3 
REMARK    2  A    between atoms: C_2  and  C_14 
REMARK       I    between atoms: N_3  and  C_4 
REMARK       I    between atoms: C_4  and  N_5 
REMARK    3  A    between atoms: N_5  and  C_6 
REMARK    4  A    between atoms: C_6  and  C_7 
REMARK    5  A    between atoms: C_16  and  C_17 
ROOT
HETATM    1  C   UNL     1       4.638  29.291  55.730  1.00  0.00     0.041 C 
HETATM    2  C   UNL     1       5.872  28.675  56.386  1.00  0.00     0.153 C 
ENDROOT
BRANCH   2   3
HETATM    3  N   UNL     1       6.860  29.688  56.699  1.00  0.00    -0.332 N 
HETATM    4  C   UNL     1       7.712  29.536  57.755  1.00  0.00     0.317 C 
HETATM    5  N   UNL     1       8.456  30.658  57.982  1.00  0.00    -0.339 N 
HETATM    6  O   UNL     1       7.787  28.512  58.421  1.00  0.00    -0.247 OA
HETATM    7  H   UNL     1       8.600  31.271  57.194  1.00  0.00     0.164 HD
HETATM    8  H   UNL     1       6.659  30.625  56.377  1.00  0.00     0.165 HD
BRANCH   5   9
HETATM    9  C   UNL     1       9.486  30.651  58.994  1.00  0.00     0.162 C 
BRANCH   9  10
HETATM   10  C   UNL     1       8.962  31.173  60.306  1.00  0.00    -0.040 A 
HETATM   11  C   UNL     1       9.156  30.434  61.484  1.00  0.00     0.009 A 
HETATM   12  C   UNL     1       8.689  30.914  62.708  1.00  0.00     0.001 A 
HETATM   13  C   UNL     1       8.023  32.136  62.767  1.00  0.00     0.000 A 
HETATM   14  C   UNL     1       7.819  32.877  61.605  1.00  0.00     0.001 A 
HETATM   15  C   UNL     1       8.285  32.398  60.378  1.00  0.00     0.009 A 
ENDBRANCH   9  10
ENDBRANCH   5   9
ENDBRANCH   2   3
BRANCH   2  16
HETATM   16  C   UNL     1       6.514  27.684  55.475  1.00  0.00     0.145 A 
HETATM   17  N   UNL     1       6.566  26.371  55.588  1.00  0.00    -0.210 NA
HETATM   18  C   UNL     1       7.277  25.973  54.474  1.00  0.00     0.181 A 
HETATM   19  N   UNL     1       7.668  26.992  53.691  1.00  0.00    -0.152 NA
HETATM   20  N   UNL     1       7.166  28.053  54.337  1.00  0.00    -0.261 N 
HETATM   21  H   UNL     1       7.305  28.981  53.951  1.00  0.00     0.190 HD
BRANCH  18  22
HETATM   22  C   UNL     1       7.567  24.570  54.189  1.00  0.00     0.014 A 
HETATM   23  C   UNL     1       7.731  23.652  55.238  1.00  0.00     0.017 A 
HETATM   24  C   UNL     1       8.000  22.306  54.970  1.00  0.00     0.025 A 
HETATM   25  C   UNL     1       8.107  21.869  53.653  1.00  0.00     0.034 A 
HETATM   26 CL   UNL     1       8.435  20.212  53.323  1.00  0.00    -0.084 Cl
HETATM   27  C   UNL     1       7.950  22.766  52.598  1.00  0.00     0.025 A 
HETATM   28  C   UNL     1       7.680  24.112  52.867  1.00  0.00     0.017 A 
ENDBRANCH  18  22
ENDBRANCH   2  16
TORSDOF 5
ENDMDL
MODEL 5
REMARK VINA RESULT:      -9.1      4.194      9.740
REMARK  5 active torsions:
REMARK  status: ('A' for Active; 'I' for Inactive)
REMARK    1  A    between atoms: C_2  and  N_3 
REMARK    2  A    between atoms: C_2  and  C_14 
REMARK       I    between atoms: N_3  and  C_4 
REMARK       I    between atoms: C_4  and  N_5 
REMARK    3  A    between atoms: N_5  and  C_6 
REMARK    4  A    between atoms: C_6  and  C_7 
REMARK    5  A    between atoms: C_16  and  C_17 
ROOT
HETATM    1  C   UNL     1       4.309  29.209  54.573  1.00  0.00     0.041 C 
HETATM    2  C   UNL     1       4.519  28.751  56.015  1.00  0.00     0.153 C 
ENDROOT
BRANCH   2   3
HETATM    3  N   UNL     1       5.539  29.542  56.673  1.00  0.00    -0.332 N 
HETATM    4  C   UNL     1       5.211  30.448  57.640  1.00  0.00     0.317 C 
HETATM    5  N   UNL     1       6.282  31.201  58.024  1.00  0.00    -0.339 N 
HETATM    6  O   UNL     1       4.082  30.569  58.098  1.00  0.00    -0.247 OA
HETATM    7  H   UNL     1       7.194  30.793  57.887  1.00  0.00     0.164 HD
HETATM    8  H   UNL     1       6.399  29.680  56.160  1.00  0.00     0.165 HD
BRANCH   5   9
HETATM    9  C   UNL     1       6.151  32.143  59.111  1.00  0.00     0.162 C 
BRANCH   9  10
HETATM   10  C   UNL     1       7.332  32.066  60.043  1.00  0.00    -0.040 A 
HETATM   11  C   UNL     1       8.635  32.014  59.523  1.00  0.00     0.009 A 
HETATM   12  C   UNL     1       9.738  31.957  60.375  1.00  0.00     0.001 A 
HETATM   13  C   UNL     1       9.551  31.949  61.755  1.00  0.00     0.000 A 
HETATM   14  C   UNL     1       8.262  31.995  62.285  1.00  0.00     0.001 A 
HETATM   15  C   UNL     1       7.156  32.051  61.433  1.00  0.00     0.009 A 
ENDBRANCH   9  10
ENDBRANCH   5   9
ENDBRANCH   2   3
BRANCH   2  16
HETATM   16  C   UNL     1       4.955  27.325  56.057  1.00  0.00     0.145 A 
HETATM   17  N   UNL     1       5.705  26.666  55.197  1.00  0.00    -0.210 NA
HETATM   18  C   UNL     1       5.782  25.396  55.733  1.00  0.00     0.181 A 
HETATM   19  N   UNL     1       5.102  25.255  56.882  1.00  0.00    -0.152 NA
HETATM   20  N   UNL     1       4.602  26.483  57.068  1.00  0.00    -0.261 N 
HETATM   21  H   UNL     1       4.039  26.671  57.891  1.00  0.00     0.190 HD
BRANCH  18  22
HETATM   22  C   UNL     1       6.539  24.321  55.096  1.00  0.00     0.014 A 
HETATM   23  C   UNL     1       6.601  24.228  53.698  1.00  0.00     0.017 A 
HETATM   24  C   UNL     1       7.331  23.205  53.084  1.00  0.00     0.025 A 
HETATM   25  C   UNL     1       8.003  22.268  53.864  1.00  0.00     0.034 A 
HETATM   26 CL   UNL     1       8.904  21.012  53.109  1.00  0.00    -0.084 Cl
HETATM   27  C   UNL     1       7.952  22.343  55.255  1.00  0.00     0.025 A 
HETATM   28  C   UNL     1       7.222  23.367  55.868  1.00  0.00     0.017 A 
ENDBRANCH  18  22
ENDBRANCH   2  16
TORSDOF 5
ENDMDL
MODEL 6
REMARK VINA RESULT:      -8.9      2.818      4.096
REMARK  5 active torsions:
REMARK  status: ('A' for Active; 'I' for Inactive)
REMARK    1  A    between atoms: C_2  and  N_3 
REMARK    2  A    between atoms: C_2  and  C_14 
REMARK       I    between atoms: N_3  and  C_4 
REMARK       I    between atoms: C_4  and  N_5 
REMARK    3  A    between atoms: N_5  and  C_6 
REMARK    4  A    between atoms: C_6  and  C_7 
REMARK    5  A    between atoms: C_16  and  C_17 
ROOT
HETATM    1  C   UNL     1       3.676  27.939  53.169  1.00  0.00     0.041 C 
HETATM    2  C   UNL     1       5.093  27.586  53.618  1.00  0.00     0.153 C 
ENDROOT
BRANCH   2   3
HETATM    3  N   UNL     1       5.318  26.155  53.565  1.00  0.00    -0.332 N 
HETATM    4  C   UNL     1       6.512  25.648  53.140  1.00  0.00     0.317 C 
HETATM    5  N   UNL     1       6.477  24.289  53.011  1.00  0.00    -0.339 N 
HETATM    6  O   UNL     1       7.493  26.339  52.896  1.00  0.00    -0.247 OA
HETATM    7  H   UNL     1       5.797  23.800  53.573  1.00  0.00     0.164 HD
HETATM    8  H   UNL     1       4.495  25.575  53.484  1.00  0.00     0.165 HD
BRANCH   5   9
HETATM    9  C   UNL     1       7.678  23.564  52.670  1.00  0.00     0.162 C 
BRANCH   9  10
HETATM   10  C   UNL     1       7.905  22.414  53.614  1.00  0.00    -0.040 A 
HETATM   11  C   UNL     1       7.608  22.557  54.979  1.00  0.00     0.009 A 
HETATM   12  C   UNL     1       7.799  21.494  55.862  1.00  0.00     0.001 A 
HETATM   13  C   UNL     1       8.291  20.278  55.392  1.00  0.00     0.000 A 
HETATM   14  C   UNL     1       8.595  20.125  54.040  1.00  0.00     0.001 A 
HETATM   15  C   UNL     1       8.405  21.188  53.154  1.00  0.00     0.009 A 
ENDBRANCH   9  10
ENDBRANCH   5   9
ENDBRANCH   2   3
BRANCH   2  16
HETATM   16  C   UNL     1       5.326  28.029  55.024  1.00  0.00     0.145 A 
HETATM   17  N   UNL     1       6.201  28.903  55.479  1.00  0.00    -0.210 NA
HETATM   18  C   UNL     1       5.975  28.917  56.841  1.00  0.00     0.181 A 
HETATM   19  N   UNL     1       5.000  28.079  57.233  1.00  0.00    -0.152 NA
HETATM   20  N   UNL     1       4.603  27.543  56.072  1.00  0.00    -0.261 N 
HETATM   21  H   UNL     1       3.849  26.865  56.070  1.00  0.00     0.190 HD
BRANCH  18  22
HETATM   22  C   UNL     1       6.732  29.771  57.753  1.00  0.00     0.014 A 
HETATM   23  C   UNL     1       6.207  31.002  58.173  1.00  0.00     0.017 A 
HETATM   24  C   UNL     1       6.924  31.819  59.053  1.00  0.00     0.025 A 
HETATM   25  C   UNL     1       8.171  31.411  59.517  1.00  0.00     0.034 A 
HETATM   26 CL   UNL     1       9.052  32.414  60.602  1.00  0.00    -0.084 Cl
HETATM   27  C   UNL     1       8.710  30.192  59.109  1.00  0.00     0.025 A 
HETATM   28  C   UNL     1       7.992  29.375  58.230  1.00  0.00     0.017 A 
ENDBRANCH  18  22
ENDBRANCH   2  16
TORSDOF 5
ENDMDL
MODEL 7
REMARK VINA RESULT:      -8.8      6.218      9.444
REMARK  5 active torsions:
REMARK  status: ('A' for Active; 'I' for Inactive)
REMARK    1  A    between atoms: C_2  and  N_3 
REMARK    2  A    between atoms: C_2  and  C_14 
REMARK       I    between atoms: N_3  and  C_4 
REMARK       I    between atoms: C_4  and  N_5 
REMARK    3  A    between atoms: N_5  and  C_6 
REMARK    4  A    between atoms: C_6  and  C_7 
REMARK    5  A    between atoms: C_16  and  C_17 
ROOT
HETATM    1  C   UNL     1       3.817  28.737  56.003  1.00  0.00     0.041 C 
HETATM    2  C   UNL     1       4.622  28.392  54.752  1.00  0.00     0.153 C 
ENDROOT
BRANCH   2   3
HETATM    3  N   UNL     1       3.752  28.038  53.649  1.00  0.00    -0.332 N 
HETATM    4  C   UNL     1       3.708  28.799  52.516  1.00  0.00     0.317 C 
HETATM    5  N   UNL     1       2.721  28.396  51.664  1.00  0.00    -0.339 N 
HETATM    6  O   UNL     1       4.465  29.736  52.301  1.00  0.00    -0.247 OA
HETATM    7  H   UNL     1       2.424  27.434  51.739  1.00  0.00     0.164 HD
HETATM    8  H   UNL     1       2.945  27.474  53.879  1.00  0.00     0.165 HD
BRANCH   5   9
HETATM    9  C   UNL     1       2.587  29.016  50.367  1.00  0.00     0.162 C 
BRANCH   9  10
HETATM   10  C   UNL     1       2.600  27.987  49.268  1.00  0.00    -0.040 A 
HETATM   11  C   UNL     1       1.441  27.755  48.510  1.00  0.00     0.009 A 
HETATM   12  C   UNL     1       1.444  26.815  47.479  1.00  0.00     0.001 A 
HETATM   13  C   UNL     1       2.603  26.096  47.196  1.00  0.00     0.000 A 
HETATM   14  C   UNL     1       3.758  26.313  47.945  1.00  0.00     0.001 A 
HETATM   15  C   UNL     1       3.757  27.253  48.978  1.00  0.00     0.009 A 
ENDBRANCH   9  10
ENDBRANCH   5   9
ENDBRANCH   2   3
BRANCH   2  16
HETATM   16  C   UNL     1       5.524  27.232  55.008  1.00  0.00     0.145 A 
HETATM   17  N   UNL     1       5.699  26.147  54.279  1.00  0.00    -0.210 NA
HETATM   18  C   UNL     1       6.638  25.423  54.987  1.00  0.00     0.181 A 
HETATM   19  N   UNL     1       7.035  26.022  56.122  1.00  0.00    -0.152 NA
HETATM   20  N   UNL     1       6.329  27.159  56.105  1.00  0.00    -0.261 N 
HETATM   21  H   UNL     1       6.443  27.827  56.860  1.00  0.00     0.190 HD
BRANCH  18  22
HETATM   22  C   UNL     1       7.142  24.131  54.528  1.00  0.00     0.014 A 
HETATM   23  C   UNL     1       7.430  23.923  53.171  1.00  0.00     0.017 A 
HETATM   24  C   UNL     1       7.920  22.691  52.728  1.00  0.00     0.025 A 
HETATM   25  C   UNL     1       8.124  21.658  53.639  1.00  0.00     0.034 A 
HETATM   26 CL   UNL     1       8.730  20.143  53.094  1.00  0.00    -0.084 Cl
HETATM   27  C   UNL     1       7.842  21.845  54.990  1.00  0.00     0.025 A 
HETATM   28  C   UNL     1       7.353  23.078  55.433  1.00  0.00     0.017 A 
ENDBRANCH  18  22
ENDBRANCH   2  16
TORSDOF 5
ENDMDL
MODEL 8
REMARK VINA RESULT:      -8.7      4.187      9.738
REMARK  5 active torsions:
REMARK  status: ('A' for Active; 'I' for Inactive)
REMARK    1  A    between atoms: C_2  and  N_3 
REMARK    2  A    between atoms: C_2  and  C_14 
REMARK       I    between atoms: N_3  and  C_4 
REMARK       I    between atoms: C_4  and  N_5 
REMARK    3  A    between atoms: N_5  and  C_6 
REMARK    4  A    between atoms: C_6  and  C_7 
REMARK    5  A    between atoms: C_16  and  C_17 
ROOT
HETATM    1  C   UNL     1      11.071  29.845  57.126  1.00  0.00     0.041 C 
HETATM    2  C   UNL     1       9.581  30.134  57.300  1.00  0.00     0.153 C 
ENDROOT
BRANCH   2   3
HETATM    3  N   UNL     1       9.209  30.144  58.701  1.00  0.00    -0.332 N 
HETATM    4  C   UNL     1       9.460  31.232  59.486  1.00  0.00     0.317 C 
HETATM    5  N   UNL     1       9.183  30.992  60.801  1.00  0.00    -0.339 N 
HETATM    6  O   UNL     1       9.891  32.293  59.054  1.00  0.00    -0.247 OA
HETATM    7  H   UNL     1       8.506  30.271  60.996  1.00  0.00     0.164 HD
HETATM    8  H   UNL     1       9.120  29.242  59.147  1.00  0.00     0.165 HD
BRANCH   5   9
HETATM    9  C   UNL     1       9.289  32.059  61.769  1.00  0.00     0.162 C 
BRANCH   9  10
HETATM   10  C   UNL     1       7.993  32.251  62.510  1.00  0.00    -0.040 A 
HETATM   11  C   UNL     1       7.978  32.945  63.731  1.00  0.00     0.009 A 
HETATM   12  C   UNL     1       6.782  33.143  64.421  1.00  0.00     0.001 A 
HETATM   13  C   UNL     1       5.588  32.649  63.899  1.00  0.00     0.000 A 
HETATM   14  C   UNL     1       5.590  31.955  62.690  1.00  0.00     0.001 A 
HETATM   15  C   UNL     1       6.787  31.754  61.999  1.00  0.00     0.009 A 
ENDBRANCH   9  10
ENDBRANCH   5   9
ENDBRANCH   2   3
BRANCH   2  16
HETATM   16  C   UNL     1       8.759  29.091  56.622  1.00  0.00     0.145 A 
HETATM   17  N   UNL     1       8.340  29.053  55.372  1.00  0.00    -0.210 NA
HETATM   18  C   UNL     1       7.629  27.872  55.299  1.00  0.00     0.181 A 
HETATM   19  N   UNL     1       7.591  27.193  56.458  1.00  0.00    -0.152 NA
HETATM   20  N   UNL     1       8.317  27.975  57.267  1.00  0.00    -0.261 N 
HETATM   21  H   UNL     1       8.466  27.690  58.229  1.00  0.00     0.190 HD
BRANCH  18  22
HETATM   22  C   UNL     1       6.986  27.419  54.068  1.00  0.00     0.014 A 
HETATM   23  C   UNL     1       6.003  28.206  53.449  1.00  0.00     0.017 A 
HETATM   24  C   UNL     1       5.391  27.781  52.266  1.00  0.00     0.025 A 
HETATM   25  C   UNL     1       5.756  26.565  51.694  1.00  0.00     0.034 A 
HETATM   26 CL   UNL     1       5.005  26.043  50.237  1.00  0.00    -0.084 Cl
HETATM   27  C   UNL     1       6.729  25.769  52.296  1.00  0.00     0.025 A 
HETATM   28  C   UNL     1       7.341  26.195  53.478  1.00  0.00     0.017 A 
ENDBRANCH  18  22
ENDBRANCH   2  16
TORSDOF 5
ENDMDL
MODEL 9
REMARK VINA RESULT:      -8.3      2.312      3.431
REMARK  5 active torsions:
REMARK  status: ('A' for Active; 'I' for Inactive)
REMARK    1  A    between atoms: C_2  and  N_3 
REMARK    2  A    between atoms: C_2  and  C_14 
REMARK       I    between atoms: N_3  and  C_4 
REMARK       I    between atoms: C_4  and  N_5 
REMARK    3  A    between atoms: N_5  and  C_6 
REMARK    4  A    between atoms: C_6  and  C_7 
REMARK    5  A    between atoms: C_16  and  C_17 
ROOT
HETATM    1  C   UNL     1       5.215  32.283  57.448  1.00  0.00     0.041 C 
HETATM    2  C   UNL     1       6.346  31.395  57.965  1.00  0.00     0.153 C 
ENDROOT
BRANCH   2   3
HETATM    3  N   UNL     1       5.913  30.019  58.098  1.00  0.00    -0.332 N 
HETATM    4  C   UNL     1       5.836  29.198  57.009  1.00  0.00     0.317 C 
HETATM    5  N   UNL     1       5.261  27.997  57.311  1.00  0.00    -0.339 N 
HETATM    6  O   UNL     1       6.231  29.514  55.895  1.00  0.00    -0.247 OA
HETATM    7  H   UNL     1       5.322  27.695  58.271  1.00  0.00     0.164 HD
HETATM    8  H   UNL     1       5.335  29.807  58.899  1.00  0.00     0.165 HD
BRANCH   5   9
HETATM    9  C   UNL     1       5.188  26.959  56.309  1.00  0.00     0.162 C 
BRANCH   9  10
HETATM   10  C   UNL     1       6.333  25.991  56.445  1.00  0.00    -0.040 A 
HETATM   11  C   UNL     1       6.478  24.942  55.523  1.00  0.00     0.009 A 
HETATM   12  C   UNL     1       7.543  24.047  55.628  1.00  0.00     0.001 A 
HETATM   13  C   UNL     1       8.472  24.189  56.656  1.00  0.00     0.000 A 
HETATM   14  C   UNL     1       8.336  25.223  57.581  1.00  0.00     0.001 A 
HETATM   15  C   UNL     1       7.270  26.120  57.478  1.00  0.00     0.009 A 
ENDBRANCH   9  10
ENDBRANCH   5   9
ENDBRANCH   2   3
BRANCH   2  16
HETATM   16  C   UNL     1       6.807  31.856  59.306  1.00  0.00     0.145 A 
HETATM   17  N   UNL     1       6.088  32.145  60.372  1.00  0.00    -0.210 NA
HETATM   18  C   UNL     1       7.028  32.513  61.314  1.00  0.00     0.181 A 
HETATM   19  N   UNL     1       8.292  32.465  60.860  1.00  0.00    -0.152 NA
HETATM   20  N   UNL     1       8.125  32.039  59.602  1.00  0.00    -0.261 N 
HETATM   21  H   UNL     1       8.939  31.900  59.013  1.00  0.00     0.190 HD
BRANCH  18  22
HETATM   22  C   UNL     1       6.664  32.910  62.672  1.00  0.00     0.014 A 
HETATM   23  C   UNL     1       7.650  33.036  63.663  1.00  0.00     0.017 A 
HETATM   24  C   UNL     1       7.307  33.424  64.962  1.00  0.00     0.025 A 
HETATM   25  C   UNL     1       5.977  33.688  65.279  1.00  0.00     0.034 A 
HETATM   26 CL   UNL     1       5.556  34.169  66.876  1.00  0.00    -0.084 Cl
HETATM   27  C   UNL     1       4.985  33.567  64.308  1.00  0.00     0.025 A 
HETATM   28  C   UNL     1       5.328  33.179  63.009  1.00  0.00     0.017 A 
ENDBRANCH  18  22
ENDBRANCH   2  16
TORSDOF 5
ENDMDL
MODEL 10
REMARK VINA RESULT:      -8.2      4.136      9.896
REMARK  5 active torsions:
REMARK  status: ('A' for Active; 'I' for Inactive)
REMARK    1  A    between atoms: C_2  and  N_3 
REMARK    2  A    between atoms: C_2  and  C_14 
REMARK       I    between atoms: N_3  and  C_4 
REMARK       I    between atoms: C_4  and  N_5 
REMARK    3  A    between atoms: N_5  and  C_6 
REMARK    4  A    between atoms: C_6  and  C_7 
REMARK    5  A    between atoms: C_16  and  C_17 
ROOT
HETATM    1  C   UNL     1       4.999  32.398  56.813  1.00  0.00     0.041 C 
HETATM    2  C   UNL     1       4.330  31.340  57.689  1.00  0.00     0.153 C 
ENDROOT
BRANCH   2   3
HETATM    3  N   UNL     1       4.846  31.377  59.042  1.00  0.00    -0.332 N 
HETATM    4  C   UNL     1       4.148  31.987  60.044  1.00  0.00     0.317 C 
HETATM    5  N   UNL     1       4.865  32.055  61.203  1.00  0.00    -0.339 N 
HETATM    6  O   UNL     1       3.014  32.428  59.907  1.00  0.00    -0.247 OA
HETATM    7  H   UNL     1       5.588  31.363  61.328  1.00  0.00     0.164 HD
HETATM    8  H   UNL     1       5.848  31.287  59.142  1.00  0.00     0.165 HD
BRANCH   5   9
HETATM    9  C   UNL     1       4.253  32.576  62.403  1.00  0.00     0.162 C 
BRANCH   9  10
HETATM   10  C   UNL     1       5.293  32.959  63.422  1.00  0.00    -0.040 A 
HETATM   11  C   UNL     1       4.904  33.557  64.631  1.00  0.00     0.009 A 
HETATM   12  C   UNL     1       5.857  33.903  65.590  1.00  0.00     0.001 A 
HETATM   13  C   UNL     1       7.207  33.657  65.351  1.00  0.00     0.000 A 
HETATM   14  C   UNL     1       7.606  33.069  64.152  1.00  0.00     0.001 A 
HETATM   15  C   UNL     1       6.654  32.722  63.190  1.00  0.00     0.009 A 
ENDBRANCH   9  10
ENDBRANCH   5   9
ENDBRANCH   2   3
BRANCH   2  16
HETATM   16  C   UNL     1       4.579  29.972  57.147  1.00  0.00     0.145 A 
HETATM   17  N   UNL     1       5.512  29.106  57.489  1.00  0.00    -0.210 NA
HETATM   18  C   UNL     1       5.270  28.021  56.670  1.00  0.00     0.181 A 
HETATM   19  N   UNL     1       4.230  28.197  55.838  1.00  0.00    -0.152 NA
HETATM   20  N   UNL     1       3.809  29.424  56.166  1.00  0.00    -0.261 N 
HETATM   21  H   UNL     1       3.005  29.818  55.687  1.00  0.00     0.190 HD
BRANCH  18  22
HETATM   22  C   UNL     1       6.077  26.805  56.721  1.00  0.00     0.014 A 
HETATM   23  C   UNL     1       5.704  25.674  55.979  1.00  0.00     0.017 A 
HETATM   24  C   UNL     1       6.479  24.510  56.018  1.00  0.00     0.025 A 
HETATM   25  C   UNL     1       7.631  24.469  56.799  1.00  0.00     0.034 A 
HETATM   26 CL   UNL     1       8.585  23.038  56.844  1.00  0.00    -0.084 Cl
HETATM   27  C   UNL     1       8.016  25.582  57.544  1.00  0.00     0.025 A 
HETATM   28  C   UNL     1       7.241  26.746  57.504  1.00  0.00     0.017 A 
ENDBRANCH  18  22
ENDBRANCH   2  16
TORSDOF 5
ENDMDL
