MODEL 1
REMARK VINA RESULT:      -9.5      0.000      0.000
REMARK  8 active torsions:
REMARK  status: ('A' for Active; 'I' for Inactive)
REMARK    1  A    between atoms: C_5  and  O_6 
REMARK    2  A    between atoms: O_6  and  C_7 
REMARK    3  A    between atoms: C_7  and  C_8 
REMARK    4  A    between atoms: C_8  and  C_9 
REMARK    5  A    between atoms: C_9  and  C_10 
REMARK    6  A    between atoms: C_10  and  N_11 
REMARK       I    between atoms: N_11  and  C_12 
REMARK    7  A    between atoms: C_12  and  C_13 
REMARK    8  A    between atoms: C_17  and  C_18 
ROOT
HETATM    1  C   UNL     1       9.027  31.413  60.132  1.00  0.00     0.120 A 
HETATM    2  N   UNL     1       9.100  30.416  61.064  1.00  0.00    -0.272 N 
HETATM    3  H   UNL     1       9.575  29.523  60.962  1.00  0.00     0.189 HD
HETATM    4  N   UNL     1       8.460  30.684  62.210  1.00  0.00    -0.174 NA
HETATM    5  C   UNL     1       7.958  31.917  62.039  1.00  0.00     0.089 A 
HETATM    6  C   UNL     1       8.286  32.406  60.743  1.00  0.00     0.071 A 
ENDROOT
BRANCH   1   7
HETATM    7  C   UNL     1       9.649  31.287  58.843  1.00  0.00     0.270 C 
HETATM    8  N   UNL     1       9.426  30.098  58.198  1.00  0.00    -0.345 N 
HETATM    9  H   UNL     1       8.835  29.393  58.611  1.00  0.00     0.163 HD
HETATM   10  O   UNL     1      10.331  32.183  58.355  1.00  0.00    -0.266 OA
BRANCH   8  11
HETATM   11  C   UNL     1       9.966  29.859  56.887  1.00  0.00     0.217 C 
BRANCH  11  12
HETATM   12  C   UNL     1       8.921  29.159  56.034  1.00  0.00    -0.085 C 
BRANCH  12  13
HETATM   13  C   UNL     1       8.023  28.558  55.303  1.00  0.00    -0.078 C 
BRANCH  13  14
HETATM   14  C   UNL     1       6.978  27.859  54.451  1.00  0.00     0.269 C 
BRANCH  14  15
HETATM   15  O   UNL     1       7.644  27.140  53.417  1.00  0.00    -0.338 OA
BRANCH  15  16
HETATM   16  C   UNL     1       7.588  25.778  53.483  1.00  0.00     0.087 A 
HETATM   17  C   UNL     1       7.086  25.244  54.666  1.00  0.00     0.152 A 
HETATM   18  N   UNL     1       6.953  23.919  54.917  1.00  0.00    -0.270 NA
HETATM   19  C   UNL     1       7.341  23.081  53.936  1.00  0.00     0.116 A 
HETATM   20  C   UNL     1       7.853  23.508  52.720  1.00  0.00     0.022 A 
HETATM   21  C   UNL     1       7.977  24.879  52.494  1.00  0.00     0.040 A 
ENDBRANCH  15  16
ENDBRANCH  14  15
ENDBRANCH  13  14
ENDBRANCH  12  13
ENDBRANCH  11  12
ENDBRANCH   8  11
ENDBRANCH   1   7
BRANCH   5  22
HETATM   22  C   UNL     1       7.185  32.588  63.090  1.00  0.00    -0.003 A 
HETATM   23  C   UNL     1       5.796  32.752  62.966  1.00  0.00     0.053 A 
HETATM   24  C   UNL     1       5.119  33.389  63.988  1.00  0.00     0.106 A 
HETATM   25  C   UNL     1       5.763  33.857  65.108  1.00  0.00     0.105 A 
HETATM   26  O   UNL     1       3.780  33.629  64.019  1.00  0.00    -0.323 OA
HETATM   27  O   UNL     1       4.912  34.449  65.987  1.00  0.00    -0.323 OA
HETATM   28  C   UNL     1       7.122  33.719  65.269  1.00  0.00     0.040 A 
HETATM   29  C   UNL     1       3.657  34.305  65.289  1.00  0.00     0.352 A 
HETATM   30  C   UNL     1       7.835  33.080  64.247  1.00  0.00     0.017 A 
ENDBRANCH   5  22
TORSDOF 8
ENDMDL
MODEL 2
REMARK VINA RESULT:      -9.4      1.947      2.447
REMARK  8 active torsions:
REMARK  status: ('A' for Active; 'I' for Inactive)
REMARK    1  A    between atoms: C_5  and  O_6 
REMARK    2  A    between atoms: O_6  and  C_7 
REMARK    3  A    between atoms: C_7  and  C_8 
REMARK    4  A    between atoms: C_8  and  C_9 
REMARK    5  A    between atoms: C_9  and  C_10 
REMARK    6  A    between atoms: C_10  and  N_11 
REMARK       I    between atoms: N_11  and  C_12 
REMARK    7  A    between atoms: C_12  and  C_13 
REMARK    8  A    between atoms: C_17  and  C_18 
ROOT
HETATM    1  C   UNL     1       8.239  30.723  60.226  1.00  0.00     0.120 A 
HETATM    2  N   UNL     1       8.981  30.266  61.277  1.00  0.00    -0.272 N 
HETATM    3  H   UNL     1       9.735  29.585  61.238  1.00  0.00     0.189 HD
HETATM    4  N   UNL     1       8.640  30.789  62.463  1.00  0.00    -0.174 NA
HETATM    5  C   UNL     1       7.643  31.643  62.184  1.00  0.00     0.089 A 
HETATM    6  C   UNL     1       7.357  31.624  60.789  1.00  0.00     0.071 A 
ENDROOT
BRANCH   1   7
HETATM    7  C   UNL     1       8.465  30.259  58.885  1.00  0.00     0.270 C 
HETATM    8  N   UNL     1       7.667  29.219  58.482  1.00  0.00    -0.345 N 
HETATM    9  H   UNL     1       6.958  28.849  59.096  1.00  0.00     0.163 HD
HETATM   10  O   UNL     1       9.313  30.760  58.153  1.00  0.00    -0.266 OA
BRANCH   8  11
HETATM   11  C   UNL     1       7.772  28.684  57.152  1.00  0.00     0.217 C 
BRANCH  11  12
HETATM   12  C   UNL     1       8.062  27.193  57.233  1.00  0.00    -0.085 C 
BRANCH  12  13
HETATM   13  C   UNL     1       8.310  25.915  57.304  1.00  0.00    -0.078 C 
BRANCH  13  14
HETATM   14  C   UNL     1       8.600  24.426  57.385  1.00  0.00     0.269 C 
BRANCH  14  15
HETATM   15  O   UNL     1       9.126  23.998  56.133  1.00  0.00    -0.338 OA
BRANCH  15  16
HETATM   16  C   UNL     1       8.744  22.764  55.696  1.00  0.00     0.087 A 
HETATM   17  C   UNL     1       8.750  22.575  54.318  1.00  0.00     0.152 A 
HETATM   18  N   UNL     1       8.404  21.420  53.697  1.00  0.00    -0.270 NA
HETATM   19  C   UNL     1       8.033  20.399  54.494  1.00  0.00     0.116 A 
HETATM   20  C   UNL     1       7.994  20.481  55.877  1.00  0.00     0.022 A 
HETATM   21  C   UNL     1       8.356  21.684  56.485  1.00  0.00     0.040 A 
ENDBRANCH  15  16
ENDBRANCH  14  15
ENDBRANCH  13  14
ENDBRANCH  12  13
ENDBRANCH  11  12
ENDBRANCH   8  11
ENDBRANCH   1   7
BRANCH   5  22
HETATM   22  C   UNL     1       6.991  32.437  63.231  1.00  0.00    -0.003 A 
HETATM   23  C   UNL     1       5.595  32.585  63.257  1.00  0.00     0.053 A 
HETATM   24  C   UNL     1       5.037  33.342  64.268  1.00  0.00     0.106 A 
HETATM   25  C   UNL     1       5.803  33.945  65.236  1.00  0.00     0.105 A 
HETATM   26  O   UNL     1       3.708  33.584  64.432  1.00  0.00    -0.323 OA
HETATM   27  O   UNL     1       5.055  34.640  66.133  1.00  0.00    -0.323 OA
HETATM   28  C   UNL     1       7.174  33.828  65.247  1.00  0.00     0.040 A 
HETATM   29  C   UNL     1       3.728  34.411  65.615  1.00  0.00     0.352 A 
HETATM   30  C   UNL     1       7.769  33.068  64.232  1.00  0.00     0.017 A 
ENDBRANCH   5  22
TORSDOF 8
ENDMDL
MODEL 3
REMARK VINA RESULT:      -9.0      2.735     11.622
REMARK  8 active torsions:
REMARK  status: ('A' for Active; 'I' for Inactive)
REMARK    1  A    between atoms: C_5  and  O_6 
REMARK    2  A    between atoms: O_6  and  C_7 
REMARK    3  A    between atoms: C_7  and  C_8 
REMARK    4  A    between atoms: C_8  and  C_9 
REMARK    5  A    between atoms: C_9  and  C_10 
REMARK    6  A    between atoms: C_10  and  N_11 
REMARK       I    between atoms: N_11  and  C_12 
REMARK    7  A    between atoms: C_12  and  C_13 
REMARK    8  A    between atoms: C_17  and  C_18 
ROOT
HETATM    1  C   UNL     1       7.488  27.915  56.787  1.00  0.00     0.120 A 
HETATM    2  N   UNL     1       6.258  27.603  56.279  1.00  0.00    -0.272 N 
HETATM    3  H   UNL     1       5.461  28.226  56.192  1.00  0.00     0.189 HD
HETATM    4  N   UNL     1       6.135  26.331  55.873  1.00  0.00    -0.174 NA
HETATM    5  C   UNL     1       7.339  25.783  56.104  1.00  0.00     0.089 A 
HETATM    6  C   UNL     1       8.213  26.745  56.685  1.00  0.00     0.071 A 
ENDROOT
BRANCH   1   7
HETATM    7  C   UNL     1       7.788  29.231  57.278  1.00  0.00     0.270 C 
HETATM    8  N   UNL     1       9.022  29.374  57.856  1.00  0.00    -0.345 N 
HETATM    9  H   UNL     1       9.666  28.598  57.891  1.00  0.00     0.163 HD
HETATM   10  O   UNL     1       6.993  30.162  57.184  1.00  0.00    -0.266 OA
BRANCH   8  11
HETATM   11  C   UNL     1       9.457  30.649  58.359  1.00  0.00     0.217 C 
BRANCH  11  12
HETATM   12  C   UNL     1       9.063  30.772  59.822  1.00  0.00    -0.085 C 
BRANCH  12  13
HETATM   13  C   UNL     1       8.725  30.876  61.077  1.00  0.00    -0.078 C 
BRANCH  13  14
HETATM   14  C   UNL     1       8.330  30.999  62.539  1.00  0.00     0.269 C 
BRANCH  14  15
HETATM   15  O   UNL     1       8.326  32.379  62.892  1.00  0.00    -0.338 OA
BRANCH  15  16
HETATM   16  C   UNL     1       7.318  32.800  63.709  1.00  0.00     0.087 A 
HETATM   17  C   UNL     1       6.043  32.344  63.391  1.00  0.00     0.152 A 
HETATM   18  N   UNL     1       4.919  32.652  64.084  1.00  0.00    -0.270 NA
HETATM   19  C   UNL     1       5.075  33.459  65.152  1.00  0.00     0.116 A 
HETATM   20  C   UNL     1       6.300  33.967  65.556  1.00  0.00     0.022 A 
HETATM   21  C   UNL     1       7.438  33.631  64.820  1.00  0.00     0.040 A 
ENDBRANCH  15  16
ENDBRANCH  14  15
ENDBRANCH  13  14
ENDBRANCH  12  13
ENDBRANCH  11  12
ENDBRANCH   8  11
ENDBRANCH   1   7
BRANCH   5  22
HETATM   22  C   UNL     1       7.622  24.381  55.779  1.00  0.00    -0.003 A 
HETATM   23  C   UNL     1       7.450  23.897  54.472  1.00  0.00     0.053 A 
HETATM   24  C   UNL     1       7.735  22.569  54.224  1.00  0.00     0.106 A 
HETATM   25  C   UNL     1       8.179  21.721  55.210  1.00  0.00     0.105 A 
HETATM   26  O   UNL     1       7.618  21.948  53.019  1.00  0.00    -0.323 OA
HETATM   27  O   UNL     1       8.399  20.461  54.752  1.00  0.00    -0.323 OA
HETATM   28  C   UNL     1       8.360  22.153  56.504  1.00  0.00     0.040 A 
HETATM   29  C   UNL     1       8.038  20.610  53.363  1.00  0.00     0.352 A 
HETATM   30  C   UNL     1       8.075  23.495  56.786  1.00  0.00     0.017 A 
ENDBRANCH   5  22
TORSDOF 8
ENDMDL
MODEL 4
REMARK VINA RESULT:      -8.9      4.063     10.799
REMARK  8 active torsions:
REMARK  status: ('A' for Active; 'I' for Inactive)
REMARK    1  A    between atoms: C_5  and  O_6 
REMARK    2  A    between atoms: O_6  and  C_7 
REMARK    3  A    between atoms: C_7  and  C_8 
REMARK    4  A    between atoms: C_8  and  C_9 
REMARK    5  A    between atoms: C_9  and  C_10 
REMARK    6  A    between atoms: C_10  and  N_11 
REMARK       I    between atoms: N_11  and  C_12 
REMARK    7  A    between atoms: C_12  and  C_13 
REMARK    8  A    between atoms: C_17  and  C_18 
ROOT
HETATM    1  C   UNL     1       4.984  27.293  54.231  1.00  0.00     0.120 A 
HETATM    2  N   UNL     1       4.221  26.456  53.469  1.00  0.00    -0.272 N 
HETATM    3  H   UNL     1       3.347  26.685  53.002  1.00  0.00     0.189 HD
HETATM    4  N   UNL     1       4.708  25.212  53.359  1.00  0.00    -0.174 NA
HETATM    5  C   UNL     1       5.851  25.231  54.062  1.00  0.00     0.089 A 
HETATM    6  C   UNL     1       6.056  26.520  54.632  1.00  0.00     0.071 A 
ENDROOT
BRANCH   1   7
HETATM    7  C   UNL     1       4.603  28.659  54.463  1.00  0.00     0.270 C 
HETATM    8  N   UNL     1       4.180  28.943  55.735  1.00  0.00    -0.345 N 
HETATM    9  H   UNL     1       4.179  28.228  56.447  1.00  0.00     0.163 HD
HETATM   10  O   UNL     1       4.653  29.511  53.580  1.00  0.00    -0.266 OA
BRANCH   8  11
HETATM   11  C   UNL     1       3.801  30.280  56.104  1.00  0.00     0.217 C 
BRANCH  11  12
HETATM   12  C   UNL     1       4.803  30.826  57.109  1.00  0.00    -0.085 C 
BRANCH  12  13
HETATM   13  C   UNL     1       5.662  31.293  57.971  1.00  0.00    -0.078 C 
BRANCH  13  14
HETATM   14  C   UNL     1       6.663  31.838  58.976  1.00  0.00     0.269 C 
BRANCH  14  15
HETATM   15  O   UNL     1       7.498  30.768  59.408  1.00  0.00    -0.338 OA
BRANCH  15  16
HETATM   16  C   UNL     1       8.557  30.454  58.606  1.00  0.00     0.087 A 
HETATM   17  C   UNL     1       9.581  31.395  58.551  1.00  0.00     0.152 A 
HETATM   18  N   UNL     1      10.710  31.262  57.814  1.00  0.00    -0.270 NA
HETATM   19  C   UNL     1      10.825  30.130  57.092  1.00  0.00     0.116 A 
HETATM   20  C   UNL     1       9.865  29.130  57.076  1.00  0.00     0.022 A 
HETATM   21  C   UNL     1       8.713  29.298  57.846  1.00  0.00     0.040 A 
ENDBRANCH  15  16
ENDBRANCH  14  15
ENDBRANCH  13  14
ENDBRANCH  12  13
ENDBRANCH  11  12
ENDBRANCH   8  11
ENDBRANCH   1   7
BRANCH   5  22
HETATM   22  C   UNL     1       6.705  24.044  54.179  1.00  0.00    -0.003 A 
HETATM   23  C   UNL     1       7.042  23.524  55.439  1.00  0.00     0.053 A 
HETATM   24  C   UNL     1       7.847  22.402  55.489  1.00  0.00     0.106 A 
HETATM   25  C   UNL     1       8.317  21.790  54.351  1.00  0.00     0.105 A 
HETATM   26  O   UNL     1       8.266  21.780  56.624  1.00  0.00    -0.323 OA
HETATM   27  O   UNL     1       9.089  20.706  54.626  1.00  0.00    -0.323 OA
HETATM   28  C   UNL     1       8.012  22.268  53.097  1.00  0.00     0.040 A 
HETATM   29  C   UNL     1       9.056  20.707  56.068  1.00  0.00     0.352 A 
HETATM   30  C   UNL     1       7.200  23.406  53.016  1.00  0.00     0.017 A 
ENDBRANCH   5  22
TORSDOF 8
ENDMDL
MODEL 5
REMARK VINA RESULT:      -8.9      3.026     11.646
REMARK  8 active torsions:
REMARK  status: ('A' for Active; 'I' for Inactive)
REMARK    1  A    between atoms: C_5  and  O_6 
REMARK    2  A    between atoms: O_6  and  C_7 
REMARK    3  A    between atoms: C_7  and  C_8 
REMARK    4  A    between atoms: C_8  and  C_9 
REMARK    5  A    between atoms: C_9  and  C_10 
REMARK    6  A    between atoms: C_10  and  N_11 
REMARK       I    between atoms: N_11  and  C_12 
REMARK    7  A    between atoms: C_12  and  C_13 
REMARK    8  A    between atoms: C_17  and  C_18 
ROOT
HETATM    1  C   UNL     1       5.442  27.435  56.601  1.00  0.00     0.120 A 
HETATM    2  N   UNL     1       4.568  26.481  57.041  1.00  0.00    -0.272 N 
HETATM    3  H   UNL     1       3.672  26.640  57.492  1.00  0.00     0.189 HD
HETATM    4  N   UNL     1       4.981  25.221  56.843  1.00  0.00    -0.174 NA
HETATM    5  C   UNL     1       6.168  25.345  56.229  1.00  0.00     0.089 A 
HETATM    6  C   UNL     1       6.496  26.721  56.067  1.00  0.00     0.071 A 
ENDROOT
BRANCH   1   7
HETATM    7  C   UNL     1       5.162  28.837  56.745  1.00  0.00     0.270 C 
HETATM    8  N   UNL     1       6.224  29.610  57.136  1.00  0.00    -0.345 N 
HETATM    9  H   UNL     1       7.135  29.199  57.275  1.00  0.00     0.163 HD
HETATM   10  O   UNL     1       4.049  29.307  56.530  1.00  0.00    -0.266 OA
BRANCH   8  11
HETATM   11  C   UNL     1       6.084  31.033  57.285  1.00  0.00     0.217 C 
BRANCH  11  12
HETATM   12  C   UNL     1       6.752  31.470  58.579  1.00  0.00    -0.085 C 
BRANCH  12  13
HETATM   13  C   UNL     1       7.326  31.844  59.688  1.00  0.00    -0.078 C 
BRANCH  13  14
HETATM   14  C   UNL     1       7.995  32.279  60.981  1.00  0.00     0.269 C 
BRANCH  14  15
HETATM   15  O   UNL     1       7.444  31.521  62.053  1.00  0.00    -0.338 OA
BRANCH  15  16
HETATM   16  C   UNL     1       6.971  32.224  63.123  1.00  0.00     0.087 A 
HETATM   17  C   UNL     1       5.594  32.189  63.316  1.00  0.00     0.152 A 
HETATM   18  N   UNL     1       4.940  32.822  64.321  1.00  0.00    -0.270 NA
HETATM   19  C   UNL     1       5.701  33.528  65.179  1.00  0.00     0.116 A 
HETATM   20  C   UNL     1       7.080  33.628  65.078  1.00  0.00     0.022 A 
HETATM   21  C   UNL     1       7.722  32.964  64.032  1.00  0.00     0.040 A 
ENDBRANCH  15  16
ENDBRANCH  14  15
ENDBRANCH  13  14
ENDBRANCH  12  13
ENDBRANCH  11  12
ENDBRANCH   8  11
ENDBRANCH   1   7
BRANCH   5  22
HETATM   22  C   UNL     1       6.953  24.173  55.825  1.00  0.00    -0.003 A 
HETATM   23  C   UNL     1       6.877  23.675  54.515  1.00  0.00     0.053 A 
HETATM   24  C   UNL     1       7.641  22.571  54.190  1.00  0.00     0.106 A 
HETATM   25  C   UNL     1       8.463  21.958  55.105  1.00  0.00     0.105 A 
HETATM   26  O   UNL     1       7.678  21.967  52.972  1.00  0.00    -0.323 OA
HETATM   27  O   UNL     1       9.123  20.893  54.579  1.00  0.00    -0.323 OA
HETATM   28  C   UNL     1       8.566  22.412  56.400  1.00  0.00     0.040 A 
HETATM   29  C   UNL     1       8.618  20.901  53.228  1.00  0.00     0.352 A 
HETATM   30  C   UNL     1       7.801  23.528  56.759  1.00  0.00     0.017 A 
ENDBRANCH   5  22
TORSDOF 8
ENDMDL
MODEL 6
REMARK VINA RESULT:      -8.7      2.977     11.704
REMARK  8 active torsions:
REMARK  status: ('A' for Active; 'I' for Inactive)
REMARK    1  A    between atoms: C_5  and  O_6 
REMARK    2  A    between atoms: O_6  and  C_7 
REMARK    3  A    between atoms: C_7  and  C_8 
REMARK    4  A    between atoms: C_8  and  C_9 
REMARK    5  A    between atoms: C_9  and  C_10 
REMARK    6  A    between atoms: C_10  and  N_11 
REMARK       I    between atoms: N_11  and  C_12 
REMARK    7  A    between atoms: C_12  and  C_13 
REMARK    8  A    between atoms: C_17  and  C_18 
ROOT
HETATM    1  C   UNL     1       5.991  27.816  54.877  1.00  0.00     0.120 A 
HETATM    2  N   UNL     1       6.713  27.867  53.718  1.00  0.00    -0.272 N 
HETATM    3  H   UNL     1       6.875  28.685  53.139  1.00  0.00     0.189 HD
HETATM    4  N   UNL     1       7.237  26.691  53.342  1.00  0.00    -0.174 NA
HETATM    5  C   UNL     1       6.862  25.830  54.300  1.00  0.00     0.089 A 
HETATM    6  C   UNL     1       6.072  26.497  55.279  1.00  0.00     0.071 A 
ENDROOT
BRANCH   1   7
HETATM    7  C   UNL     1       5.352  28.983  55.418  1.00  0.00     0.270 C 
HETATM    8  N   UNL     1       6.026  29.600  56.440  1.00  0.00    -0.345 N 
HETATM    9  H   UNL     1       6.922  29.253  56.747  1.00  0.00     0.163 HD
HETATM   10  O   UNL     1       4.278  29.397  54.993  1.00  0.00    -0.266 OA
BRANCH   8  11
HETATM   11  C   UNL     1       5.508  30.796  57.047  1.00  0.00     0.217 C 
BRANCH  11  12
HETATM   12  C   UNL     1       6.392  31.186  58.221  1.00  0.00    -0.085 C 
BRANCH  12  13
HETATM   13  C   UNL     1       7.150  31.520  59.228  1.00  0.00    -0.078 C 
BRANCH  13  14
HETATM   14  C   UNL     1       8.032  31.910  60.401  1.00  0.00     0.269 C 
BRANCH  14  15
HETATM   15  O   UNL     1       7.630  31.155  61.540  1.00  0.00    -0.338 OA
BRANCH  15  16
HETATM   16  C   UNL     1       7.153  31.859  62.606  1.00  0.00     0.087 A 
HETATM   17  C   UNL     1       5.779  31.791  62.817  1.00  0.00     0.152 A 
HETATM   18  N   UNL     1       5.122  32.420  63.822  1.00  0.00    -0.270 NA
HETATM   19  C   UNL     1       5.875  33.156  64.663  1.00  0.00     0.116 A 
HETATM   20  C   UNL     1       7.249  33.290  64.543  1.00  0.00     0.022 A 
HETATM   21  C   UNL     1       7.895  32.630  63.497  1.00  0.00     0.040 A 
ENDBRANCH  15  16
ENDBRANCH  14  15
ENDBRANCH  13  14
ENDBRANCH  12  13
ENDBRANCH  11  12
ENDBRANCH   8  11
ENDBRANCH   1   7
BRANCH   5  22
HETATM   22  C   UNL     1       7.251  24.416  54.261  1.00  0.00    -0.003 A 
HETATM   23  C   UNL     1       7.355  23.667  55.444  1.00  0.00     0.053 A 
HETATM   24  C   UNL     1       7.723  22.339  55.347  1.00  0.00     0.106 A 
HETATM   25  C   UNL     1       7.984  21.741  54.137  1.00  0.00     0.105 A 
HETATM   26  O   UNL     1       7.870  21.481  56.393  1.00  0.00    -0.323 OA
HETATM   27  O   UNL     1       8.327  20.433  54.268  1.00  0.00    -0.323 OA
HETATM   28  C   UNL     1       7.896  22.439  52.954  1.00  0.00     0.040 A 
HETATM   29  C   UNL     1       8.257  20.275  55.700  1.00  0.00     0.352 A 
HETATM   30  C   UNL     1       7.529  23.788  53.023  1.00  0.00     0.017 A 
ENDBRANCH   5  22
TORSDOF 8
ENDMDL
MODEL 7
REMARK VINA RESULT:      -8.4      3.456     11.285
REMARK  8 active torsions:
REMARK  status: ('A' for Active; 'I' for Inactive)
REMARK    1  A    between atoms: C_5  and  O_6 
REMARK    2  A    between atoms: O_6  and  C_7 
REMARK    3  A    between atoms: C_7  and  C_8 
REMARK    4  A    between atoms: C_8  and  C_9 
REMARK    5  A    between atoms: C_9  and  C_10 
REMARK    6  A    between atoms: C_10  and  N_11 
REMARK       I    between atoms: N_11  and  C_12 
REMARK    7  A    between atoms: C_12  and  C_13 
REMARK    8  A    between atoms: C_17  and  C_18 
ROOT
HETATM    1  C   UNL     1       4.723  27.176  53.630  1.00  0.00     0.120 A 
HETATM    2  N   UNL     1       4.117  26.254  52.825  1.00  0.00    -0.272 N 
HETATM    3  H   UNL     1       3.300  26.403  52.239  1.00  0.00     0.189 HD
HETATM    4  N   UNL     1       4.687  25.041  52.847  1.00  0.00    -0.174 NA
HETATM    5  C   UNL     1       5.726  25.169  53.688  1.00  0.00     0.089 A 
HETATM    6  C   UNL     1       5.777  26.494  54.207  1.00  0.00     0.071 A 
ENDROOT
BRANCH   1   7
HETATM    7  C   UNL     1       4.235  28.523  53.735  1.00  0.00     0.270 C 
HETATM    8  N   UNL     1       4.900  29.321  54.629  1.00  0.00    -0.345 N 
HETATM    9  H   UNL     1       5.694  28.967  55.140  1.00  0.00     0.163 HD
HETATM   10  O   UNL     1       3.288  28.929  53.067  1.00  0.00    -0.266 OA
BRANCH   8  11
HETATM   11  C   UNL     1       4.529  30.699  54.803  1.00  0.00     0.217 C 
BRANCH  11  12
HETATM   12  C   UNL     1       4.864  31.132  56.222  1.00  0.00    -0.085 C 
BRANCH  12  13
HETATM   13  C   UNL     1       5.152  31.503  57.438  1.00  0.00    -0.078 C 
BRANCH  13  14
HETATM   14  C   UNL     1       5.486  31.935  58.856  1.00  0.00     0.269 C 
BRANCH  14  15
HETATM   15  O   UNL     1       6.808  32.467  58.867  1.00  0.00    -0.338 OA
BRANCH  15  16
HETATM   16  C   UNL     1       7.661  31.969  59.807  1.00  0.00     0.087 A 
HETATM   17  C   UNL     1       8.132  30.678  59.583  1.00  0.00     0.152 A 
HETATM   18  N   UNL     1       8.986  30.016  60.402  1.00  0.00    -0.270 NA
HETATM   19  C   UNL     1       9.392  30.677  61.504  1.00  0.00     0.116 A 
HETATM   20  C   UNL     1       8.986  31.964  61.821  1.00  0.00     0.022 A 
HETATM   21  C   UNL     1       8.106  32.617  60.957  1.00  0.00     0.040 A 
ENDBRANCH  15  16
ENDBRANCH  14  15
ENDBRANCH  13  14
ENDBRANCH  12  13
ENDBRANCH  11  12
ENDBRANCH   8  11
ENDBRANCH   1   7
BRANCH   5  22
HETATM   22  C   UNL     1       6.625  24.048  53.980  1.00  0.00    -0.003 A 
HETATM   23  C   UNL     1       6.944  23.708  55.304  1.00  0.00     0.053 A 
HETATM   24  C   UNL     1       7.794  22.641  55.519  1.00  0.00     0.106 A 
HETATM   25  C   UNL     1       8.326  21.912  54.482  1.00  0.00     0.105 A 
HETATM   26  O   UNL     1       8.203  22.189  56.735  1.00  0.00    -0.323 OA
HETATM   27  O   UNL     1       9.135  20.909  54.914  1.00  0.00    -0.323 OA
HETATM   28  C   UNL     1       8.042  22.212  53.170  1.00  0.00     0.040 A 
HETATM   29  C   UNL     1       9.055  21.092  56.343  1.00  0.00     0.352 A 
HETATM   30  C   UNL     1       7.185  23.291  52.922  1.00  0.00     0.017 A 
ENDBRANCH   5  22
TORSDOF 8
ENDMDL
MODEL 8
REMARK VINA RESULT:      -8.2      8.687     11.219
REMARK  8 active torsions:
REMARK  status: ('A' for Active; 'I' for Inactive)
REMARK    1  A    between atoms: C_5  and  O_6 
REMARK    2  A    between atoms: O_6  and  C_7 
REMARK    3  A    between atoms: C_7  and  C_8 
REMARK    4  A    between atoms: C_8  and  C_9 
REMARK    5  A    between atoms: C_9  and  C_10 
REMARK    6  A    between atoms: C_10  and  N_11 
REMARK       I    between atoms: N_11  and  C_12 
REMARK    7  A    between atoms: C_12  and  C_13 
REMARK    8  A    between atoms: C_17  and  C_18 
ROOT
HETATM    1  C   UNL     1       5.531  27.016  53.639  1.00  0.00     0.120 A 
HETATM    2  N   UNL     1       6.611  27.249  54.443  1.00  0.00    -0.272 N 
HETATM    3  H   UNL     1       6.896  28.143  54.833  1.00  0.00     0.189 HD
HETATM    4  N   UNL     1       7.344  26.160  54.713  1.00  0.00    -0.174 NA
HETATM    5  C   UNL     1       6.714  25.160  54.076  1.00  0.00     0.089 A 
HETATM    6  C   UNL     1       5.574  25.659  53.384  1.00  0.00     0.071 A 
ENDROOT
BRANCH   1   7
HETATM    7  C   UNL     1       4.644  28.074  53.243  1.00  0.00     0.270 C 
HETATM    8  N   UNL     1       5.249  29.165  52.675  1.00  0.00    -0.345 N 
HETATM    9  H   UNL     1       6.247  29.180  52.529  1.00  0.00     0.163 HD
HETATM   10  O   UNL     1       3.429  28.004  53.402  1.00  0.00    -0.266 OA
BRANCH   8  11
HETATM   11  C   UNL     1       4.470  30.279  52.206  1.00  0.00     0.217 C 
BRANCH  11  12
HETATM   12  C   UNL     1       4.466  30.283  50.685  1.00  0.00    -0.085 C 
BRANCH  12  13
HETATM   13  C   UNL     1       4.463  30.286  49.381  1.00  0.00    -0.078 C 
BRANCH  13  14
HETATM   14  C   UNL     1       4.459  30.288  47.862  1.00  0.00     0.269 C 
BRANCH  14  15
HETATM   15  O   UNL     1       5.007  29.055  47.406  1.00  0.00    -0.338 OA
BRANCH  15  16
HETATM   16  C   UNL     1       4.206  27.955  47.502  1.00  0.00     0.087 A 
HETATM   17  C   UNL     1       2.877  28.133  47.134  1.00  0.00     0.152 A 
HETATM   18  N   UNL     1       1.932  27.161  47.160  1.00  0.00    -0.270 NA
HETATM   19  C   UNL     1       2.336  25.945  47.576  1.00  0.00     0.116 A 
HETATM   20  C   UNL     1       3.636  25.660  47.964  1.00  0.00     0.022 A 
HETATM   21  C   UNL     1       4.584  26.683  47.926  1.00  0.00     0.040 A 
ENDBRANCH  15  16
ENDBRANCH  14  15
ENDBRANCH  13  14
ENDBRANCH  12  13
ENDBRANCH  11  12
ENDBRANCH   8  11
ENDBRANCH   1   7
BRANCH   5  22
HETATM   22  C   UNL     1       7.204  23.779  54.134  1.00  0.00    -0.003 A 
HETATM   23  C   UNL     1       7.358  23.122  55.365  1.00  0.00     0.053 A 
HETATM   24  C   UNL     1       7.821  21.820  55.359  1.00  0.00     0.106 A 
HETATM   25  C   UNL     1       8.128  21.162  54.193  1.00  0.00     0.105 A 
HETATM   26  O   UNL     1       8.026  21.050  56.461  1.00  0.00    -0.323 OA
HETATM   27  O   UNL     1       8.565  19.893  54.413  1.00  0.00    -0.323 OA
HETATM   28  C   UNL     1       7.995  21.768  52.965  1.00  0.00     0.040 A 
HETATM   29  C   UNL     1       8.502  19.830  55.852  1.00  0.00     0.352 A 
HETATM   30  C   UNL     1       7.531  23.089  52.941  1.00  0.00     0.017 A 
ENDBRANCH   5  22
TORSDOF 8
ENDMDL
MODEL 9
REMARK VINA RESULT:      -8.0      9.705     13.103
REMARK  8 active torsions:
REMARK  status: ('A' for Active; 'I' for Inactive)
REMARK    1  A    between atoms: C_5  and  O_6 
REMARK    2  A    between atoms: O_6  and  C_7 
REMARK    3  A    between atoms: C_7  and  C_8 
REMARK    4  A    between atoms: C_8  and  C_9 
REMARK    5  A    between atoms: C_9  and  C_10 
REMARK    6  A    between atoms: C_10  and  N_11 
REMARK       I    between atoms: N_11  and  C_12 
REMARK    7  A    between atoms: C_12  and  C_13 
REMARK    8  A    between atoms: C_17  and  C_18 
ROOT
HETATM    1  C   UNL     1       5.547  26.186  51.345  1.00  0.00     0.120 A 
HETATM    2  N   UNL     1       4.555  25.875  52.231  1.00  0.00    -0.272 N 
HETATM    3  H   UNL     1       3.606  26.237  52.232  1.00  0.00     0.189 HD
HETATM    4  N   UNL     1       4.919  25.005  53.184  1.00  0.00    -0.174 NA
HETATM    5  C   UNL     1       6.200  24.713  52.907  1.00  0.00     0.089 A 
HETATM    6  C   UNL     1       6.633  25.442  51.763  1.00  0.00     0.071 A 
ENDROOT
BRANCH   1   7
HETATM    7  C   UNL     1       5.332  27.111  50.267  1.00  0.00     0.270 C 
HETATM    8  N   UNL     1       5.028  26.542  49.058  1.00  0.00    -0.345 N 
HETATM    9  H   UNL     1       4.937  25.542  48.970  1.00  0.00     0.163 HD
HETATM   10  O   UNL     1       5.414  28.326  50.421  1.00  0.00    -0.266 OA
BRANCH   8  11
HETATM   11  C   UNL     1       4.759  27.360  47.906  1.00  0.00     0.217 C 
BRANCH  11  12
HETATM   12  C   UNL     1       3.260  27.387  47.651  1.00  0.00    -0.085 C 
BRANCH  12  13
HETATM   13  C   UNL     1       1.975  27.411  47.431  1.00  0.00    -0.078 C 
BRANCH  13  14
HETATM   14  C   UNL     1       0.478  27.438  47.174  1.00  0.00     0.269 C 
BRANCH  14  15
HETATM   15  O   UNL     1       0.246  27.085  45.813  1.00  0.00    -0.338 OA
BRANCH  15  16
HETATM   16  C   UNL     1      -0.594  27.893  45.105  1.00  0.00     0.087 A 
HETATM   17  C   UNL     1      -0.913  27.464  43.820  1.00  0.00     0.152 A 
HETATM   18  N   UNL     1      -1.730  28.130  42.967  1.00  0.00    -0.270 NA
HETATM   19  C   UNL     1      -2.257  29.284  43.419  1.00  0.00     0.116 A 
HETATM   20  C   UNL     1      -2.005  29.800  44.681  1.00  0.00     0.022 A 
HETATM   21  C   UNL     1      -1.159  29.090  45.535  1.00  0.00     0.040 A 
ENDBRANCH  15  16
ENDBRANCH  14  15
ENDBRANCH  13  14
ENDBRANCH  12  13
ENDBRANCH  11  12
ENDBRANCH   8  11
ENDBRANCH   1   7
BRANCH   5  22
HETATM   22  C   UNL     1       6.971  23.771  53.725  1.00  0.00    -0.003 A 
HETATM   23  C   UNL     1       7.323  22.507  53.226  1.00  0.00     0.053 A 
HETATM   24  C   UNL     1       8.052  21.663  54.040  1.00  0.00     0.106 A 
HETATM   25  C   UNL     1       8.437  22.025  55.309  1.00  0.00     0.105 A 
HETATM   26  O   UNL     1       8.468  20.410  53.708  1.00  0.00    -0.323 OA
HETATM   27  O   UNL     1       9.144  21.048  55.935  1.00  0.00    -0.323 OA
HETATM   28  C   UNL     1       8.111  23.252  55.838  1.00  0.00     0.040 A 
HETATM   29  C   UNL     1       9.157  20.026  54.917  1.00  0.00     0.352 A 
HETATM   30  C   UNL     1       7.369  24.128  55.036  1.00  0.00     0.017 A 
ENDBRANCH   5  22
TORSDOF 8
ENDMDL
MODEL 10
REMARK VINA RESULT:      -7.9      3.305     11.229
REMARK  8 active torsions:
REMARK  status: ('A' for Active; 'I' for Inactive)
REMARK    1  A    between atoms: C_5  and  O_6 
REMARK    2  A    between atoms: O_6  and  C_7 
REMARK    3  A    between atoms: C_7  and  C_8 
REMARK    4  A    between atoms: C_8  and  C_9 
REMARK    5  A    between atoms: C_9  and  C_10 
REMARK    6  A    between atoms: C_10  and  N_11 
REMARK       I    between atoms: N_11  and  C_12 
REMARK    7  A    between atoms: C_12  and  C_13 
REMARK    8  A    between atoms: C_17  and  C_18 
ROOT
HETATM    1  C   UNL     1       5.854  27.245  55.568  1.00  0.00     0.120 A 
HETATM    2  N   UNL     1       6.900  27.531  54.735  1.00  0.00    -0.272 N 
HETATM    3  H   UNL     1       7.215  28.454  54.451  1.00  0.00     0.189 HD
HETATM    4  N   UNL     1       7.540  26.452  54.264  1.00  0.00    -0.174 NA
HETATM    5  C   UNL     1       6.906  25.409  54.821  1.00  0.00     0.089 A 
HETATM    6  C   UNL     1       5.835  25.866  55.641  1.00  0.00     0.071 A 
ENDROOT
BRANCH   1   7
HETATM    7  C   UNL     1       5.053  28.283  56.154  1.00  0.00     0.270 C 
HETATM    8  N   UNL     1       4.578  29.224  55.277  1.00  0.00    -0.345 N 
HETATM    9  H   UNL     1       4.769  29.148  54.290  1.00  0.00     0.163 HD
HETATM   10  O   UNL     1       4.810  28.322  57.356  1.00  0.00    -0.266 OA
BRANCH   8  11
HETATM   11  C   UNL     1       3.737  30.298  55.733  1.00  0.00     0.217 C 
BRANCH  11  12
HETATM   12  C   UNL     1       4.482  31.107  56.782  1.00  0.00    -0.085 C 
BRANCH  12  13
HETATM   13  C   UNL     1       5.121  31.803  57.681  1.00  0.00    -0.078 C 
BRANCH  13  14
HETATM   14  C   UNL     1       5.865  32.612  58.730  1.00  0.00     0.269 C 
BRANCH  14  15
HETATM   15  O   UNL     1       7.241  32.245  58.691  1.00  0.00    -0.338 OA
BRANCH  15  16
HETATM   16  C   UNL     1       7.813  31.884  59.876  1.00  0.00     0.087 A 
HETATM   17  C   UNL     1       8.443  30.643  59.896  1.00  0.00     0.152 A 
HETATM   18  N   UNL     1       9.066  30.113  60.977  1.00  0.00    -0.270 NA
HETATM   19  C   UNL     1       9.062  30.861  62.098  1.00  0.00     0.116 A 
HETATM   20  C   UNL     1       8.465  32.109  62.184  1.00  0.00     0.022 A 
HETATM   21  C   UNL     1       7.832  32.626  61.054  1.00  0.00     0.040 A 
ENDBRANCH  15  16
ENDBRANCH  14  15
ENDBRANCH  13  14
ENDBRANCH  12  13
ENDBRANCH  11  12
ENDBRANCH   8  11
ENDBRANCH   1   7
BRANCH   5  22
HETATM   22  C   UNL     1       7.319  24.026  54.561  1.00  0.00    -0.003 A 
HETATM   23  C   UNL     1       7.581  23.143  55.621  1.00  0.00     0.053 A 
HETATM   24  C   UNL     1       7.965  21.851  55.317  1.00  0.00     0.106 A 
HETATM   25  C   UNL     1       8.092  21.415  54.020  1.00  0.00     0.105 A 
HETATM   26  O   UNL     1       8.256  20.880  56.223  1.00  0.00    -0.323 OA
HETATM   27  O   UNL     1       8.478  20.114  53.945  1.00  0.00    -0.323 OA
HETATM   28  C   UNL     1       7.847  22.247  52.951  1.00  0.00     0.040 A 
HETATM   29  C   UNL     1       8.585  19.782  55.345  1.00  0.00     0.352 A 
HETATM   30  C   UNL     1       7.460  23.563  53.230  1.00  0.00     0.017 A 
ENDBRANCH   5  22
TORSDOF 8
ENDMDL
