MODEL 1
REMARK VINA RESULT:      -9.3      0.000      0.000
REMARK  7 active torsions:
REMARK  status: ('A' for Active; 'I' for Inactive)
REMARK    1  A    between atoms: C_4  and  C_5 
REMARK    2  A    between atoms: C_5  and  N_6 
REMARK       I    between atoms: N_6  and  C_7 
REMARK    3  A    between atoms: C_7  and  C_8 
REMARK    4  A    between atoms: C_8  and  C_9 
REMARK    5  A    between atoms: C_9  and  N_10 
REMARK    6  A    between atoms: N_10  and  C_11 
REMARK    7  A    between atoms: C_13  and  N_14 
ROOT
HETATM    1  N   UNL     1       8.351  29.118  58.377  1.00  0.00    -0.262 NA
HETATM    2  H   UNL     1       8.499  28.368  59.061  1.00  0.00     0.130 HD
ENDROOT
BRANCH   1   3
HETATM    3  C   UNL     1       7.401  28.689  57.342  1.00  0.00     0.104 C 
BRANCH   3   4
HETATM    4  C   UNL     1       8.056  27.651  56.436  1.00  0.00     0.117 C 
BRANCH   4   5
HETATM    5  C   UNL     1       7.916  26.268  57.035  1.00  0.00     0.219 C 
HETATM    6  N   UNL     1       7.634  25.302  56.102  1.00  0.00    -0.357 N 
HETATM    7  H   UNL     1       7.419  25.572  55.152  1.00  0.00     0.162 HD
HETATM    8  O   UNL     1       8.038  26.061  58.238  1.00  0.00    -0.274 OA
BRANCH   6   9
HETATM    9  C   UNL     1       7.338  23.933  56.472  1.00  0.00     0.161 C 
BRANCH   9  10
HETATM   10  C   UNL     1       7.572  23.002  55.310  1.00  0.00    -0.041 A 
HETATM   11  C   UNL     1       7.788  21.632  55.524  1.00  0.00     0.009 A 
HETATM   12  C   UNL     1       8.006  20.772  54.446  1.00  0.00     0.001 A 
HETATM   13  C   UNL     1       8.011  21.270  53.146  1.00  0.00     0.000 A 
HETATM   14  C   UNL     1       7.802  22.630  52.920  1.00  0.00     0.001 A 
HETATM   15  C   UNL     1       7.590  23.493  53.997  1.00  0.00     0.009 A 
ENDBRANCH   9  10
ENDBRANCH   6   9
ENDBRANCH   4   5
ENDBRANCH   3   4
ENDBRANCH   1   3
BRANCH   1  16
HETATM   16  C   UNL     1       7.931  30.201  59.137  1.00  0.00     0.181 A 
HETATM   17  N   UNL     1       7.073  31.061  58.572  1.00  0.00    -0.207 NA
HETATM   18  C   UNL     1       6.624  32.066  59.343  1.00  0.00     0.116 A 
HETATM   19  C   UNL     1       7.024  32.240  60.679  1.00  0.00     0.031 A 
HETATM   20  C   UNL     1       7.911  31.278  61.198  1.00  0.00     0.048 A 
HETATM   21  C   UNL     1       6.610  33.294  61.526  1.00  0.00     0.017 A 
HETATM   22  N   UNL     1       8.326  30.285  60.404  1.00  0.00    -0.330 N 
HETATM   23  C   UNL     1       8.353  31.354  62.526  1.00  0.00     0.030 A 
HETATM   24  H   UNL     1       8.923  29.546  60.753  1.00  0.00     0.168 HD
HETATM   25  C   UNL     1       7.924  32.397  63.347  1.00  0.00     0.002 A 
HETATM   26  C   UNL     1       7.057  33.365  62.847  1.00  0.00     0.001 A 
BRANCH  18  27
HETATM   27  N   UNL     1       5.774  32.966  58.711  1.00  0.00    -0.286 NA
HETATM   28  H   UNL     1       6.044  33.083  57.736  1.00  0.00     0.125 HD
HETATM   29  H   UNL     1       4.789  32.734  58.792  1.00  0.00     0.125 HD
ENDBRANCH  18  27
ENDBRANCH   1  16
TORSDOF 7
ENDMDL
MODEL 2
REMARK VINA RESULT:      -9.1      1.071      2.094
REMARK  7 active torsions:
REMARK  status: ('A' for Active; 'I' for Inactive)
REMARK    1  A    between atoms: C_4  and  C_5 
REMARK    2  A    between atoms: C_5  and  N_6 
REMARK       I    between atoms: N_6  and  C_7 
REMARK    3  A    between atoms: C_7  and  C_8 
REMARK    4  A    between atoms: C_8  and  C_9 
REMARK    5  A    between atoms: C_9  and  N_10 
REMARK    6  A    between atoms: N_10  and  C_11 
REMARK    7  A    between atoms: C_13  and  N_14 
ROOT
HETATM    1  N   UNL     1       7.670  30.406  57.988  1.00  0.00    -0.262 NA
HETATM    2  H   UNL     1       7.559  31.290  57.480  1.00  0.00     0.130 HD
ENDROOT
BRANCH   1   3
HETATM    3  C   UNL     1       8.830  29.664  57.477  1.00  0.00     0.104 C 
BRANCH   3   4
HETATM    4  C   UNL     1       8.397  28.756  56.328  1.00  0.00     0.117 C 
BRANCH   4   5
HETATM    5  C   UNL     1       7.946  27.414  56.862  1.00  0.00     0.219 C 
HETATM    6  N   UNL     1       7.601  26.528  55.872  1.00  0.00    -0.357 N 
HETATM    7  H   UNL     1       7.545  26.846  54.914  1.00  0.00     0.162 HD
HETATM    8  O   UNL     1       7.895  27.172  58.064  1.00  0.00    -0.274 OA
BRANCH   6   9
HETATM    9  C   UNL     1       7.026  25.230  56.162  1.00  0.00     0.161 C 
BRANCH   9  10
HETATM   10  C   UNL     1       7.353  24.244  55.070  1.00  0.00    -0.041 A 
HETATM   11  C   UNL     1       7.461  22.873  55.354  1.00  0.00     0.009 A 
HETATM   12  C   UNL     1       7.766  21.962  54.342  1.00  0.00     0.001 A 
HETATM   13  C   UNL     1       7.966  22.408  53.038  1.00  0.00     0.000 A 
HETATM   14  C   UNL     1       7.867  23.768  52.744  1.00  0.00     0.001 A 
HETATM   15  C   UNL     1       7.569  24.681  53.756  1.00  0.00     0.009 A 
ENDBRANCH   9  10
ENDBRANCH   6   9
ENDBRANCH   4   5
ENDBRANCH   3   4
ENDBRANCH   1   3
BRANCH   1  16
HETATM   16  C   UNL     1       7.766  30.785  59.321  1.00  0.00     0.181 A 
HETATM   17  N   UNL     1       8.615  30.103  60.100  1.00  0.00    -0.207 NA
HETATM   18  C   UNL     1       8.746  30.523  61.369  1.00  0.00     0.116 A 
HETATM   19  C   UNL     1       8.031  31.617  61.888  1.00  0.00     0.031 A 
HETATM   20  C   UNL     1       7.177  32.289  60.993  1.00  0.00     0.048 A 
HETATM   21  C   UNL     1       8.105  32.083  63.221  1.00  0.00     0.017 A 
HETATM   22  N   UNL     1       7.083  31.848  59.734  1.00  0.00    -0.330 N 
HETATM   23  C   UNL     1       6.436  33.403  61.411  1.00  0.00     0.030 A 
HETATM   24  H   UNL     1       6.520  32.333  59.047  1.00  0.00     0.168 HD
HETATM   25  C   UNL     1       6.532  33.852  62.728  1.00  0.00     0.002 A 
HETATM   26  C   UNL     1       7.361  33.192  63.630  1.00  0.00     0.001 A 
BRANCH  18  27
HETATM   27  N   UNL     1       9.598  29.764  62.163  1.00  0.00    -0.286 NA
HETATM   28  H   UNL     1      10.275  29.271  61.585  1.00  0.00     0.125 HD
HETATM   29  H   UNL     1      10.060  30.291  62.898  1.00  0.00     0.125 HD
ENDBRANCH  18  27
ENDBRANCH   1  16
TORSDOF 7
ENDMDL
MODEL 3
REMARK VINA RESULT:      -9.0      1.307     10.168
REMARK  7 active torsions:
REMARK  status: ('A' for Active; 'I' for Inactive)
REMARK    1  A    between atoms: C_4  and  C_5 
REMARK    2  A    between atoms: C_5  and  N_6 
REMARK       I    between atoms: N_6  and  C_7 
REMARK    3  A    between atoms: C_7  and  C_8 
REMARK    4  A    between atoms: C_8  and  C_9 
REMARK    5  A    between atoms: C_9  and  N_10 
REMARK    6  A    between atoms: N_10  and  C_11 
REMARK    7  A    between atoms: C_13  and  N_14 
ROOT
HETATM    1  N   UNL     1       7.435  26.173  56.672  1.00  0.00    -0.262 NA
HETATM    2  H   UNL     1       8.396  26.293  57.011  1.00  0.00     0.130 HD
ENDROOT
BRANCH   1   3
HETATM    3  C   UNL     1       6.897  27.454  56.194  1.00  0.00     0.104 C 
BRANCH   3   4
HETATM    4  C   UNL     1       6.585  28.359  57.382  1.00  0.00     0.117 C 
BRANCH   4   5
HETATM    5  C   UNL     1       7.866  28.883  57.994  1.00  0.00     0.219 C 
HETATM    6  N   UNL     1       7.652  29.745  59.040  1.00  0.00    -0.357 N 
HETATM    7  H   UNL     1       6.713  30.063  59.242  1.00  0.00     0.162 HD
HETATM    8  O   UNL     1       8.971  28.559  57.573  1.00  0.00    -0.274 OA
BRANCH   6   9
HETATM    9  C   UNL     1       8.733  30.457  59.690  1.00  0.00     0.161 C 
BRANCH   9  10
HETATM   10  C   UNL     1       8.204  31.372  60.763  1.00  0.00    -0.041 A 
HETATM   11  C   UNL     1       8.835  31.447  62.014  1.00  0.00     0.009 A 
HETATM   12  C   UNL     1       8.341  32.293  63.008  1.00  0.00     0.001 A 
HETATM   13  C   UNL     1       7.214  33.074  62.763  1.00  0.00     0.000 A 
HETATM   14  C   UNL     1       6.575  33.004  61.526  1.00  0.00     0.001 A 
HETATM   15  C   UNL     1       7.063  32.153  60.534  1.00  0.00     0.009 A 
ENDBRANCH   9  10
ENDBRANCH   6   9
ENDBRANCH   4   5
ENDBRANCH   3   4
ENDBRANCH   1   3
BRANCH   1  16
HETATM   16  C   UNL     1       7.533  25.186  55.700  1.00  0.00     0.181 A 
HETATM   17  N   UNL     1       7.622  25.579  54.423  1.00  0.00    -0.207 NA
HETATM   18  C   UNL     1       7.782  24.616  53.501  1.00  0.00     0.116 A 
HETATM   19  C   UNL     1       7.848  23.250  53.827  1.00  0.00     0.031 A 
HETATM   20  C   UNL     1       7.767  22.929  55.195  1.00  0.00     0.048 A 
HETATM   21  C   UNL     1       7.984  22.193  52.898  1.00  0.00     0.017 A 
HETATM   22  N   UNL     1       7.620  23.917  56.085  1.00  0.00    -0.330 N 
HETATM   23  C   UNL     1       7.842  21.596  55.624  1.00  0.00     0.030 A 
HETATM   24  H   UNL     1       7.609  23.732  57.080  1.00  0.00     0.168 HD
HETATM   25  C   UNL     1       7.986  20.569  54.690  1.00  0.00     0.002 A 
HETATM   26  C   UNL     1       8.054  20.867  53.332  1.00  0.00     0.001 A 
BRANCH  18  27
HETATM   27  N   UNL     1       7.822  25.055  52.182  1.00  0.00    -0.286 NA
HETATM   28  H   UNL     1       7.692  26.064  52.140  1.00  0.00     0.125 HD
HETATM   29  H   UNL     1       8.657  24.773  51.676  1.00  0.00     0.125 HD
ENDBRANCH  18  27
ENDBRANCH   1  16
TORSDOF 7
ENDMDL
MODEL 4
REMARK VINA RESULT:      -9.0      2.037      3.107
REMARK  7 active torsions:
REMARK  status: ('A' for Active; 'I' for Inactive)
REMARK    1  A    between atoms: C_4  and  C_5 
REMARK    2  A    between atoms: C_5  and  N_6 
REMARK       I    between atoms: N_6  and  C_7 
REMARK    3  A    between atoms: C_7  and  C_8 
REMARK    4  A    between atoms: C_8  and  C_9 
REMARK    5  A    between atoms: C_9  and  N_10 
REMARK    6  A    between atoms: N_10  and  C_11 
REMARK    7  A    between atoms: C_13  and  N_14 
ROOT
HETATM    1  N   UNL     1       7.700  27.916  55.886  1.00  0.00    -0.262 NA
HETATM    2  H   UNL     1       6.713  27.906  56.166  1.00  0.00     0.130 HD
ENDROOT
BRANCH   1   3
HETATM    3  C   UNL     1       7.825  28.247  54.461  1.00  0.00     0.104 C 
BRANCH   3   4
HETATM    4  C   UNL     1       7.389  27.055  53.613  1.00  0.00     0.117 C 
BRANCH   4   5
HETATM    5  C   UNL     1       6.717  26.012  54.480  1.00  0.00     0.219 C 
HETATM    6  N   UNL     1       7.589  25.071  54.968  1.00  0.00    -0.357 N 
HETATM    7  H   UNL     1       8.543  25.053  54.633  1.00  0.00     0.162 HD
HETATM    8  O   UNL     1       5.510  26.027  54.703  1.00  0.00    -0.274 OA
BRANCH   6   9
HETATM    9  C   UNL     1       7.140  23.916  55.717  1.00  0.00     0.161 C 
BRANCH   9  10
HETATM   10  C   UNL     1       7.555  22.639  55.032  1.00  0.00    -0.041 A 
HETATM   11  C   UNL     1       7.871  21.496  55.782  1.00  0.00     0.009 A 
HETATM   12  C   UNL     1       8.257  20.315  55.145  1.00  0.00     0.001 A 
HETATM   13  C   UNL     1       8.331  20.264  53.755  1.00  0.00     0.000 A 
HETATM   14  C   UNL     1       8.024  21.394  53.000  1.00  0.00     0.001 A 
HETATM   15  C   UNL     1       7.645  22.578  53.635  1.00  0.00     0.009 A 
ENDBRANCH   9  10
ENDBRANCH   6   9
ENDBRANCH   4   5
ENDBRANCH   3   4
ENDBRANCH   1   3
BRANCH   1  16
HETATM   16  C   UNL     1       8.294  28.829  56.748  1.00  0.00     0.181 A 
HETATM   17  N   UNL     1       9.617  29.012  56.641  1.00  0.00    -0.207 NA
HETATM   18  C   UNL     1      10.166  29.946  57.435  1.00  0.00     0.116 A 
HETATM   19  C   UNL     1       9.417  30.705  58.352  1.00  0.00     0.031 A 
HETATM   20  C   UNL     1       8.031  30.462  58.382  1.00  0.00     0.048 A 
HETATM   21  C   UNL     1       9.945  31.677  59.232  1.00  0.00     0.017 A 
HETATM   22  N   UNL     1       7.519  29.533  57.567  1.00  0.00    -0.330 N 
HETATM   23  C   UNL     1       7.196  31.181  59.249  1.00  0.00     0.030 A 
HETATM   24  H   UNL     1       6.523  29.363  57.522  1.00  0.00     0.168 HD
HETATM   25  C   UNL     1       7.737  32.142  60.102  1.00  0.00     0.002 A 
HETATM   26  C   UNL     1       9.108  32.387  60.096  1.00  0.00     0.001 A 
BRANCH  18  27
HETATM   27  N   UNL     1      11.546  30.077  57.334  1.00  0.00    -0.286 NA
HETATM   28  H   UNL     1      11.877  30.825  57.939  1.00  0.00     0.125 HD
HETATM   29  H   UNL     1      12.058  29.216  57.503  1.00  0.00     0.125 HD
ENDBRANCH  18  27
ENDBRANCH   1  16
TORSDOF 7
ENDMDL
MODEL 5
REMARK VINA RESULT:      -8.9      3.437      4.720
REMARK  7 active torsions:
REMARK  status: ('A' for Active; 'I' for Inactive)
REMARK    1  A    between atoms: C_4  and  C_5 
REMARK    2  A    between atoms: C_5  and  N_6 
REMARK       I    between atoms: N_6  and  C_7 
REMARK    3  A    between atoms: C_7  and  C_8 
REMARK    4  A    between atoms: C_8  and  C_9 
REMARK    5  A    between atoms: C_9  and  N_10 
REMARK    6  A    between atoms: N_10  and  C_11 
REMARK    7  A    between atoms: C_13  and  N_14 
ROOT
HETATM    1  N   UNL     1       6.005  27.846  53.253  1.00  0.00    -0.262 NA
HETATM    2  H   UNL     1       6.750  27.208  52.954  1.00  0.00     0.130 HD
ENDROOT
BRANCH   1   3
HETATM    3  C   UNL     1       4.717  27.142  53.307  1.00  0.00     0.104 C 
BRANCH   3   4
HETATM    4  C   UNL     1       4.828  25.806  52.578  1.00  0.00     0.117 C 
BRANCH   4   5
HETATM    5  C   UNL     1       6.249  25.289  52.642  1.00  0.00     0.219 C 
HETATM    6  N   UNL     1       6.601  24.832  53.888  1.00  0.00    -0.357 N 
HETATM    7  H   UNL     1       5.977  24.981  54.670  1.00  0.00     0.162 HD
HETATM    8  O   UNL     1       6.992  25.297  51.666  1.00  0.00    -0.274 OA
BRANCH   6   9
HETATM    9  C   UNL     1       7.950  24.409  54.203  1.00  0.00     0.161 C 
BRANCH   9  10
HETATM   10  C   UNL     1       8.028  22.909  54.318  1.00  0.00    -0.041 A 
HETATM   11  C   UNL     1       8.147  22.109  53.171  1.00  0.00     0.009 A 
HETATM   12  C   UNL     1       8.216  20.719  53.280  1.00  0.00     0.001 A 
HETATM   13  C   UNL     1       8.168  20.114  54.533  1.00  0.00     0.000 A 
HETATM   14  C   UNL     1       8.045  20.897  55.680  1.00  0.00     0.001 A 
HETATM   15  C   UNL     1       7.969  22.287  55.573  1.00  0.00     0.009 A 
ENDBRANCH   9  10
ENDBRANCH   6   9
ENDBRANCH   4   5
ENDBRANCH   3   4
ENDBRANCH   1   3
BRANCH   1  16
HETATM   16  C   UNL     1       6.446  28.343  54.473  1.00  0.00     0.181 A 
HETATM   17  N   UNL     1       5.562  28.395  55.478  1.00  0.00    -0.207 NA
HETATM   18  C   UNL     1       6.021  28.814  56.669  1.00  0.00     0.116 A 
HETATM   19  C   UNL     1       7.357  29.197  56.880  1.00  0.00     0.031 A 
HETATM   20  C   UNL     1       8.221  29.090  55.775  1.00  0.00     0.048 A 
HETATM   21  C   UNL     1       7.886  29.675  58.101  1.00  0.00     0.017 A 
HETATM   22  N   UNL     1       7.731  28.657  54.609  1.00  0.00    -0.330 N 
HETATM   23  C   UNL     1       9.577  29.430  55.890  1.00  0.00     0.030 A 
HETATM   24  H   UNL     1       8.329  28.518  53.804  1.00  0.00     0.168 HD
HETATM   25  C   UNL     1      10.080  29.891  57.107  1.00  0.00     0.002 A 
HETATM   26  C   UNL     1       9.237  30.015  58.207  1.00  0.00     0.001 A 
BRANCH  18  27
HETATM   27  N   UNL     1       5.067  28.902  57.676  1.00  0.00    -0.286 NA
HETATM   28  H   UNL     1       4.143  28.677  57.311  1.00  0.00     0.125 HD
HETATM   29  H   UNL     1       5.280  28.346  58.499  1.00  0.00     0.125 HD
ENDBRANCH  18  27
ENDBRANCH   1  16
TORSDOF 7
ENDMDL
MODEL 6
REMARK VINA RESULT:      -8.9      2.243      9.876
REMARK  7 active torsions:
REMARK  status: ('A' for Active; 'I' for Inactive)
REMARK    1  A    between atoms: C_4  and  C_5 
REMARK    2  A    between atoms: C_5  and  N_6 
REMARK       I    between atoms: N_6  and  C_7 
REMARK    3  A    between atoms: C_7  and  C_8 
REMARK    4  A    between atoms: C_8  and  C_9 
REMARK    5  A    between atoms: C_9  and  N_10 
REMARK    6  A    between atoms: N_10  and  C_11 
REMARK    7  A    between atoms: C_13  and  N_14 
ROOT
HETATM    1  N   UNL     1       7.581  28.201  58.309  1.00  0.00    -0.262 NA
HETATM    2  H   UNL     1       7.943  27.855  59.205  1.00  0.00     0.130 HD
ENDROOT
BRANCH   1   3
HETATM    3  C   UNL     1       8.307  29.409  57.896  1.00  0.00     0.104 C 
BRANCH   3   4
HETATM    4  C   UNL     1       7.560  30.651  58.376  1.00  0.00     0.117 C 
BRANCH   4   5
HETATM    5  C   UNL     1       8.319  31.317  59.503  1.00  0.00     0.219 C 
HETATM    6  N   UNL     1       8.228  30.636  60.691  1.00  0.00    -0.357 N 
HETATM    7  H   UNL     1       7.592  29.853  60.772  1.00  0.00     0.162 HD
HETATM    8  O   UNL     1       8.939  32.363  59.345  1.00  0.00    -0.274 OA
BRANCH   6   9
HETATM    9  C   UNL     1       8.775  31.159  61.926  1.00  0.00     0.161 C 
BRANCH   9  10
HETATM   10  C   UNL     1       7.707  31.845  62.737  1.00  0.00    -0.041 A 
HETATM   11  C   UNL     1       8.050  32.764  63.741  1.00  0.00     0.009 A 
HETATM   12  C   UNL     1       7.059  33.397  64.492  1.00  0.00     0.001 A 
HETATM   13  C   UNL     1       5.716  33.121  64.248  1.00  0.00     0.000 A 
HETATM   14  C   UNL     1       5.361  32.208  63.257  1.00  0.00     0.001 A 
HETATM   15  C   UNL     1       6.352  31.568  62.509  1.00  0.00     0.009 A 
ENDBRANCH   9  10
ENDBRANCH   6   9
ENDBRANCH   4   5
ENDBRANCH   3   4
ENDBRANCH   1   3
BRANCH   1  16
HETATM   16  C   UNL     1       7.712  27.122  57.445  1.00  0.00     0.181 A 
HETATM   17  N   UNL     1       8.009  25.930  57.980  1.00  0.00    -0.207 NA
HETATM   18  C   UNL     1       8.065  24.885  57.139  1.00  0.00     0.116 A 
HETATM   19  C   UNL     1       7.838  25.003  55.757  1.00  0.00     0.031 A 
HETATM   20  C   UNL     1       7.511  26.288  55.284  1.00  0.00     0.048 A 
HETATM   21  C   UNL     1       7.916  23.945  54.822  1.00  0.00     0.017 A 
HETATM   22  N   UNL     1       7.452  27.302  56.154  1.00  0.00    -0.330 N 
HETATM   23  C   UNL     1       7.249  26.505  53.924  1.00  0.00     0.030 A 
HETATM   24  H   UNL     1       7.172  28.230  55.862  1.00  0.00     0.168 HD
HETATM   25  C   UNL     1       7.321  25.445  53.020  1.00  0.00     0.002 A 
HETATM   26  C   UNL     1       7.656  24.170  53.468  1.00  0.00     0.001 A 
BRANCH  18  27
HETATM   27  N   UNL     1       8.423  23.673  57.720  1.00  0.00    -0.286 NA
HETATM   28  H   UNL     1       8.983  23.832  58.555  1.00  0.00     0.125 HD
HETATM   29  H   UNL     1       7.638  23.060  57.918  1.00  0.00     0.125 HD
ENDBRANCH  18  27
ENDBRANCH   1  16
TORSDOF 7
ENDMDL
MODEL 7
REMARK VINA RESULT:      -8.7      3.075      9.176
REMARK  7 active torsions:
REMARK  status: ('A' for Active; 'I' for Inactive)
REMARK    1  A    between atoms: C_4  and  C_5 
REMARK    2  A    between atoms: C_5  and  N_6 
REMARK       I    between atoms: N_6  and  C_7 
REMARK    3  A    between atoms: C_7  and  C_8 
REMARK    4  A    between atoms: C_8  and  C_9 
REMARK    5  A    between atoms: C_9  and  N_10 
REMARK    6  A    between atoms: N_10  and  C_11 
REMARK    7  A    between atoms: C_13  and  N_14 
ROOT
HETATM    1  N   UNL     1       5.661  26.079  53.655  1.00  0.00    -0.262 NA
HETATM    2  H   UNL     1       4.743  25.986  54.103  1.00  0.00     0.130 HD
ENDROOT
BRANCH   1   3
HETATM    3  C   UNL     1       6.218  27.416  53.900  1.00  0.00     0.104 C 
BRANCH   3   4
HETATM    4  C   UNL     1       5.212  28.260  54.677  1.00  0.00     0.117 C 
BRANCH   4   5
HETATM    5  C   UNL     1       5.724  28.532  56.075  1.00  0.00     0.219 C 
HETATM    6  N   UNL     1       6.930  27.929  56.334  1.00  0.00    -0.357 N 
HETATM    7  H   UNL     1       7.315  27.274  55.667  1.00  0.00     0.162 HD
HETATM    8  O   UNL     1       5.101  29.218  56.878  1.00  0.00    -0.274 OA
BRANCH   6   9
HETATM    9  C   UNL     1       7.541  27.955  57.647  1.00  0.00     0.161 C 
BRANCH   9  10
HETATM   10  C   UNL     1       8.593  29.031  57.727  1.00  0.00    -0.041 A 
HETATM   11  C   UNL     1       9.704  29.010  56.868  1.00  0.00     0.009 A 
HETATM   12  C   UNL     1      10.678  30.006  56.945  1.00  0.00     0.001 A 
HETATM   13  C   UNL     1      10.554  31.034  57.877  1.00  0.00     0.000 A 
HETATM   14  C   UNL     1       9.459  31.063  58.739  1.00  0.00     0.001 A 
HETATM   15  C   UNL     1       8.487  30.064  58.668  1.00  0.00     0.009 A 
ENDBRANCH   9  10
ENDBRANCH   6   9
ENDBRANCH   4   5
ENDBRANCH   3   4
ENDBRANCH   1   3
BRANCH   1  16
HETATM   16  C   UNL     1       6.409  25.034  54.180  1.00  0.00     0.181 A 
HETATM   17  N   UNL     1       6.697  25.073  55.488  1.00  0.00    -0.207 NA
HETATM   18  C   UNL     1       7.364  24.023  55.994  1.00  0.00     0.116 A 
HETATM   19  C   UNL     1       7.763  22.924  55.214  1.00  0.00     0.031 A 
HETATM   20  C   UNL     1       7.399  22.956  53.854  1.00  0.00     0.048 A 
HETATM   21  C   UNL     1       8.492  21.808  55.685  1.00  0.00     0.017 A 
HETATM   22  N   UNL     1       6.725  24.013  53.389  1.00  0.00    -0.330 N 
HETATM   23  C   UNL     1       7.735  21.898  52.997  1.00  0.00     0.030 A 
HETATM   24  H   UNL     1       6.402  24.052  52.431  1.00  0.00     0.168 HD
HETATM   25  C   UNL     1       8.447  20.802  53.486  1.00  0.00     0.002 A 
HETATM   26  C   UNL     1       8.826  20.759  54.825  1.00  0.00     0.001 A 
BRANCH  18  27
HETATM   27  N   UNL     1       7.688  24.118  57.343  1.00  0.00    -0.286 NA
HETATM   28  H   UNL     1       6.845  24.103  57.912  1.00  0.00     0.125 HD
HETATM   29  H   UNL     1       8.356  23.420  57.659  1.00  0.00     0.125 HD
ENDBRANCH  18  27
ENDBRANCH   1  16
TORSDOF 7
ENDMDL
MODEL 8
REMARK VINA RESULT:      -8.6      6.164      9.605
REMARK  7 active torsions:
REMARK  status: ('A' for Active; 'I' for Inactive)
REMARK    1  A    between atoms: C_4  and  C_5 
REMARK    2  A    between atoms: C_5  and  N_6 
REMARK       I    between atoms: N_6  and  C_7 
REMARK    3  A    between atoms: C_7  and  C_8 
REMARK    4  A    between atoms: C_8  and  C_9 
REMARK    5  A    between atoms: C_9  and  N_10 
REMARK    6  A    between atoms: N_10  and  C_11 
REMARK    7  A    between atoms: C_13  and  N_14 
ROOT
HETATM    1  N   UNL     1       6.652  26.351  53.694  1.00  0.00    -0.262 NA
HETATM    2  H   UNL     1       6.312  26.123  52.754  1.00  0.00     0.130 HD
ENDROOT
BRANCH   1   3
HETATM    3  C   UNL     1       5.592  26.995  54.481  1.00  0.00     0.104 C 
BRANCH   3   4
HETATM    4  C   UNL     1       4.450  27.418  53.561  1.00  0.00     0.117 C 
BRANCH   4   5
HETATM    5  C   UNL     1       4.957  27.604  52.147  1.00  0.00     0.219 C 
HETATM    6  N   UNL     1       4.517  26.632  51.284  1.00  0.00    -0.357 N 
HETATM    7  H   UNL     1       4.022  25.828  51.647  1.00  0.00     0.162 HD
HETATM    8  O   UNL     1       5.692  28.534  51.833  1.00  0.00    -0.274 OA
BRANCH   6   9
HETATM    9  C   UNL     1       4.979  26.547  49.914  1.00  0.00     0.161 C 
BRANCH   9  10
HETATM   10  C   UNL     1       3.824  26.646  48.952  1.00  0.00    -0.041 A 
HETATM   11  C   UNL     1       2.887  27.686  49.064  1.00  0.00     0.009 A 
HETATM   12  C   UNL     1       1.817  27.774  48.173  1.00  0.00     0.001 A 
HETATM   13  C   UNL     1       1.669  26.827  47.162  1.00  0.00     0.000 A 
HETATM   14  C   UNL     1       2.590  25.787  47.044  1.00  0.00     0.001 A 
HETATM   15  C   UNL     1       3.658  25.693  47.938  1.00  0.00     0.009 A 
ENDBRANCH   9  10
ENDBRANCH   6   9
ENDBRANCH   4   5
ENDBRANCH   3   4
ENDBRANCH   1   3
BRANCH   1  16
HETATM   16  C   UNL     1       7.096  25.137  54.203  1.00  0.00     0.181 A 
HETATM   17  N   UNL     1       7.285  25.051  55.526  1.00  0.00    -0.207 NA
HETATM   18  C   UNL     1       7.649  23.852  56.011  1.00  0.00     0.116 A 
HETATM   19  C   UNL     1       7.841  22.725  55.193  1.00  0.00     0.031 A 
HETATM   20  C   UNL     1       7.600  22.900  53.817  1.00  0.00     0.048 A 
HETATM   21  C   UNL     1       8.254  21.450  55.643  1.00  0.00     0.017 A 
HETATM   22  N   UNL     1       7.226  24.105  53.375  1.00  0.00    -0.330 N 
HETATM   23  C   UNL     1       7.745  21.831  52.923  1.00  0.00     0.030 A 
HETATM   24  H   UNL     1       6.994  24.261  52.402  1.00  0.00     0.168 HD
HETATM   25  C   UNL     1       8.144  20.578  53.390  1.00  0.00     0.002 A 
HETATM   26  C   UNL     1       8.401  20.390  54.745  1.00  0.00     0.001 A 
BRANCH  18  27
HETATM   27  N   UNL     1       7.884  23.810  57.381  1.00  0.00    -0.286 NA
HETATM   28  H   UNL     1       8.858  23.578  57.566  1.00  0.00     0.125 HD
HETATM   29  H   UNL     1       7.608  24.654  57.875  1.00  0.00     0.125 HD
ENDBRANCH  18  27
ENDBRANCH   1  16
TORSDOF 7
ENDMDL
MODEL 9
REMARK VINA RESULT:      -8.5      1.478     10.075
REMARK  7 active torsions:
REMARK  status: ('A' for Active; 'I' for Inactive)
REMARK    1  A    between atoms: C_4  and  C_5 
REMARK    2  A    between atoms: C_5  and  N_6 
REMARK       I    between atoms: N_6  and  C_7 
REMARK    3  A    between atoms: C_7  and  C_8 
REMARK    4  A    between atoms: C_8  and  C_9 
REMARK    5  A    between atoms: C_9  and  N_10 
REMARK    6  A    between atoms: N_10  and  C_11 
REMARK    7  A    between atoms: C_13  and  N_14 
ROOT
HETATM    1  N   UNL     1       7.478  26.416  55.353  1.00  0.00    -0.262 NA
HETATM    2  H   UNL     1       7.096  26.601  54.420  1.00  0.00     0.130 HD
ENDROOT
BRANCH   1   3
HETATM    3  C   UNL     1       6.542  26.871  56.390  1.00  0.00     0.104 C 
BRANCH   3   4
HETATM    4  C   UNL     1       7.289  27.084  57.703  1.00  0.00     0.117 C 
BRANCH   4   5
HETATM    5  C   UNL     1       7.989  28.426  57.697  1.00  0.00     0.219 C 
HETATM    6  N   UNL     1       7.288  29.403  58.359  1.00  0.00    -0.357 N 
HETATM    7  H   UNL     1       6.346  29.216  58.676  1.00  0.00     0.162 HD
HETATM    8  O   UNL     1       9.069  28.598  57.143  1.00  0.00    -0.274 OA
BRANCH   6   9
HETATM    9  C   UNL     1       7.714  30.788  58.370  1.00  0.00     0.161 C 
BRANCH   9  10
HETATM   10  C   UNL     1       7.996  31.250  59.777  1.00  0.00    -0.041 A 
HETATM   11  C   UNL     1       8.987  30.624  60.549  1.00  0.00     0.009 A 
HETATM   12  C   UNL     1       9.244  31.052  61.853  1.00  0.00     0.001 A 
HETATM   13  C   UNL     1       8.518  32.108  62.397  1.00  0.00     0.000 A 
HETATM   14  C   UNL     1       7.528  32.735  61.641  1.00  0.00     0.001 A 
HETATM   15  C   UNL     1       7.264  32.304  60.340  1.00  0.00     0.009 A 
ENDBRANCH   9  10
ENDBRANCH   6   9
ENDBRANCH   4   5
ENDBRANCH   3   4
ENDBRANCH   1   3
BRANCH   1  16
HETATM   16  C   UNL     1       7.729  25.050  55.359  1.00  0.00     0.181 A 
HETATM   17  N   UNL     1       7.911  24.457  56.546  1.00  0.00    -0.207 NA
HETATM   18  C   UNL     1       8.087  23.125  56.540  1.00  0.00     0.116 A 
HETATM   19  C   UNL     1       8.094  22.362  55.359  1.00  0.00     0.031 A 
HETATM   20  C   UNL     1       7.873  23.064  54.159  1.00  0.00     0.048 A 
HETATM   21  C   UNL     1       8.305  20.966  55.289  1.00  0.00     0.017 A 
HETATM   22  N   UNL     1       7.690  24.388  54.207  1.00  0.00    -0.330 N 
HETATM   23  C   UNL     1       7.843  22.389  52.930  1.00  0.00     0.030 A 
HETATM   24  H   UNL     1       7.479  24.921  53.373  1.00  0.00     0.168 HD
HETATM   25  C   UNL     1       8.044  21.010  52.885  1.00  0.00     0.002 A 
HETATM   26  C   UNL     1       8.277  20.301  54.061  1.00  0.00     0.001 A 
BRANCH  18  27
HETATM   27  N   UNL     1       8.321  22.550  57.783  1.00  0.00    -0.286 NA
HETATM   28  H   UNL     1       7.628  21.830  57.977  1.00  0.00     0.125 HD
HETATM   29  H   UNL     1       9.264  22.191  57.903  1.00  0.00     0.125 HD
ENDBRANCH  18  27
ENDBRANCH   1  16
TORSDOF 7
ENDMDL
MODEL 10
REMARK VINA RESULT:      -8.3      3.145      8.753
REMARK  7 active torsions:
REMARK  status: ('A' for Active; 'I' for Inactive)
REMARK    1  A    between atoms: C_4  and  C_5 
REMARK    2  A    between atoms: C_5  and  N_6 
REMARK       I    between atoms: N_6  and  C_7 
REMARK    3  A    between atoms: C_7  and  C_8 
REMARK    4  A    between atoms: C_8  and  C_9 
REMARK    5  A    between atoms: C_9  and  N_10 
REMARK    6  A    between atoms: N_10  and  C_11 
REMARK    7  A    between atoms: C_13  and  N_14 
ROOT
HETATM    1  N   UNL     1       4.250  27.570  54.694  1.00  0.00    -0.262 NA
HETATM    2  H   UNL     1       4.142  27.309  55.680  1.00  0.00     0.130 HD
ENDROOT
BRANCH   1   3
HETATM    3  C   UNL     1       4.800  28.927  54.580  1.00  0.00     0.104 C 
BRANCH   3   4
HETATM    4  C   UNL     1       4.300  29.786  55.738  1.00  0.00     0.117 C 
BRANCH   4   5
HETATM    5  C   UNL     1       5.225  29.650  56.929  1.00  0.00     0.219 C 
HETATM    6  N   UNL     1       6.229  28.736  56.730  1.00  0.00    -0.357 N 
HETATM    7  H   UNL     1       6.215  28.149  55.907  1.00  0.00     0.162 HD
HETATM    8  O   UNL     1       5.065  30.298  57.958  1.00  0.00    -0.274 OA
BRANCH   6   9
HETATM    9  C   UNL     1       7.151  28.360  57.782  1.00  0.00     0.161 C 
BRANCH   9  10
HETATM   10  C   UNL     1       8.416  29.175  57.703  1.00  0.00    -0.041 A 
HETATM   11  C   UNL     1       9.437  28.825  56.806  1.00  0.00     0.009 A 
HETATM   12  C   UNL     1      10.609  29.581  56.736  1.00  0.00     0.001 A 
HETATM   13  C   UNL     1      10.772  30.693  57.558  1.00  0.00     0.000 A 
HETATM   14  C   UNL     1       9.767  31.048  58.456  1.00  0.00     0.001 A 
HETATM   15  C   UNL     1       8.598  30.290  58.533  1.00  0.00     0.009 A 
ENDBRANCH   9  10
ENDBRANCH   6   9
ENDBRANCH   4   5
ENDBRANCH   3   4
ENDBRANCH   1   3
BRANCH   1  16
HETATM   16  C   UNL     1       5.055  26.572  54.160  1.00  0.00     0.181 A 
HETATM   17  N   UNL     1       5.347  26.642  52.855  1.00  0.00    -0.207 NA
HETATM   18  C   UNL     1       6.180  25.708  52.368  1.00  0.00     0.116 A 
HETATM   19  C   UNL     1       6.729  24.686  53.162  1.00  0.00     0.031 A 
HETATM   20  C   UNL     1       6.386  24.701  54.527  1.00  0.00     0.048 A 
HETATM   21  C   UNL     1       7.584  23.660  52.698  1.00  0.00     0.017 A 
HETATM   22  N   UNL     1       5.564  25.655  54.978  1.00  0.00    -0.330 N 
HETATM   23  C   UNL     1       6.898  23.735  55.405  1.00  0.00     0.030 A 
HETATM   24  H   UNL     1       5.333  25.731  55.960  1.00  0.00     0.168 HD
HETATM   25  C   UNL     1       7.748  22.738  54.928  1.00  0.00     0.002 A 
HETATM   26  C   UNL     1       8.087  22.699  53.578  1.00  0.00     0.001 A 
BRANCH  18  27
HETATM   27  N   UNL     1       6.423  25.781  51.001  1.00  0.00    -0.286 NA
HETATM   28  H   UNL     1       6.441  24.848  50.594  1.00  0.00     0.125 HD
HETATM   29  H   UNL     1       5.782  26.387  50.498  1.00  0.00     0.125 HD
ENDBRANCH  18  27
ENDBRANCH   1  16
TORSDOF 7
ENDMDL
