MODEL 1
REMARK VINA RESULT:      -7.4      0.000      0.000
REMARK  6 active torsions:
REMARK  status: ('A' for Active; 'I' for Inactive)
REMARK    1  A    between atoms: C_2  and  O_3 
REMARK    2  A    between atoms: O_3  and  C_4 
REMARK    3  A    between atoms: C_4  and  C_5 
REMARK    4  A    between atoms: C_6  and  O_7 
REMARK    5  A    between atoms: C_12  and  O_13 
REMARK    6  A    between atoms: C_17  and  C_18 
ROOT
HETATM    1  C   UNL     1       7.167  27.633  55.634  1.00  0.00     0.133 C 
HETATM    2  C   UNL     1       7.642  27.708  57.122  1.00  0.00     0.073 C 
HETATM    3  C   UNL     1       7.075  28.919  57.881  1.00  0.00     0.047 C 
HETATM    4  C   UNL     1       7.347  26.412  57.932  1.00  0.00     0.097 C 
HETATM    5  C   UNL     1       7.730  25.230  57.124  1.00  0.00     0.042 A 
HETATM    6  C   UNL     1       7.846  25.172  55.753  1.00  0.00     0.030 A 
HETATM    7  C   UNL     1       8.317  23.867  55.528  1.00  0.00     0.190 A 
HETATM    8  N   UNL     1       8.463  23.153  56.638  1.00  0.00    -0.149 NA
HETATM    9  N   UNL     1       8.107  24.012  57.608  1.00  0.00    -0.279 N 
HETATM   10  H   UNL     1       8.167  23.700  58.571  1.00  0.00     0.189 HD
HETATM   11  C   UNL     1       7.601  26.346  54.862  1.00  0.00     0.074 C 
ENDROOT
BRANCH  11  12
HETATM   12  C   UNL     1       6.661  25.879  53.757  1.00  0.00    -0.048 A 
HETATM   13  C   UNL     1       5.513  25.101  54.016  1.00  0.00     0.011 A 
HETATM   14  C   UNL     1       4.670  24.696  52.982  1.00  0.00     0.043 A 
HETATM   15  C   UNL     1       4.957  25.075  51.679  1.00  0.00     0.116 A 
HETATM   16  F   UNL     1       4.145  24.694  50.685  1.00  0.00    -0.206 F 
HETATM   17  C   UNL     1       6.072  25.854  51.394  1.00  0.00     0.043 A 
HETATM   18  C   UNL     1       6.920  26.258  52.428  1.00  0.00     0.011 A 
ENDBRANCH  11  12
BRANCH   1  19
HETATM   19  C   UNL     1       5.681  27.915  55.528  1.00  0.00     0.267 C 
HETATM   20  O   UNL     1       4.813  27.404  56.219  1.00  0.00    -0.265 OA
BRANCH  19  21
HETATM   21  O   UNL     1       5.475  28.870  54.575  1.00  0.00    -0.316 OA
BRANCH  21  22
HETATM   22  C   UNL     1       4.111  29.158  54.213  1.00  0.00     0.123 C 
HETATM   23  C   UNL     1       3.736  28.366  52.969  1.00  0.00     0.040 C 
HETATM   24  C   UNL     1       4.037  30.656  53.942  1.00  0.00     0.040 C 
ENDBRANCH  21  22
ENDBRANCH  19  21
ENDBRANCH   1  19
BRANCH   2  25
HETATM   25  O   UNL     1       9.078  27.889  57.109  1.00  0.00    -0.389 OA
HETATM   26  H   UNL     1       9.419  27.637  56.233  1.00  0.00     0.210 HD
ENDBRANCH   2  25
BRANCH   7  27
HETATM   27  O   UNL     1       8.629  23.257  54.383  1.00  0.00    -0.343 OA
HETATM   28  H   UNL     1       9.495  22.831  54.470  1.00  0.00     0.219 HD
ENDBRANCH   7  27
TORSDOF 6
ENDMDL
MODEL 2
REMARK VINA RESULT:      -7.4      2.784      4.836
REMARK  6 active torsions:
REMARK  status: ('A' for Active; 'I' for Inactive)
REMARK    1  A    between atoms: C_2  and  O_3 
REMARK    2  A    between atoms: O_3  and  C_4 
REMARK    3  A    between atoms: C_4  and  C_5 
REMARK    4  A    between atoms: C_6  and  O_7 
REMARK    5  A    between atoms: C_12  and  O_13 
REMARK    6  A    between atoms: C_17  and  C_18 
ROOT
HETATM    1  C   UNL     1       5.840  27.035  54.907  1.00  0.00     0.133 C 
HETATM    2  C   UNL     1       5.721  25.771  53.994  1.00  0.00     0.073 C 
HETATM    3  C   UNL     1       5.208  26.088  52.580  1.00  0.00     0.047 C 
HETATM    4  C   UNL     1       7.045  24.959  53.887  1.00  0.00     0.097 C 
HETATM    5  C   UNL     1       7.637  24.805  55.237  1.00  0.00     0.042 A 
HETATM    6  C   UNL     1       7.410  25.610  56.332  1.00  0.00     0.030 A 
HETATM    7  C   UNL     1       8.135  24.971  57.353  1.00  0.00     0.190 A 
HETATM    8  N   UNL     1       8.781  23.883  56.949  1.00  0.00    -0.149 NA
HETATM    9  N   UNL     1       8.454  23.794  55.648  1.00  0.00    -0.279 N 
HETATM   10  H   UNL     1       8.810  23.007  55.116  1.00  0.00     0.189 HD
HETATM   11  C   UNL     1       6.490  26.786  56.305  1.00  0.00     0.074 C 
ENDROOT
BRANCH  11  12
HETATM   12  C   UNL     1       7.250  27.962  56.909  1.00  0.00    -0.048 A 
HETATM   13  C   UNL     1       8.640  28.134  56.738  1.00  0.00     0.011 A 
HETATM   14  C   UNL     1       9.304  29.224  57.299  1.00  0.00     0.043 A 
HETATM   15  C   UNL     1       8.584  30.162  58.023  1.00  0.00     0.116 A 
HETATM   16  F   UNL     1       9.218  31.215  58.557  1.00  0.00    -0.206 F 
HETATM   17  C   UNL     1       7.212  30.028  58.196  1.00  0.00     0.043 A 
HETATM   18  C   UNL     1       6.545  28.934  57.639  1.00  0.00     0.011 A 
ENDBRANCH  11  12
BRANCH   1  19
HETATM   19  C   UNL     1       6.476  28.187  54.153  1.00  0.00     0.267 C 
HETATM   20  O   UNL     1       7.521  28.129  53.524  1.00  0.00    -0.265 OA
BRANCH  19  21
HETATM   21  O   UNL     1       5.667  29.282  54.245  1.00  0.00    -0.316 OA
BRANCH  21  22
HETATM   22  C   UNL     1       4.256  29.048  54.413  1.00  0.00     0.123 C 
HETATM   23  C   UNL     1       3.534  29.324  53.101  1.00  0.00     0.040 C 
HETATM   24  C   UNL     1       3.780  30.004  55.501  1.00  0.00     0.040 C 
ENDBRANCH  21  22
ENDBRANCH  19  21
ENDBRANCH   1  19
BRANCH   2  25
HETATM   25  O   UNL     1       4.729  24.900  54.586  1.00  0.00    -0.389 OA
HETATM   26  H   UNL     1       4.332  25.351  55.352  1.00  0.00     0.210 HD
ENDBRANCH   2  25
BRANCH   7  27
HETATM   27  O   UNL     1       8.264  25.295  58.641  1.00  0.00    -0.343 OA
HETATM   28  H   UNL     1       9.054  24.867  59.003  1.00  0.00     0.219 HD
ENDBRANCH   7  27
TORSDOF 6
ENDMDL
MODEL 3
REMARK VINA RESULT:      -7.4      2.223      4.874
REMARK  6 active torsions:
REMARK  status: ('A' for Active; 'I' for Inactive)
REMARK    1  A    between atoms: C_2  and  O_3 
REMARK    2  A    between atoms: O_3  and  C_4 
REMARK    3  A    between atoms: C_4  and  C_5 
REMARK    4  A    between atoms: C_6  and  O_7 
REMARK    5  A    between atoms: C_12  and  O_13 
REMARK    6  A    between atoms: C_17  and  C_18 
ROOT
HETATM    1  C   UNL     1       6.747  24.649  55.670  1.00  0.00     0.133 C 
HETATM    2  C   UNL     1       7.629  24.933  56.930  1.00  0.00     0.073 C 
HETATM    3  C   UNL     1       8.527  23.749  57.323  1.00  0.00     0.047 C 
HETATM    4  C   UNL     1       8.502  26.215  56.797  1.00  0.00     0.097 C 
HETATM    5  C   UNL     1       7.677  27.317  56.247  1.00  0.00     0.042 A 
HETATM    6  C   UNL     1       6.525  27.189  55.502  1.00  0.00     0.030 A 
HETATM    7  C   UNL     1       6.111  28.521  55.325  1.00  0.00     0.190 A 
HETATM    8  N   UNL     1       6.927  29.412  55.876  1.00  0.00    -0.149 NA
HETATM    9  N   UNL     1       7.877  28.650  56.446  1.00  0.00    -0.279 N 
HETATM   10  H   UNL     1       8.614  29.113  56.967  1.00  0.00     0.189 HD
HETATM   11  C   UNL     1       5.923  25.869  55.147  1.00  0.00     0.074 C 
ENDROOT
BRANCH  11  12
HETATM   12  C   UNL     1       5.643  25.895  53.649  1.00  0.00    -0.048 A 
HETATM   13  C   UNL     1       6.251  26.826  52.780  1.00  0.00     0.011 A 
HETATM   14  C   UNL     1       5.977  26.818  51.412  1.00  0.00     0.043 A 
HETATM   15  C   UNL     1       5.106  25.872  50.896  1.00  0.00     0.116 A 
HETATM   16  F   UNL     1       4.847  25.857  49.582  1.00  0.00    -0.206 F 
HETATM   17  C   UNL     1       4.503  24.932  51.725  1.00  0.00     0.043 A 
HETATM   18  C   UNL     1       4.772  24.940  53.095  1.00  0.00     0.011 A 
ENDBRANCH  11  12
BRANCH   1  19
HETATM   19  C   UNL     1       7.560  23.973  54.584  1.00  0.00     0.267 C 
HETATM   20  O   UNL     1       8.488  24.483  53.974  1.00  0.00    -0.265 OA
BRANCH  19  21
HETATM   21  O   UNL     1       7.125  22.688  54.435  1.00  0.00    -0.316 OA
BRANCH  21  22
HETATM   22  C   UNL     1       8.127  21.655  54.375  1.00  0.00     0.123 C 
HETATM   23  C   UNL     1       8.093  20.990  53.007  1.00  0.00     0.040 C 
HETATM   24  C   UNL     1       7.787  20.652  55.471  1.00  0.00     0.040 C 
ENDBRANCH  21  22
ENDBRANCH  19  21
ENDBRANCH   1  19
BRANCH   2  25
HETATM   25  O   UNL     1       6.734  25.137  58.048  1.00  0.00    -0.389 OA
HETATM   26  H   UNL     1       7.008  24.556  58.780  1.00  0.00     0.210 HD
ENDBRANCH   2  25
BRANCH   7  27
HETATM   27  O   UNL     1       5.040  29.006  54.695  1.00  0.00    -0.343 OA
HETATM   28  H   UNL     1       5.245  29.124  53.755  1.00  0.00     0.219 HD
ENDBRANCH   7  27
TORSDOF 6
ENDMDL
MODEL 4
REMARK VINA RESULT:      -7.4      3.459      6.208
REMARK  6 active torsions:
REMARK  status: ('A' for Active; 'I' for Inactive)
REMARK    1  A    between atoms: C_2  and  O_3 
REMARK    2  A    between atoms: O_3  and  C_4 
REMARK    3  A    between atoms: C_4  and  C_5 
REMARK    4  A    between atoms: C_6  and  O_7 
REMARK    5  A    between atoms: C_12  and  O_13 
REMARK    6  A    between atoms: C_17  and  C_18 
ROOT
HETATM    1  C   UNL     1       7.506  25.632  53.646  1.00  0.00     0.133 C 
HETATM    2  C   UNL     1       6.965  24.614  52.589  1.00  0.00     0.073 C 
HETATM    3  C   UNL     1       7.120  23.147  53.022  1.00  0.00     0.047 C 
HETATM    4  C   UNL     1       5.485  24.873  52.181  1.00  0.00     0.097 C 
HETATM    5  C   UNL     1       5.291  26.322  51.934  1.00  0.00     0.042 A 
HETATM    6  C   UNL     1       6.057  27.352  52.433  1.00  0.00     0.030 A 
HETATM    7  C   UNL     1       5.499  28.489  51.823  1.00  0.00     0.190 A 
HETATM    8  N   UNL     1       4.465  28.219  51.034  1.00  0.00    -0.149 NA
HETATM    9  N   UNL     1       4.360  26.880  51.109  1.00  0.00    -0.279 N 
HETATM   10  H   UNL     1       3.644  26.423  50.555  1.00  0.00     0.189 HD
HETATM   11  C   UNL     1       7.242  27.135  53.315  1.00  0.00     0.074 C 
ENDROOT
BRANCH  11  12
HETATM   12  C   UNL     1       7.084  28.066  54.512  1.00  0.00    -0.048 A 
HETATM   13  C   UNL     1       5.825  28.394  55.056  1.00  0.00     0.011 A 
HETATM   14  C   UNL     1       5.716  29.244  56.156  1.00  0.00     0.043 A 
HETATM   15  C   UNL     1       6.864  29.764  56.734  1.00  0.00     0.116 A 
HETATM   16  F   UNL     1       6.763  30.575  57.795  1.00  0.00    -0.206 F 
HETATM   17  C   UNL     1       8.120  29.447  56.229  1.00  0.00     0.043 A 
HETATM   18  C   UNL     1       8.232  28.599  55.125  1.00  0.00     0.011 A 
ENDBRANCH  11  12
BRANCH   1  19
HETATM   19  C   UNL     1       7.061  25.244  55.042  1.00  0.00     0.267 C 
HETATM   20  O   UNL     1       5.901  25.141  55.413  1.00  0.00    -0.265 OA
BRANCH  19  21
HETATM   21  O   UNL     1       8.162  24.978  55.803  1.00  0.00    -0.316 OA
BRANCH  21  22
HETATM   22  C   UNL     1       7.997  24.067  56.906  1.00  0.00     0.123 C 
HETATM   23  C   UNL     1       8.919  24.474  58.047  1.00  0.00     0.040 C 
HETATM   24  C   UNL     1       8.361  22.680  56.387  1.00  0.00     0.040 C 
ENDBRANCH  21  22
ENDBRANCH  19  21
ENDBRANCH   1  19
BRANCH   2  25
HETATM   25  O   UNL     1       7.771  24.759  51.396  1.00  0.00    -0.389 OA
HETATM   26  H   UNL     1       8.641  25.117  51.646  1.00  0.00     0.210 HD
ENDBRANCH   2  25
BRANCH   7  27
HETATM   27  O   UNL     1       5.852  29.772  51.922  1.00  0.00    -0.343 OA
HETATM   28  H   UNL     1       5.261  30.221  52.545  1.00  0.00     0.219 HD
ENDBRANCH   7  27
TORSDOF 6
ENDMDL
MODEL 5
REMARK VINA RESULT:      -7.2      2.759      4.703
REMARK  6 active torsions:
REMARK  status: ('A' for Active; 'I' for Inactive)
REMARK    1  A    between atoms: C_2  and  O_3 
REMARK    2  A    between atoms: O_3  and  C_4 
REMARK    3  A    between atoms: C_4  and  C_5 
REMARK    4  A    between atoms: C_6  and  O_7 
REMARK    5  A    between atoms: C_12  and  O_13 
REMARK    6  A    between atoms: C_17  and  C_18 
ROOT
HETATM    1  C   UNL     1       5.393  26.744  53.847  1.00  0.00     0.133 C 
HETATM    2  C   UNL     1       5.308  25.631  52.752  1.00  0.00     0.073 C 
HETATM    3  C   UNL     1       5.049  26.185  51.341  1.00  0.00     0.047 C 
HETATM    4  C   UNL     1       6.557  24.703  52.715  1.00  0.00     0.097 C 
HETATM    5  C   UNL     1       6.918  24.310  54.098  1.00  0.00     0.042 A 
HETATM    6  C   UNL     1       6.595  24.983  55.255  1.00  0.00     0.030 A 
HETATM    7  C   UNL     1       7.095  24.141  56.264  1.00  0.00     0.190 A 
HETATM    8  N   UNL     1       7.699  23.052  55.800  1.00  0.00    -0.149 NA
HETATM    9  N   UNL     1       7.570  23.171  54.467  1.00  0.00    -0.279 N 
HETATM   10  H   UNL     1       7.935  22.427  53.882  1.00  0.00     0.189 HD
HETATM   11  C   UNL     1       5.795  26.244  55.271  1.00  0.00     0.074 C 
ENDROOT
BRANCH  11  12
HETATM   12  C   UNL     1       6.552  27.241  56.142  1.00  0.00    -0.048 A 
HETATM   13  C   UNL     1       7.958  27.236  56.254  1.00  0.00     0.011 A 
HETATM   14  C   UNL     1       8.619  28.167  57.054  1.00  0.00     0.043 A 
HETATM   15  C   UNL     1       7.885  29.122  57.739  1.00  0.00     0.116 A 
HETATM   16  F   UNL     1       8.518  30.022  58.503  1.00  0.00    -0.206 F 
HETATM   17  C   UNL     1       6.499  29.162  57.637  1.00  0.00     0.043 A 
HETATM   18  C   UNL     1       5.834  28.228  56.839  1.00  0.00     0.011 A 
ENDBRANCH  11  12
BRANCH   1  19
HETATM   19  C   UNL     1       6.235  27.909  53.367  1.00  0.00     0.267 C 
HETATM   20  O   UNL     1       7.452  27.906  53.259  1.00  0.00    -0.265 OA
BRANCH  19  21
HETATM   21  O   UNL     1       5.413  28.943  53.026  1.00  0.00    -0.316 OA
BRANCH  21  22
HETATM   22  C   UNL     1       4.089  28.949  53.592  1.00  0.00     0.123 C 
HETATM   23  C   UNL     1       3.056  29.016  52.476  1.00  0.00     0.040 C 
HETATM   24  C   UNL     1       3.999  30.182  54.484  1.00  0.00     0.040 C 
ENDBRANCH  21  22
ENDBRANCH  19  21
ENDBRANCH   1  19
BRANCH   2  25
HETATM   25  O   UNL     1       4.165  24.801  53.064  1.00  0.00    -0.389 OA
HETATM   26  H   UNL     1       3.883  24.986  53.977  1.00  0.00     0.210 HD
ENDBRANCH   2  25
BRANCH   7  27
HETATM   27  O   UNL     1       7.051  24.277  57.590  1.00  0.00    -0.343 OA
HETATM   28  H   UNL     1       7.515  25.088  57.847  1.00  0.00     0.219 HD
ENDBRANCH   7  27
TORSDOF 6
ENDMDL
MODEL 6
REMARK VINA RESULT:      -7.0      3.345      4.929
REMARK  6 active torsions:
REMARK  status: ('A' for Active; 'I' for Inactive)
REMARK    1  A    between atoms: C_2  and  O_3 
REMARK    2  A    between atoms: O_3  and  C_4 
REMARK    3  A    between atoms: C_4  and  C_5 
REMARK    4  A    between atoms: C_6  and  O_7 
REMARK    5  A    between atoms: C_12  and  O_13 
REMARK    6  A    between atoms: C_17  and  C_18 
ROOT
HETATM    1  C   UNL     1       5.856  28.221  57.292  1.00  0.00     0.133 C 
HETATM    2  C   UNL     1       5.435  29.727  57.334  1.00  0.00     0.073 C 
HETATM    3  C   UNL     1       6.152  30.528  58.434  1.00  0.00     0.047 C 
HETATM    4  C   UNL     1       5.614  30.457  55.971  1.00  0.00     0.097 C 
HETATM    5  C   UNL     1       5.081  29.602  54.883  1.00  0.00     0.042 A 
HETATM    6  C   UNL     1       4.920  28.235  54.915  1.00  0.00     0.030 A 
HETATM    7  C   UNL     1       4.305  27.958  53.682  1.00  0.00     0.190 A 
HETATM    8  N   UNL     1       4.115  29.033  52.926  1.00  0.00    -0.149 NA
HETATM    9  N   UNL     1       4.590  30.034  53.687  1.00  0.00    -0.279 N 
HETATM   10  H   UNL     1       4.525  30.981  53.329  1.00  0.00     0.189 HD
HETATM   11  C   UNL     1       5.264  27.399  56.104  1.00  0.00     0.074 C 
ENDROOT
BRANCH  11  12
HETATM   12  C   UNL     1       6.115  26.238  55.603  1.00  0.00    -0.048 A 
HETATM   13  C   UNL     1       7.014  26.368  54.523  1.00  0.00     0.011 A 
HETATM   14  C   UNL     1       7.783  25.287  54.094  1.00  0.00     0.043 A 
HETATM   15  C   UNL     1       7.674  24.069  54.747  1.00  0.00     0.116 A 
HETATM   16  F   UNL     1       8.417  23.031  54.341  1.00  0.00    -0.206 F 
HETATM   17  C   UNL     1       6.808  23.914  55.824  1.00  0.00     0.043 A 
HETATM   18  C   UNL     1       6.034  24.994  56.253  1.00  0.00     0.011 A 
ENDBRANCH  11  12
BRANCH   1  19
HETATM   19  C   UNL     1       7.360  28.079  57.421  1.00  0.00     0.267 C 
HETATM   20  O   UNL     1       7.936  27.273  58.137  1.00  0.00    -0.265 OA
BRANCH  19  21
HETATM   21  O   UNL     1       7.966  28.957  56.571  1.00  0.00    -0.316 OA
BRANCH  21  22
HETATM   22  C   UNL     1       9.396  29.093  56.672  1.00  0.00     0.123 C 
HETATM   23  C   UNL     1       9.736  30.190  57.671  1.00  0.00     0.040 C 
HETATM   24  C   UNL     1       9.901  29.455  55.280  1.00  0.00     0.040 C 
ENDBRANCH  21  22
ENDBRANCH  19  21
ENDBRANCH   1  19
BRANCH   2  25
HETATM   25  O   UNL     1       4.028  29.775  57.666  1.00  0.00    -0.389 OA
HETATM   26  H   UNL     1       3.815  29.018  58.240  1.00  0.00     0.210 HD
ENDBRANCH   2  25
BRANCH   7  27
HETATM   27  O   UNL     1       3.896  26.794  53.173  1.00  0.00    -0.343 OA
HETATM   28  H   UNL     1       3.311  26.960  52.419  1.00  0.00     0.219 HD
ENDBRANCH   7  27
TORSDOF 6
ENDMDL
MODEL 7
REMARK VINA RESULT:      -6.8      7.878     10.733
REMARK  6 active torsions:
REMARK  status: ('A' for Active; 'I' for Inactive)
REMARK    1  A    between atoms: C_2  and  O_3 
REMARK    2  A    between atoms: O_3  and  C_4 
REMARK    3  A    between atoms: C_4  and  C_5 
REMARK    4  A    between atoms: C_6  and  O_7 
REMARK    5  A    between atoms: C_12  and  O_13 
REMARK    6  A    between atoms: C_17  and  C_18 
ROOT
HETATM    1  C   UNL     1       4.958  34.154  61.187  1.00  0.00     0.133 C 
HETATM    2  C   UNL     1       3.571  34.710  61.649  1.00  0.00     0.073 C 
HETATM    3  C   UNL     1       2.488  34.621  60.561  1.00  0.00     0.047 C 
HETATM    4  C   UNL     1       3.042  34.047  62.953  1.00  0.00     0.097 C 
HETATM    5  C   UNL     1       4.140  33.970  63.946  1.00  0.00     0.042 A 
HETATM    6  C   UNL     1       5.492  33.983  63.680  1.00  0.00     0.030 A 
HETATM    7  C   UNL     1       6.068  33.980  64.962  1.00  0.00     0.190 A 
HETATM    8  N   UNL     1       5.179  33.943  65.948  1.00  0.00    -0.149 NA
HETATM    9  N   UNL     1       4.000  33.947  65.302  1.00  0.00    -0.279 N 
HETATM   10  H   UNL     1       3.150  33.954  65.855  1.00  0.00     0.189 HD
HETATM   11  C   UNL     1       6.052  34.092  62.300  1.00  0.00     0.074 C 
ENDROOT
BRANCH  11  12
HETATM   12  C   UNL     1       7.095  32.990  62.153  1.00  0.00    -0.048 A 
HETATM   13  C   UNL     1       6.999  31.759  62.835  1.00  0.00     0.011 A 
HETATM   14  C   UNL     1       7.967  30.769  62.673  1.00  0.00     0.043 A 
HETATM   15  C   UNL     1       9.035  30.992  61.817  1.00  0.00     0.116 A 
HETATM   16  F   UNL     1       9.962  30.040  61.654  1.00  0.00    -0.206 F 
HETATM   17  C   UNL     1       9.149  32.189  61.120  1.00  0.00     0.043 A 
HETATM   18  C   UNL     1       8.183  33.184  61.283  1.00  0.00     0.011 A 
ENDBRANCH  11  12
BRANCH   1  19
HETATM   19  C   UNL     1       4.793  32.844  60.444  1.00  0.00     0.267 C 
HETATM   20  O   UNL     1       4.200  31.861  60.864  1.00  0.00    -0.265 OA
BRANCH  19  21
HETATM   21  O   UNL     1       5.365  32.954  59.210  1.00  0.00    -0.316 OA
BRANCH  21  22
HETATM   22  C   UNL     1       5.417  31.767  58.397  1.00  0.00     0.123 C 
HETATM   23  C   UNL     1       6.800  31.140  58.497  1.00  0.00     0.040 C 
HETATM   24  C   UNL     1       5.124  32.203  56.966  1.00  0.00     0.040 C 
ENDBRANCH  21  22
ENDBRANCH  19  21
ENDBRANCH   1  19
BRANCH   2  25
HETATM   25  O   UNL     1       3.739  36.121  61.921  1.00  0.00    -0.389 OA
HETATM   26  H   UNL     1       3.052  36.618  61.444  1.00  0.00     0.210 HD
ENDBRANCH   2  25
BRANCH   7  27
HETATM   27  O   UNL     1       7.353  34.007  65.321  1.00  0.00    -0.343 OA
HETATM   28  H   UNL     1       7.488  33.421  66.081  1.00  0.00     0.219 HD
ENDBRANCH   7  27
TORSDOF 6
ENDMDL
MODEL 8
REMARK VINA RESULT:      -6.7      2.255      3.261
REMARK  6 active torsions:
REMARK  status: ('A' for Active; 'I' for Inactive)
REMARK    1  A    between atoms: C_2  and  O_3 
REMARK    2  A    between atoms: O_3  and  C_4 
REMARK    3  A    between atoms: C_4  and  C_5 
REMARK    4  A    between atoms: C_6  and  O_7 
REMARK    5  A    between atoms: C_12  and  O_13 
REMARK    6  A    between atoms: C_17  and  C_18 
ROOT
HETATM    1  C   UNL     1       6.294  27.073  54.028  1.00  0.00     0.133 C 
HETATM    2  C   UNL     1       5.742  28.193  54.970  1.00  0.00     0.073 C 
HETATM    3  C   UNL     1       4.501  28.904  54.406  1.00  0.00     0.047 C 
HETATM    4  C   UNL     1       5.436  27.694  56.412  1.00  0.00     0.097 C 
HETATM    5  C   UNL     1       6.560  26.856  56.891  1.00  0.00     0.042 A 
HETATM    6  C   UNL     1       7.477  26.186  56.112  1.00  0.00     0.030 A 
HETATM    7  C   UNL     1       8.359  25.638  57.059  1.00  0.00     0.190 A 
HETATM    8  N   UNL     1       8.027  25.906  58.317  1.00  0.00    -0.149 NA
HETATM    9  N   UNL     1       6.924  26.664  58.191  1.00  0.00    -0.279 N 
HETATM   10  H   UNL     1       6.492  27.027  59.034  1.00  0.00     0.189 HD
HETATM   11  C   UNL     1       7.467  26.227  54.619  1.00  0.00     0.074 C 
ENDROOT
BRANCH  11  12
HETATM   12  C   UNL     1       7.564  24.786  54.132  1.00  0.00    -0.048 A 
HETATM   13  C   UNL     1       7.271  23.683  54.963  1.00  0.00     0.011 A 
HETATM   14  C   UNL     1       7.364  22.377  54.484  1.00  0.00     0.043 A 
HETATM   15  C   UNL     1       7.737  22.158  53.167  1.00  0.00     0.116 A 
HETATM   16  F   UNL     1       7.820  20.905  52.702  1.00  0.00    -0.206 F 
HETATM   17  C   UNL     1       8.018  23.224  52.320  1.00  0.00     0.043 A 
HETATM   18  C   UNL     1       7.929  24.534  52.798  1.00  0.00     0.011 A 
ENDBRANCH  11  12
BRANCH   1  19
HETATM   19  C   UNL     1       5.164  26.221  53.485  1.00  0.00     0.267 C 
HETATM   20  O   UNL     1       4.755  25.184  53.985  1.00  0.00    -0.265 OA
BRANCH  19  21
HETATM   21  O   UNL     1       4.642  26.826  52.378  1.00  0.00    -0.316 OA
BRANCH  21  22
HETATM   22  C   UNL     1       5.508  26.977  51.238  1.00  0.00     0.123 C 
HETATM   23  C   UNL     1       5.443  28.412  50.734  1.00  0.00     0.040 C 
HETATM   24  C   UNL     1       5.004  26.009  50.174  1.00  0.00     0.040 C 
ENDBRANCH  21  22
ENDBRANCH  19  21
ENDBRANCH   1  19
BRANCH   2  25
HETATM   25  O   UNL     1       6.764  29.212  55.076  1.00  0.00    -0.389 OA
HETATM   26  H   UNL     1       6.415  30.047  54.717  1.00  0.00     0.210 HD
ENDBRANCH   2  25
BRANCH   7  27
HETATM   27  O   UNL     1       9.457  24.901  56.879  1.00  0.00    -0.343 OA
HETATM   28  H   UNL     1      10.242  25.457  56.994  1.00  0.00     0.219 HD
ENDBRANCH   7  27
TORSDOF 6
ENDMDL
MODEL 9
REMARK VINA RESULT:      -6.6      2.460      4.463
REMARK  6 active torsions:
REMARK  status: ('A' for Active; 'I' for Inactive)
REMARK    1  A    between atoms: C_2  and  O_3 
REMARK    2  A    between atoms: O_3  and  C_4 
REMARK    3  A    between atoms: C_4  and  C_5 
REMARK    4  A    between atoms: C_6  and  O_7 
REMARK    5  A    between atoms: C_12  and  O_13 
REMARK    6  A    between atoms: C_17  and  C_18 
ROOT
HETATM    1  C   UNL     1       6.634  24.256  54.247  1.00  0.00     0.133 C 
HETATM    2  C   UNL     1       7.601  23.026  54.214  1.00  0.00     0.073 C 
HETATM    3  C   UNL     1       7.768  22.421  52.811  1.00  0.00     0.047 C 
HETATM    4  C   UNL     1       9.006  23.329  54.811  1.00  0.00     0.097 C 
HETATM    5  C   UNL     1       8.850  24.074  56.083  1.00  0.00     0.042 A 
HETATM    6  C   UNL     1       7.763  24.828  56.467  1.00  0.00     0.030 A 
HETATM    7  C   UNL     1       8.097  25.226  57.773  1.00  0.00     0.190 A 
HETATM    8  N   UNL     1       9.287  24.794  58.176  1.00  0.00    -0.149 NA
HETATM    9  N   UNL     1       9.728  24.080  57.126  1.00  0.00    -0.279 N 
HETATM   10  H   UNL     1      10.625  23.612  57.207  1.00  0.00     0.189 HD
HETATM   11  C   UNL     1       6.543  24.992  55.622  1.00  0.00     0.074 C 
ENDROOT
BRANCH  11  12
HETATM   12  C   UNL     1       6.238  26.484  55.563  1.00  0.00    -0.048 A 
HETATM   13  C   UNL     1       4.933  26.998  55.717  1.00  0.00     0.011 A 
HETATM   14  C   UNL     1       4.690  28.370  55.664  1.00  0.00     0.043 A 
HETATM   15  C   UNL     1       5.748  29.244  55.471  1.00  0.00     0.116 A 
HETATM   16  F   UNL     1       5.518  30.563  55.427  1.00  0.00    -0.206 F 
HETATM   17  C   UNL     1       7.047  28.769  55.331  1.00  0.00     0.043 A 
HETATM   18  C   UNL     1       7.293  27.395  55.380  1.00  0.00     0.011 A 
ENDBRANCH  11  12
BRANCH   1  19
HETATM   19  C   UNL     1       6.916  25.193  53.090  1.00  0.00     0.267 C 
HETATM   20  O   UNL     1       8.020  25.599  52.759  1.00  0.00    -0.265 OA
BRANCH  19  21
HETATM   21  O   UNL     1       5.746  25.468  52.444  1.00  0.00    -0.316 OA
BRANCH  21  22
HETATM   22  C   UNL     1       5.760  26.536  51.477  1.00  0.00     0.123 C 
HETATM   23  C   UNL     1       5.146  27.787  52.089  1.00  0.00     0.040 C 
HETATM   24  C   UNL     1       4.938  26.059  50.286  1.00  0.00     0.040 C 
ENDBRANCH  21  22
ENDBRANCH  19  21
ENDBRANCH   1  19
BRANCH   2  25
HETATM   25  O   UNL     1       7.005  21.985  55.024  1.00  0.00    -0.389 OA
HETATM   26  H   UNL     1       6.039  22.104  55.028  1.00  0.00     0.210 HD
ENDBRANCH   2  25
BRANCH   7  27
HETATM   27  O   UNL     1       7.405  25.962  58.645  1.00  0.00    -0.343 OA
HETATM   28  H   UNL     1       7.813  25.891  59.521  1.00  0.00     0.219 HD
ENDBRANCH   7  27
TORSDOF 6
ENDMDL
MODEL 10
REMARK VINA RESULT:      -6.5      2.972      4.990
REMARK  6 active torsions:
REMARK  status: ('A' for Active; 'I' for Inactive)
REMARK    1  A    between atoms: C_2  and  O_3 
REMARK    2  A    between atoms: O_3  and  C_4 
REMARK    3  A    between atoms: C_4  and  C_5 
REMARK    4  A    between atoms: C_6  and  O_7 
REMARK    5  A    between atoms: C_12  and  O_13 
REMARK    6  A    between atoms: C_17  and  C_18 
ROOT
HETATM    1  C   UNL     1       6.040  27.071  55.223  1.00  0.00     0.133 C 
HETATM    2  C   UNL     1       6.383  27.926  56.487  1.00  0.00     0.073 C 
HETATM    3  C   UNL     1       7.613  27.412  57.253  1.00  0.00     0.047 C 
HETATM    4  C   UNL     1       6.570  29.440  56.176  1.00  0.00     0.097 C 
HETATM    5  C   UNL     1       5.476  29.897  55.287  1.00  0.00     0.042 A 
HETATM    6  C   UNL     1       4.713  29.113  54.450  1.00  0.00     0.030 A 
HETATM    7  C   UNL     1       3.783  30.024  53.921  1.00  0.00     0.190 A 
HETATM    8  N   UNL     1       3.948  31.269  54.353  1.00  0.00    -0.149 NA
HETATM    9  N   UNL     1       4.988  31.167  55.199  1.00  0.00    -0.279 N 
HETATM   10  H   UNL     1       5.290  32.002  55.690  1.00  0.00     0.189 HD
HETATM   11  C   UNL     1       4.887  27.634  54.333  1.00  0.00     0.074 C 
ENDROOT
BRANCH  11  12
HETATM   12  C   UNL     1       4.970  27.311  52.845  1.00  0.00    -0.048 A 
HETATM   13  C   UNL     1       5.384  28.259  51.886  1.00  0.00     0.011 A 
HETATM   14  C   UNL     1       5.455  27.928  50.533  1.00  0.00     0.043 A 
HETATM   15  C   UNL     1       5.128  26.644  50.126  1.00  0.00     0.116 A 
HETATM   16  F   UNL     1       5.203  26.322  48.828  1.00  0.00    -0.206 F 
HETATM   17  C   UNL     1       4.731  25.684  51.050  1.00  0.00     0.043 A 
HETATM   18  C   UNL     1       4.655  26.014  52.405  1.00  0.00     0.011 A 
ENDBRANCH  11  12
BRANCH   1  19
HETATM   19  C   UNL     1       7.293  26.746  54.435  1.00  0.00     0.267 C 
HETATM   20  O   UNL     1       7.912  27.533  53.734  1.00  0.00    -0.265 OA
BRANCH  19  21
HETATM   21  O   UNL     1       7.650  25.451  54.676  1.00  0.00    -0.316 OA
BRANCH  21  22
HETATM   22  C   UNL     1       7.149  24.450  53.770  1.00  0.00     0.123 C 
HETATM   23  C   UNL     1       7.254  23.077  54.419  1.00  0.00     0.040 C 
HETATM   24  C   UNL     1       8.014  24.521  52.517  1.00  0.00     0.040 C 
ENDBRANCH  21  22
ENDBRANCH  19  21
ENDBRANCH   1  19
BRANCH   2  25
HETATM   25  O   UNL     1       5.271  27.809  57.404  1.00  0.00    -0.389 OA
HETATM   26  H   UNL     1       5.226  28.615  57.948  1.00  0.00     0.210 HD
ENDBRANCH   2  25
BRANCH   7  27
HETATM   27  O   UNL     1       2.781  29.820  53.064  1.00  0.00    -0.343 OA
HETATM   28  H   UNL     1       2.357  28.970  53.258  1.00  0.00     0.219 HD
ENDBRANCH   7  27
TORSDOF 6
ENDMDL
