MODEL 1
REMARK VINA RESULT:     -10.8      0.000      0.000
REMARK  9 active torsions:
REMARK  status: ('A' for Active; 'I' for Inactive)
REMARK    1  A    between atoms: C_3  and  C_4 
REMARK    2  A    between atoms: C_4  and  C_5 
REMARK    3  A    between atoms: C_5  and  N_6 
REMARK       I    between atoms: N_6  and  C_7 
REMARK    4  A    between atoms: C_7  and  C_8 
REMARK    5  A    between atoms: C_8  and  C_9 
REMARK    6  A    between atoms: C_9  and  C_10 
REMARK    7  A    between atoms: C_9  and  C_26 
REMARK    8  A    between atoms: C_14  and  C_15 
REMARK    9  A    between atoms: C_28  and  N_29 
ROOT
HETATM    1  C   UNL     1       6.385  25.283  54.405  1.00  0.00     0.062 C 
ENDROOT
BRANCH   1   2
HETATM    2  C   UNL     1       5.253  25.373  53.358  1.00  0.00     0.116 C 
BRANCH   2   3
HETATM    3  C   UNL     1       4.594  26.738  53.230  1.00  0.00     0.218 C 
HETATM    4  N   UNL     1       4.401  27.170  51.939  1.00  0.00    -0.361 N 
HETATM    5  H   UNL     1       4.669  26.567  51.170  1.00  0.00     0.162 HD
HETATM    6  O   UNL     1       4.288  27.410  54.213  1.00  0.00    -0.274 OA
BRANCH   4   7
HETATM    7  C   UNL     1       3.851  28.470  51.605  1.00  0.00     0.128 C 
BRANCH   7   8
HETATM    8  C   UNL     1       3.882  28.778  50.105  1.00  0.00     0.079 C 
BRANCH   8   9
HETATM    9  C   UNL     1       3.376  27.727  49.146  1.00  0.00     0.035 A 
HETATM   10  C   UNL     1       2.094  27.755  48.604  1.00  0.00     0.027 A 
HETATM   11  C   UNL     1       1.734  26.800  47.655  1.00  0.00     0.003 A 
HETATM   12  C   UNL     1       2.663  25.852  47.251  1.00  0.00     0.019 A 
HETATM   13  C   UNL     1       3.921  25.895  47.821  1.00  0.00     0.117 A 
HETATM   14  N   UNL     1       4.293  26.796  48.759  1.00  0.00    -0.266 NA
ENDBRANCH   8   9
ENDBRANCH   7   8
ENDBRANCH   4   7
ENDBRANCH   2   3
ENDBRANCH   1   2
BRANCH   1  15
HETATM   15  C   UNL     1       7.252  26.528  54.469  1.00  0.00    -0.021 C 
HETATM   16  C   UNL     1       7.593  27.187  55.710  1.00  0.00    -0.001 A 
HETATM   17  C   UNL     1       8.028  28.470  55.400  1.00  0.00     0.043 A 
HETATM   18  C   UNL     1       7.426  26.857  57.066  1.00  0.00     0.015 A 
HETATM   19  C   UNL     1       8.180  29.481  56.366  1.00  0.00     0.044 A 
HETATM   20  N   UNL     1       8.184  28.516  54.036  1.00  0.00    -0.365 N 
HETATM   21  C   UNL     1       7.890  29.187  57.714  1.00  0.00    -0.005 A 
HETATM   22  C   UNL     1       7.572  27.854  58.038  1.00  0.00     0.015 A 
HETATM   23  H   UNL     1       8.441  29.343  53.514  1.00  0.00     0.165 HD
HETATM   24  C   UNL     1       7.776  27.331  53.473  1.00  0.00     0.097 C 
BRANCH  21  25
HETATM   25  C   UNL     1       7.836  30.234  58.767  1.00  0.00     0.066 A 
HETATM   26  N   UNL     1       8.679  30.039  59.816  1.00  0.00    -0.260 NA
HETATM   27  C   UNL     1       8.637  30.909  60.848  1.00  0.00     0.117 A 
HETATM   28  C   UNL     1       7.783  31.991  60.903  1.00  0.00     0.019 A 
HETATM   29  C   UNL     1       6.928  32.199  59.828  1.00  0.00     0.004 A 
HETATM   30  C   UNL     1       6.955  31.316  58.748  1.00  0.00     0.032 A 
ENDBRANCH  21  25
ENDBRANCH   1  15
BRANCH   1  31
HETATM   31  C   UNL     1       7.177  23.992  54.219  1.00  0.00    -0.047 A 
HETATM   32  C   UNL     1       7.666  23.340  55.370  1.00  0.00     0.043 A 
HETATM   33  C   UNL     1       8.223  22.053  55.284  1.00  0.00     0.103 A 
HETATM   34  C   UNL     1       8.340  21.406  54.051  1.00  0.00     0.036 A 
HETATM   35  C   UNL     1       7.867  22.040  52.906  1.00  0.00     0.003 A 
HETATM   36  C   UNL     1       7.270  23.303  52.998  1.00  0.00     0.008 A 
BRANCH  33  37
HETATM   37  N   UNL     1       8.628  21.354  56.510  1.00  0.00    -0.116 N 
HETATM   38  O   UNL     1       8.287  21.846  57.596  1.00  0.00    -0.532 OA
HETATM   39  O   UNL     1       9.278  20.304  56.390  1.00  0.00    -0.532 OA
ENDBRANCH  33  37
ENDBRANCH   1  31
TORSDOF 9
ENDMDL
MODEL 2
REMARK VINA RESULT:     -10.6      3.670      9.926
REMARK  9 active torsions:
REMARK  status: ('A' for Active; 'I' for Inactive)
REMARK    1  A    between atoms: C_3  and  C_4 
REMARK    2  A    between atoms: C_4  and  C_5 
REMARK    3  A    between atoms: C_5  and  N_6 
REMARK       I    between atoms: N_6  and  C_7 
REMARK    4  A    between atoms: C_7  and  C_8 
REMARK    5  A    between atoms: C_8  and  C_9 
REMARK    6  A    between atoms: C_9  and  C_10 
REMARK    7  A    between atoms: C_9  and  C_26 
REMARK    8  A    between atoms: C_14  and  C_15 
REMARK    9  A    between atoms: C_28  and  N_29 
ROOT
HETATM    1  C   UNL     1       5.983  28.726  56.389  1.00  0.00     0.062 C 
ENDROOT
BRANCH   1   2
HETATM    2  C   UNL     1       7.437  29.148  56.077  1.00  0.00     0.116 C 
BRANCH   2   3
HETATM    3  C   UNL     1       8.340  29.312  57.290  1.00  0.00     0.218 C 
HETATM    4  N   UNL     1       9.335  30.250  57.149  1.00  0.00    -0.361 N 
HETATM    5  H   UNL     1       9.394  30.783  56.289  1.00  0.00     0.162 HD
HETATM    6  O   UNL     1       8.199  28.631  58.304  1.00  0.00    -0.274 OA
BRANCH   4   7
HETATM    7  C   UNL     1      10.339  30.508  58.163  1.00  0.00     0.128 C 
BRANCH   7   8
HETATM    8  C   UNL     1      10.143  31.842  58.891  1.00  0.00     0.079 C 
BRANCH   8   9
HETATM    9  C   UNL     1       8.987  31.970  59.854  1.00  0.00     0.035 A 
HETATM   10  C   UNL     1       9.158  32.003  61.235  1.00  0.00     0.027 A 
HETATM   11  C   UNL     1       8.050  32.216  62.054  1.00  0.00     0.003 A 
HETATM   12  C   UNL     1       6.803  32.413  61.480  1.00  0.00     0.019 A 
HETATM   13  C   UNL     1       6.712  32.384  60.102  1.00  0.00     0.117 A 
HETATM   14  N   UNL     1       7.764  32.158  59.282  1.00  0.00    -0.266 NA
ENDBRANCH   8   9
ENDBRANCH   7   8
ENDBRANCH   4   7
ENDBRANCH   2   3
ENDBRANCH   1   2
BRANCH   1  15
HETATM   15  C   UNL     1       5.444  27.666  55.445  1.00  0.00    -0.021 C 
HETATM   16  C   UNL     1       5.816  26.272  55.530  1.00  0.00    -0.001 A 
HETATM   17  C   UNL     1       5.488  25.673  54.320  1.00  0.00     0.043 A 
HETATM   18  C   UNL     1       6.538  25.513  56.468  1.00  0.00     0.015 A 
HETATM   19  C   UNL     1       5.954  24.400  53.946  1.00  0.00     0.044 A 
HETATM   20  N   UNL     1       4.731  26.582  53.622  1.00  0.00    -0.365 N 
HETATM   21  C   UNL     1       6.784  23.687  54.835  1.00  0.00    -0.005 A 
HETATM   22  C   UNL     1       7.009  24.244  56.108  1.00  0.00     0.015 A 
HETATM   23  H   UNL     1       4.391  26.443  52.680  1.00  0.00     0.165 HD
HETATM   24  C   UNL     1       4.648  27.763  54.318  1.00  0.00     0.097 C 
BRANCH  21  25
HETATM   25  C   UNL     1       7.475  22.429  54.449  1.00  0.00     0.066 A 
HETATM   26  N   UNL     1       7.957  21.695  55.487  1.00  0.00    -0.260 NA
HETATM   27  C   UNL     1       8.660  20.575  55.214  1.00  0.00     0.117 A 
HETATM   28  C   UNL     1       8.924  20.129  53.935  1.00  0.00     0.019 A 
HETATM   29  C   UNL     1       8.424  20.871  52.873  1.00  0.00     0.004 A 
HETATM   30  C   UNL     1       7.690  22.030  53.129  1.00  0.00     0.032 A 
ENDBRANCH  21  25
ENDBRANCH   1  15
BRANCH   1  31
HETATM   31  C   UNL     1       5.089  29.957  56.507  1.00  0.00    -0.047 A 
HETATM   32  C   UNL     1       4.442  30.194  57.738  1.00  0.00     0.043 A 
HETATM   33  C   UNL     1       3.773  31.406  57.976  1.00  0.00     0.103 A 
HETATM   34  C   UNL     1       3.699  32.388  56.984  1.00  0.00     0.036 A 
HETATM   35  C   UNL     1       4.328  32.165  55.763  1.00  0.00     0.003 A 
HETATM   36  C   UNL     1       5.034  30.977  55.542  1.00  0.00     0.008 A 
BRANCH  33  37
HETATM   37  N   UNL     1       3.199  31.671  59.301  1.00  0.00    -0.116 N 
HETATM   38  O   UNL     1       2.944  30.697  60.025  1.00  0.00    -0.532 OA
HETATM   39  O   UNL     1       3.013  32.853  59.625  1.00  0.00    -0.532 OA
ENDBRANCH  33  37
ENDBRANCH   1  31
TORSDOF 9
ENDMDL
MODEL 3
REMARK VINA RESULT:     -10.6      3.168      7.101
REMARK  9 active torsions:
REMARK  status: ('A' for Active; 'I' for Inactive)
REMARK    1  A    between atoms: C_3  and  C_4 
REMARK    2  A    between atoms: C_4  and  C_5 
REMARK    3  A    between atoms: C_5  and  N_6 
REMARK       I    between atoms: N_6  and  C_7 
REMARK    4  A    between atoms: C_7  and  C_8 
REMARK    5  A    between atoms: C_8  and  C_9 
REMARK    6  A    between atoms: C_9  and  C_10 
REMARK    7  A    between atoms: C_9  and  C_26 
REMARK    8  A    between atoms: C_14  and  C_15 
REMARK    9  A    between atoms: C_28  and  N_29 
ROOT
HETATM    1  C   UNL     1       6.455  29.364  55.932  1.00  0.00     0.062 C 
ENDROOT
BRANCH   1   2
HETATM    2  C   UNL     1       5.457  30.522  56.158  1.00  0.00     0.116 C 
BRANCH   2   3
HETATM    3  C   UNL     1       4.378  30.665  55.096  1.00  0.00     0.218 C 
HETATM    4  N   UNL     1       4.774  30.344  53.819  1.00  0.00    -0.361 N 
HETATM    5  H   UNL     1       5.720  30.013  53.663  1.00  0.00     0.162 HD
HETATM    6  O   UNL     1       3.247  31.065  55.365  1.00  0.00    -0.274 OA
BRANCH   4   7
HETATM    7  C   UNL     1       3.916  30.478  52.658  1.00  0.00     0.128 C 
BRANCH   7   8
HETATM    8  C   UNL     1       3.267  29.160  52.224  1.00  0.00     0.079 C 
BRANCH   8   9
HETATM    9  C   UNL     1       4.150  27.947  52.050  1.00  0.00     0.035 A 
HETATM   10  C   UNL     1       4.432  27.065  53.090  1.00  0.00     0.027 A 
HETATM   11  C   UNL     1       5.181  25.920  52.826  1.00  0.00     0.003 A 
HETATM   12  C   UNL     1       5.614  25.666  51.533  1.00  0.00     0.019 A 
HETATM   13  C   UNL     1       5.282  26.578  50.550  1.00  0.00     0.117 A 
HETATM   14  N   UNL     1       4.576  27.709  50.778  1.00  0.00    -0.266 NA
ENDBRANCH   8   9
ENDBRANCH   7   8
ENDBRANCH   4   7
ENDBRANCH   2   3
ENDBRANCH   1   2
BRANCH   1  15
HETATM   15  C   UNL     1       5.956  28.025  56.445  1.00  0.00    -0.021 C 
HETATM   16  C   UNL     1       6.651  26.781  56.207  1.00  0.00    -0.001 A 
HETATM   17  C   UNL     1       5.755  25.745  56.439  1.00  0.00     0.043 A 
HETATM   18  C   UNL     1       7.910  26.457  55.670  1.00  0.00     0.015 A 
HETATM   19  C   UNL     1       6.000  24.418  56.044  1.00  0.00     0.044 A 
HETATM   20  N   UNL     1       4.647  26.305  57.027  1.00  0.00    -0.365 N 
HETATM   21  C   UNL     1       7.212  24.112  55.390  1.00  0.00    -0.005 A 
HETATM   22  C   UNL     1       8.167  25.139  55.271  1.00  0.00     0.015 A 
HETATM   23  H   UNL     1       3.804  25.800  57.263  1.00  0.00     0.165 HD
HETATM   24  C   UNL     1       4.784  27.670  57.090  1.00  0.00     0.097 C 
BRANCH  21  25
HETATM   25  C   UNL     1       7.472  22.788  54.769  1.00  0.00     0.066 A 
HETATM   26  N   UNL     1       7.662  21.767  55.648  1.00  0.00    -0.260 NA
HETATM   27  C   UNL     1       7.975  20.547  55.163  1.00  0.00     0.117 A 
HETATM   28  C   UNL     1       8.119  20.271  53.818  1.00  0.00     0.019 A 
HETATM   29  C   UNL     1       7.916  21.308  52.918  1.00  0.00     0.004 A 
HETATM   30  C   UNL     1       7.587  22.578  53.394  1.00  0.00     0.032 A 
ENDBRANCH  21  25
ENDBRANCH   1  15
BRANCH   1  31
HETATM   31  C   UNL     1       7.837  29.746  56.456  1.00  0.00    -0.047 A 
HETATM   32  C   UNL     1       7.925  30.322  57.741  1.00  0.00     0.043 A 
HETATM   33  C   UNL     1       9.172  30.508  58.360  1.00  0.00     0.103 A 
HETATM   34  C   UNL     1      10.356  30.163  57.702  1.00  0.00     0.036 A 
HETATM   35  C   UNL     1      10.284  29.599  56.431  1.00  0.00     0.003 A 
HETATM   36  C   UNL     1       9.039  29.371  55.833  1.00  0.00     0.008 A 
BRANCH  33  37
HETATM   37  N   UNL     1       9.231  31.011  59.738  1.00  0.00    -0.116 N 
HETATM   38  O   UNL     1       9.493  32.211  59.905  1.00  0.00    -0.532 OA
HETATM   39  O   UNL     1       9.003  30.210  60.657  1.00  0.00    -0.532 OA
ENDBRANCH  33  37
ENDBRANCH   1  31
TORSDOF 9
ENDMDL
MODEL 4
REMARK VINA RESULT:     -10.6      2.181      3.839
REMARK  9 active torsions:
REMARK  status: ('A' for Active; 'I' for Inactive)
REMARK    1  A    between atoms: C_3  and  C_4 
REMARK    2  A    between atoms: C_4  and  C_5 
REMARK    3  A    between atoms: C_5  and  N_6 
REMARK       I    between atoms: N_6  and  C_7 
REMARK    4  A    between atoms: C_7  and  C_8 
REMARK    5  A    between atoms: C_8  and  C_9 
REMARK    6  A    between atoms: C_9  and  C_10 
REMARK    7  A    between atoms: C_9  and  C_26 
REMARK    8  A    between atoms: C_14  and  C_15 
REMARK    9  A    between atoms: C_28  and  N_29 
ROOT
HETATM    1  C   UNL     1       6.210  25.033  54.413  1.00  0.00     0.062 C 
ENDROOT
BRANCH   1   2
HETATM    2  C   UNL     1       5.016  25.002  53.433  1.00  0.00     0.116 C 
BRANCH   2   3
HETATM    3  C   UNL     1       4.712  26.320  52.739  1.00  0.00     0.218 C 
HETATM    4  N   UNL     1       3.887  27.168  53.440  1.00  0.00    -0.361 N 
HETATM    5  H   UNL     1       3.562  26.894  54.360  1.00  0.00     0.162 HD
HETATM    6  O   UNL     1       5.152  26.586  51.622  1.00  0.00    -0.274 OA
BRANCH   4   7
HETATM    7  C   UNL     1       3.425  28.442  52.923  1.00  0.00     0.128 C 
BRANCH   7   8
HETATM    8  C   UNL     1       4.194  29.643  53.482  1.00  0.00     0.079 C 
BRANCH   8   9
HETATM    9  C   UNL     1       3.891  30.097  54.890  1.00  0.00     0.035 A 
HETATM   10  C   UNL     1       4.278  29.374  56.015  1.00  0.00     0.027 A 
HETATM   11  C   UNL     1       4.042  29.906  57.281  1.00  0.00     0.003 A 
HETATM   12  C   UNL     1       3.446  31.153  57.400  1.00  0.00     0.019 A 
HETATM   13  C   UNL     1       3.104  31.820  56.239  1.00  0.00     0.117 A 
HETATM   14  N   UNL     1       3.300  31.321  54.998  1.00  0.00    -0.266 NA
ENDBRANCH   8   9
ENDBRANCH   7   8
ENDBRANCH   4   7
ENDBRANCH   2   3
ENDBRANCH   1   2
BRANCH   1  15
HETATM   15  C   UNL     1       6.995  26.332  54.371  1.00  0.00    -0.021 C 
HETATM   16  C   UNL     1       7.419  27.035  55.561  1.00  0.00    -0.001 A 
HETATM   17  C   UNL     1       7.733  28.337  55.193  1.00  0.00     0.043 A 
HETATM   18  C   UNL     1       7.414  26.719  56.931  1.00  0.00     0.015 A 
HETATM   19  C   UNL     1       7.917  29.373  56.126  1.00  0.00     0.044 A 
HETATM   20  N   UNL     1       7.743  28.368  53.819  1.00  0.00    -0.365 N 
HETATM   21  C   UNL     1       7.788  29.086  57.501  1.00  0.00    -0.005 A 
HETATM   22  C   UNL     1       7.595  27.742  57.872  1.00  0.00     0.015 A 
HETATM   23  H   UNL     1       7.890  29.200  53.264  1.00  0.00     0.165 HD
HETATM   24  C   UNL     1       7.359  27.149  53.316  1.00  0.00     0.097 C 
BRANCH  21  25
HETATM   25  C   UNL     1       7.774  30.147  58.541  1.00  0.00     0.066 A 
HETATM   26  N   UNL     1       8.576  29.911  59.614  1.00  0.00    -0.260 NA
HETATM   27  C   UNL     1       8.563  30.794  60.635  1.00  0.00     0.117 A 
HETATM   28  C   UNL     1       7.778  31.929  60.657  1.00  0.00     0.019 A 
HETATM   29  C   UNL     1       6.967  32.178  59.558  1.00  0.00     0.004 A 
HETATM   30  C   UNL     1       6.965  31.282  58.487  1.00  0.00     0.032 A 
ENDBRANCH  21  25
ENDBRANCH   1  15
BRANCH   1  31
HETATM   31  C   UNL     1       7.074  23.787  54.234  1.00  0.00    -0.047 A 
HETATM   32  C   UNL     1       7.385  23.024  55.378  1.00  0.00     0.043 A 
HETATM   33  C   UNL     1       8.001  21.767  55.257  1.00  0.00     0.103 A 
HETATM   34  C   UNL     1       8.353  21.262  54.003  1.00  0.00     0.036 A 
HETATM   35  C   UNL     1       8.057  22.007  52.866  1.00  0.00     0.003 A 
HETATM   36  C   UNL     1       7.403  23.238  52.983  1.00  0.00     0.008 A 
BRANCH  33  37
HETATM   37  N   UNL     1       8.218  20.946  56.455  1.00  0.00    -0.116 N 
HETATM   38  O   UNL     1       8.331  19.721  56.304  1.00  0.00    -0.532 OA
HETATM   39  O   UNL     1       8.288  21.526  57.549  1.00  0.00    -0.532 OA
ENDBRANCH  33  37
ENDBRANCH   1  31
TORSDOF 9
ENDMDL
MODEL 5
REMARK VINA RESULT:     -10.5      2.450      6.559
REMARK  9 active torsions:
REMARK  status: ('A' for Active; 'I' for Inactive)
REMARK    1  A    between atoms: C_3  and  C_4 
REMARK    2  A    between atoms: C_4  and  C_5 
REMARK    3  A    between atoms: C_5  and  N_6 
REMARK       I    between atoms: N_6  and  C_7 
REMARK    4  A    between atoms: C_7  and  C_8 
REMARK    5  A    between atoms: C_8  and  C_9 
REMARK    6  A    between atoms: C_9  and  C_10 
REMARK    7  A    between atoms: C_9  and  C_26 
REMARK    8  A    between atoms: C_14  and  C_15 
REMARK    9  A    between atoms: C_28  and  N_29 
ROOT
HETATM    1  C   UNL     1       5.869  27.104  54.132  1.00  0.00     0.062 C 
ENDROOT
BRANCH   1   2
HETATM    2  C   UNL     1       5.514  25.743  54.773  1.00  0.00     0.116 C 
BRANCH   2   3
HETATM    3  C   UNL     1       6.255  25.419  56.061  1.00  0.00     0.218 C 
HETATM    4  N   UNL     1       7.586  25.112  55.903  1.00  0.00    -0.361 N 
HETATM    5  H   UNL     1       7.995  25.145  54.976  1.00  0.00     0.162 HD
HETATM    6  O   UNL     1       5.690  25.408  57.153  1.00  0.00    -0.274 OA
BRANCH   4   7
HETATM    7  C   UNL     1       8.449  24.710  56.997  1.00  0.00     0.128 C 
BRANCH   7   8
HETATM    8  C   UNL     1       8.501  23.193  57.207  1.00  0.00     0.079 C 
BRANCH   8   9
HETATM    9  C   UNL     1       8.494  22.299  55.990  1.00  0.00     0.035 A 
HETATM   10  C   UNL     1       7.832  21.075  55.958  1.00  0.00     0.027 A 
HETATM   11  C   UNL     1       7.796  20.351  54.768  1.00  0.00     0.003 A 
HETATM   12  C   UNL     1       8.399  20.870  53.632  1.00  0.00     0.019 A 
HETATM   13  C   UNL     1       9.024  22.098  53.735  1.00  0.00     0.117 A 
HETATM   14  N   UNL     1       9.095  22.814  54.880  1.00  0.00    -0.266 NA
ENDBRANCH   8   9
ENDBRANCH   7   8
ENDBRANCH   4   7
ENDBRANCH   2   3
ENDBRANCH   1   2
BRANCH   1  15
HETATM   15  C   UNL     1       5.356  28.296  54.919  1.00  0.00    -0.021 C 
HETATM   16  C   UNL     1       6.203  29.103  55.769  1.00  0.00    -0.001 A 
HETATM   17  C   UNL     1       5.379  29.820  56.627  1.00  0.00     0.043 A 
HETATM   18  C   UNL     1       7.592  29.167  55.980  1.00  0.00     0.015 A 
HETATM   19  C   UNL     1       5.860  30.494  57.765  1.00  0.00     0.044 A 
HETATM   20  N   UNL     1       4.094  29.658  56.170  1.00  0.00    -0.365 N 
HETATM   21  C   UNL     1       7.240  30.454  58.050  1.00  0.00    -0.005 A 
HETATM   22  C   UNL     1       8.084  29.833  57.110  1.00  0.00     0.015 A 
HETATM   23  H   UNL     1       3.270  30.023  56.628  1.00  0.00     0.165 HD
HETATM   24  C   UNL     1       4.077  28.790  55.105  1.00  0.00     0.097 C 
BRANCH  21  25
HETATM   25  C   UNL     1       7.808  30.969  59.323  1.00  0.00     0.066 A 
HETATM   26  N   UNL     1       8.721  30.154  59.917  1.00  0.00    -0.260 NA
HETATM   27  C   UNL     1       9.229  30.519  61.114  1.00  0.00     0.117 A 
HETATM   28  C   UNL     1       8.873  31.676  61.777  1.00  0.00     0.019 A 
HETATM   29  C   UNL     1       7.949  32.514  61.167  1.00  0.00     0.004 A 
HETATM   30  C   UNL     1       7.413  32.162  59.928  1.00  0.00     0.032 A 
ENDBRANCH  21  25
ENDBRANCH   1  15
BRANCH   1  31
HETATM   31  C   UNL     1       5.464  27.118  52.661  1.00  0.00    -0.047 A 
HETATM   32  C   UNL     1       5.564  28.335  51.956  1.00  0.00     0.043 A 
HETATM   33  C   UNL     1       5.402  28.372  50.560  1.00  0.00     0.103 A 
HETATM   34  C   UNL     1       5.099  27.210  49.845  1.00  0.00     0.036 A 
HETATM   35  C   UNL     1       4.992  26.003  50.529  1.00  0.00     0.003 A 
HETATM   36  C   UNL     1       5.199  25.958  51.913  1.00  0.00     0.008 A 
BRANCH  33  37
HETATM   37  N   UNL     1       5.615  29.632  49.838  1.00  0.00    -0.116 N 
HETATM   38  O   UNL     1       5.096  29.751  48.718  1.00  0.00    -0.532 OA
HETATM   39  O   UNL     1       6.292  30.510  50.392  1.00  0.00    -0.532 OA
ENDBRANCH  33  37
ENDBRANCH   1  31
TORSDOF 9
ENDMDL
MODEL 6
REMARK VINA RESULT:     -10.5      2.081      8.738
REMARK  9 active torsions:
REMARK  status: ('A' for Active; 'I' for Inactive)
REMARK    1  A    between atoms: C_3  and  C_4 
REMARK    2  A    between atoms: C_4  and  C_5 
REMARK    3  A    between atoms: C_5  and  N_6 
REMARK       I    between atoms: N_6  and  C_7 
REMARK    4  A    between atoms: C_7  and  C_8 
REMARK    5  A    between atoms: C_8  and  C_9 
REMARK    6  A    between atoms: C_9  and  C_10 
REMARK    7  A    between atoms: C_9  and  C_26 
REMARK    8  A    between atoms: C_14  and  C_15 
REMARK    9  A    between atoms: C_28  and  N_29 
ROOT
HETATM    1  C   UNL     1       7.838  25.249  55.796  1.00  0.00     0.062 C 
ENDROOT
BRANCH   1   2
HETATM    2  C   UNL     1       8.287  25.993  57.073  1.00  0.00     0.116 C 
BRANCH   2   3
HETATM    3  C   UNL     1       8.272  27.511  56.979  1.00  0.00     0.218 C 
HETATM    4  N   UNL     1       7.698  28.153  58.051  1.00  0.00    -0.361 N 
HETATM    5  H   UNL     1       7.355  27.604  58.831  1.00  0.00     0.162 HD
HETATM    6  O   UNL     1       8.717  28.109  56.001  1.00  0.00    -0.274 OA
BRANCH   4   7
HETATM    7  C   UNL     1       7.526  29.591  58.123  1.00  0.00     0.128 C 
BRANCH   7   8
HETATM    8  C   UNL     1       8.738  30.323  58.708  1.00  0.00     0.079 C 
BRANCH   8   9
HETATM    9  C   UNL     1       8.599  30.971  60.065  1.00  0.00     0.035 A 
HETATM   10  C   UNL     1       7.988  32.209  60.249  1.00  0.00     0.027 A 
HETATM   11  C   UNL     1       7.816  32.698  61.542  1.00  0.00     0.003 A 
HETATM   12  C   UNL     1       8.235  31.937  62.624  1.00  0.00     0.019 A 
HETATM   13  C   UNL     1       8.817  30.711  62.365  1.00  0.00     0.117 A 
HETATM   14  N   UNL     1       9.018  30.219  61.121  1.00  0.00    -0.266 NA
ENDBRANCH   8   9
ENDBRANCH   7   8
ENDBRANCH   4   7
ENDBRANCH   2   3
ENDBRANCH   1   2
BRANCH   1  15
HETATM   15  C   UNL     1       6.499  25.722  55.258  1.00  0.00    -0.021 C 
HETATM   16  C   UNL     1       6.177  25.739  53.849  1.00  0.00    -0.001 A 
HETATM   17  C   UNL     1       5.084  26.579  53.676  1.00  0.00     0.043 A 
HETATM   18  C   UNL     1       6.813  25.237  52.700  1.00  0.00     0.015 A 
HETATM   19  C   UNL     1       4.672  27.048  52.415  1.00  0.00     0.044 A 
HETATM   20  N   UNL     1       4.604  26.866  54.930  1.00  0.00    -0.365 N 
HETATM   21  C   UNL     1       5.387  26.645  51.269  1.00  0.00    -0.005 A 
HETATM   22  C   UNL     1       6.413  25.696  51.438  1.00  0.00     0.015 A 
HETATM   23  H   UNL     1       3.840  27.501  55.121  1.00  0.00     0.165 HD
HETATM   24  C   UNL     1       5.414  26.305  55.887  1.00  0.00     0.097 C 
BRANCH  21  25
HETATM   25  C   UNL     1       5.145  27.237  49.928  1.00  0.00     0.066 A 
HETATM   26  N   UNL     1       5.463  28.555  49.814  1.00  0.00    -0.260 NA
HETATM   27  C   UNL     1       5.204  29.183  48.648  1.00  0.00     0.117 A 
HETATM   28  C   UNL     1       4.630  28.565  47.556  1.00  0.00     0.019 A 
HETATM   29  C   UNL     1       4.314  27.218  47.665  1.00  0.00     0.004 A 
HETATM   30  C   UNL     1       4.575  26.544  48.859  1.00  0.00     0.032 A 
ENDBRANCH  21  25
ENDBRANCH   1  15
BRANCH   1  31
HETATM   31  C   UNL     1       7.917  23.739  56.007  1.00  0.00    -0.047 A 
HETATM   32  C   UNL     1       7.913  22.908  54.867  1.00  0.00     0.043 A 
HETATM   33  C   UNL     1       8.185  21.534  54.980  1.00  0.00     0.103 A 
HETATM   34  C   UNL     1       8.428  20.954  56.228  1.00  0.00     0.036 A 
HETATM   35  C   UNL     1       8.429  21.762  57.362  1.00  0.00     0.003 A 
HETATM   36  C   UNL     1       8.204  23.139  57.244  1.00  0.00     0.008 A 
BRANCH  33  37
HETATM   37  N   UNL     1       8.280  20.711  53.769  1.00  0.00    -0.116 N 
HETATM   38  O   UNL     1       7.841  21.186  52.711  1.00  0.00    -0.532 OA
HETATM   39  O   UNL     1       8.804  19.591  53.869  1.00  0.00    -0.532 OA
ENDBRANCH  33  37
ENDBRANCH   1  31
TORSDOF 9
ENDMDL
MODEL 7
REMARK VINA RESULT:     -10.4      2.827      6.446
REMARK  9 active torsions:
REMARK  status: ('A' for Active; 'I' for Inactive)
REMARK    1  A    between atoms: C_3  and  C_4 
REMARK    2  A    between atoms: C_4  and  C_5 
REMARK    3  A    between atoms: C_5  and  N_6 
REMARK       I    between atoms: N_6  and  C_7 
REMARK    4  A    between atoms: C_7  and  C_8 
REMARK    5  A    between atoms: C_8  and  C_9 
REMARK    6  A    between atoms: C_9  and  C_10 
REMARK    7  A    between atoms: C_9  and  C_26 
REMARK    8  A    between atoms: C_14  and  C_15 
REMARK    9  A    between atoms: C_28  and  N_29 
ROOT
HETATM    1  C   UNL     1       5.279  28.561  53.575  1.00  0.00     0.062 C 
ENDROOT
BRANCH   1   2
HETATM    2  C   UNL     1       3.767  28.837  53.741  1.00  0.00     0.116 C 
BRANCH   2   3
HETATM    3  C   UNL     1       3.124  29.627  52.612  1.00  0.00     0.218 C 
HETATM    4  N   UNL     1       2.405  28.875  51.713  1.00  0.00    -0.361 N 
HETATM    5  H   UNL     1       2.320  27.875  51.861  1.00  0.00     0.162 HD
HETATM    6  O   UNL     1       3.266  30.843  52.504  1.00  0.00    -0.274 OA
BRANCH   4   7
HETATM    7  C   UNL     1       1.773  29.429  50.532  1.00  0.00     0.128 C 
BRANCH   7   8
HETATM    8  C   UNL     1       2.763  29.773  49.415  1.00  0.00     0.079 C 
BRANCH   8   9
HETATM    9  C   UNL     1       3.492  28.643  48.728  1.00  0.00     0.035 A 
HETATM   10  C   UNL     1       4.653  28.837  47.984  1.00  0.00     0.027 A 
HETATM   11  C   UNL     1       5.317  27.731  47.457  1.00  0.00     0.003 A 
HETATM   12  C   UNL     1       4.826  26.457  47.700  1.00  0.00     0.019 A 
HETATM   13  C   UNL     1       3.678  26.341  48.461  1.00  0.00     0.117 A 
HETATM   14  N   UNL     1       2.999  27.396  48.967  1.00  0.00    -0.266 NA
ENDBRANCH   8   9
ENDBRANCH   7   8
ENDBRANCH   4   7
ENDBRANCH   2   3
ENDBRANCH   1   2
BRANCH   1  15
HETATM   15  C   UNL     1       5.582  27.321  52.753  1.00  0.00    -0.021 C 
HETATM   16  C   UNL     1       5.762  26.011  53.339  1.00  0.00    -0.001 A 
HETATM   17  C   UNL     1       6.408  25.215  52.402  1.00  0.00     0.043 A 
HETATM   18  C   UNL     1       5.569  25.488  54.630  1.00  0.00     0.015 A 
HETATM   19  C   UNL     1       6.987  23.973  52.722  1.00  0.00     0.044 A 
HETATM   20  N   UNL     1       6.404  25.913  51.219  1.00  0.00    -0.365 N 
HETATM   21  C   UNL     1       6.905  23.503  54.049  1.00  0.00    -0.005 A 
HETATM   22  C   UNL     1       6.141  24.254  54.962  1.00  0.00     0.015 A 
HETATM   23  H   UNL     1       6.853  25.604  50.368  1.00  0.00     0.165 HD
HETATM   24  C   UNL     1       5.854  27.158  51.407  1.00  0.00     0.097 C 
BRANCH  21  25
HETATM   25  C   UNL     1       7.647  22.304  54.519  1.00  0.00     0.066 A 
HETATM   26  N   UNL     1       7.921  22.283  55.851  1.00  0.00    -0.260 NA
HETATM   27  C   UNL     1       8.655  21.262  56.343  1.00  0.00     0.117 A 
HETATM   28  C   UNL     1       9.151  20.233  55.568  1.00  0.00     0.019 A 
HETATM   29  C   UNL     1       8.864  20.247  54.210  1.00  0.00     0.004 A 
HETATM   30  C   UNL     1       8.103  21.289  53.678  1.00  0.00     0.032 A 
ENDBRANCH  21  25
ENDBRANCH   1  15
BRANCH   1  31
HETATM   31  C   UNL     1       5.973  28.582  54.934  1.00  0.00    -0.047 A 
HETATM   32  C   UNL     1       7.369  28.781  54.964  1.00  0.00     0.043 A 
HETATM   33  C   UNL     1       8.036  29.013  56.179  1.00  0.00     0.103 A 
HETATM   34  C   UNL     1       7.336  29.011  57.389  1.00  0.00     0.036 A 
HETATM   35  C   UNL     1       5.959  28.810  57.374  1.00  0.00     0.003 A 
HETATM   36  C   UNL     1       5.288  28.626  56.160  1.00  0.00     0.008 A 
BRANCH  33  37
HETATM   37  N   UNL     1       9.471  29.322  56.173  1.00  0.00    -0.116 N 
HETATM   38  O   UNL     1       9.979  29.686  55.102  1.00  0.00    -0.532 OA
HETATM   39  O   UNL     1      10.091  29.213  57.241  1.00  0.00    -0.532 OA
ENDBRANCH  33  37
ENDBRANCH   1  31
TORSDOF 9
ENDMDL
MODEL 8
REMARK VINA RESULT:     -10.3      3.752      9.550
REMARK  9 active torsions:
REMARK  status: ('A' for Active; 'I' for Inactive)
REMARK    1  A    between atoms: C_3  and  C_4 
REMARK    2  A    between atoms: C_4  and  C_5 
REMARK    3  A    between atoms: C_5  and  N_6 
REMARK       I    between atoms: N_6  and  C_7 
REMARK    4  A    between atoms: C_7  and  C_8 
REMARK    5  A    between atoms: C_8  and  C_9 
REMARK    6  A    between atoms: C_9  and  C_10 
REMARK    7  A    between atoms: C_9  and  C_26 
REMARK    8  A    between atoms: C_14  and  C_15 
REMARK    9  A    between atoms: C_28  and  N_29 
ROOT
HETATM    1  C   UNL     1       5.714  29.625  56.112  1.00  0.00     0.062 C 
ENDROOT
BRANCH   1   2
HETATM    2  C   UNL     1       4.902  29.336  57.394  1.00  0.00     0.116 C 
BRANCH   2   3
HETATM    3  C   UNL     1       3.974  30.456  57.840  1.00  0.00     0.218 C 
HETATM    4  N   UNL     1       4.333  31.074  59.015  1.00  0.00    -0.361 N 
HETATM    5  H   UNL     1       5.181  30.782  59.488  1.00  0.00     0.162 HD
HETATM    6  O   UNL     1       2.965  30.758  57.206  1.00  0.00    -0.274 OA
BRANCH   4   7
HETATM    7  C   UNL     1       3.545  32.117  59.643  1.00  0.00     0.128 C 
BRANCH   7   8
HETATM    8  C   UNL     1       4.327  33.412  59.882  1.00  0.00     0.079 C 
BRANCH   8   9
HETATM    9  C   UNL     1       5.315  33.454  61.023  1.00  0.00     0.035 A 
HETATM   10  C   UNL     1       5.363  34.500  61.940  1.00  0.00     0.027 A 
HETATM   11  C   UNL     1       6.242  34.421  63.018  1.00  0.00     0.003 A 
HETATM   12  C   UNL     1       7.037  33.295  63.173  1.00  0.00     0.019 A 
HETATM   13  C   UNL     1       6.923  32.289  62.233  1.00  0.00     0.117 A 
HETATM   14  N   UNL     1       6.096  32.346  61.164  1.00  0.00    -0.266 NA
ENDBRANCH   8   9
ENDBRANCH   7   8
ENDBRANCH   4   7
ENDBRANCH   2   3
ENDBRANCH   1   2
BRANCH   1  15
HETATM   15  C   UNL     1       5.429  28.652  54.982  1.00  0.00    -0.021 C 
HETATM   16  C   UNL     1       5.605  27.223  55.109  1.00  0.00    -0.001 A 
HETATM   17  C   UNL     1       5.656  26.688  53.828  1.00  0.00     0.043 A 
HETATM   18  C   UNL     1       5.878  26.369  56.192  1.00  0.00     0.015 A 
HETATM   19  C   UNL     1       6.090  25.377  53.563  1.00  0.00     0.044 A 
HETATM   20  N   UNL     1       5.283  27.690  52.966  1.00  0.00    -0.365 N 
HETATM   21  C   UNL     1       6.485  24.557  54.640  1.00  0.00    -0.005 A 
HETATM   22  C   UNL     1       6.313  25.061  55.942  1.00  0.00     0.015 A 
HETATM   23  H   UNL     1       5.277  27.609  51.958  1.00  0.00     0.165 HD
HETATM   24  C   UNL     1       5.085  28.860  53.658  1.00  0.00     0.097 C 
BRANCH  21  25
HETATM   25  C   UNL     1       7.135  23.235  54.441  1.00  0.00     0.066 A 
HETATM   26  N   UNL     1       7.383  22.538  55.582  1.00  0.00    -0.260 NA
HETATM   27  C   UNL     1       8.037  21.360  55.490  1.00  0.00     0.117 A 
HETATM   28  C   UNL     1       8.475  20.819  54.299  1.00  0.00     0.019 A 
HETATM   29  C   UNL     1       8.214  21.523  53.131  1.00  0.00     0.004 A 
HETATM   30  C   UNL     1       7.536  22.741  53.199  1.00  0.00     0.032 A 
ENDBRANCH  21  25
ENDBRANCH   1  15
BRANCH   1  31
HETATM   31  C   UNL     1       7.198  29.762  56.444  1.00  0.00    -0.047 A 
HETATM   32  C   UNL     1       7.551  30.361  57.672  1.00  0.00     0.043 A 
HETATM   33  C   UNL     1       8.880  30.335  58.127  1.00  0.00     0.103 A 
HETATM   34  C   UNL     1       9.888  29.751  57.355  1.00  0.00     0.036 A 
HETATM   35  C   UNL     1       9.554  29.161  56.139  1.00  0.00     0.003 A 
HETATM   36  C   UNL     1       8.223  29.146  55.707  1.00  0.00     0.008 A 
BRANCH  33  37
HETATM   37  N   UNL     1       9.204  30.870  59.455  1.00  0.00    -0.116 N 
HETATM   38  O   UNL     1       9.698  32.005  59.515  1.00  0.00    -0.532 OA
HETATM   39  O   UNL     1       8.953  30.162  60.441  1.00  0.00    -0.532 OA
ENDBRANCH  33  37
ENDBRANCH   1  31
TORSDOF 9
ENDMDL
MODEL 9
REMARK VINA RESULT:     -10.3      1.581      2.218
REMARK  9 active torsions:
REMARK  status: ('A' for Active; 'I' for Inactive)
REMARK    1  A    between atoms: C_3  and  C_4 
REMARK    2  A    between atoms: C_4  and  C_5 
REMARK    3  A    between atoms: C_5  and  N_6 
REMARK       I    between atoms: N_6  and  C_7 
REMARK    4  A    between atoms: C_7  and  C_8 
REMARK    5  A    between atoms: C_8  and  C_9 
REMARK    6  A    between atoms: C_9  and  C_10 
REMARK    7  A    between atoms: C_9  and  C_26 
REMARK    8  A    between atoms: C_14  and  C_15 
REMARK    9  A    between atoms: C_28  and  N_29 
ROOT
HETATM    1  C   UNL     1       6.318  25.146  54.448  1.00  0.00     0.062 C 
ENDROOT
BRANCH   1   2
HETATM    2  C   UNL     1       5.141  25.221  53.450  1.00  0.00     0.116 C 
BRANCH   2   3
HETATM    3  C   UNL     1       4.644  26.624  53.137  1.00  0.00     0.218 C 
HETATM    4  N   UNL     1       4.637  26.953  51.803  1.00  0.00    -0.361 N 
HETATM    5  H   UNL     1       4.924  26.259  51.121  1.00  0.00     0.162 HD
HETATM    6  O   UNL     1       4.303  27.407  54.022  1.00  0.00    -0.274 OA
BRANCH   4   7
HETATM    7  C   UNL     1       4.263  28.262  51.304  1.00  0.00     0.128 C 
BRANCH   7   8
HETATM    8  C   UNL     1       5.454  29.206  51.115  1.00  0.00     0.079 C 
BRANCH   8   9
HETATM    9  C   UNL     1       5.429  30.170  49.952  1.00  0.00     0.035 A 
HETATM   10  C   UNL     1       4.595  29.999  48.850  1.00  0.00     0.027 A 
HETATM   11  C   UNL     1       4.563  30.980  47.862  1.00  0.00     0.003 A 
HETATM   12  C   UNL     1       5.344  32.118  48.000  1.00  0.00     0.019 A 
HETATM   13  C   UNL     1       6.135  32.227  49.129  1.00  0.00     0.117 A 
HETATM   14  N   UNL     1       6.203  31.282  50.094  1.00  0.00    -0.266 NA
ENDBRANCH   8   9
ENDBRANCH   7   8
ENDBRANCH   4   7
ENDBRANCH   2   3
ENDBRANCH   1   2
BRANCH   1  15
HETATM   15  C   UNL     1       7.174  26.400  54.471  1.00  0.00    -0.021 C 
HETATM   16  C   UNL     1       7.527  27.091  55.691  1.00  0.00    -0.001 A 
HETATM   17  C   UNL     1       7.945  28.370  55.345  1.00  0.00     0.043 A 
HETATM   18  C   UNL     1       7.380  26.791  57.057  1.00  0.00     0.015 A 
HETATM   19  C   UNL     1       8.100  29.404  56.286  1.00  0.00     0.044 A 
HETATM   20  N   UNL     1       8.081  28.386  53.979  1.00  0.00    -0.365 N 
HETATM   21  C   UNL     1       7.832  29.139  57.645  1.00  0.00    -0.005 A 
HETATM   22  C   UNL     1       7.531  27.812  58.004  1.00  0.00     0.015 A 
HETATM   23  H   UNL     1       8.323  29.203  53.435  1.00  0.00     0.165 HD
HETATM   24  C   UNL     1       7.677  27.184  53.449  1.00  0.00     0.097 C 
BRANCH  21  25
HETATM   25  C   UNL     1       7.783  30.210  58.673  1.00  0.00     0.066 A 
HETATM   26  N   UNL     1       8.620  30.031  59.731  1.00  0.00    -0.260 NA
HETATM   27  C   UNL     1       8.581  30.925  60.742  1.00  0.00     0.117 A 
HETATM   28  C   UNL     1       7.736  32.015  60.770  1.00  0.00     0.019 A 
HETATM   29  C   UNL     1       6.888  32.206  59.687  1.00  0.00     0.004 A 
HETATM   30  C   UNL     1       6.911  31.299  58.626  1.00  0.00     0.032 A 
ENDBRANCH  21  25
ENDBRANCH   1  15
BRANCH   1  31
HETATM   31  C   UNL     1       7.115  23.862  54.232  1.00  0.00    -0.047 A 
HETATM   32  C   UNL     1       7.434  23.080  55.362  1.00  0.00     0.043 A 
HETATM   33  C   UNL     1       7.984  21.795  55.213  1.00  0.00     0.103 A 
HETATM   34  C   UNL     1       8.263  21.280  53.945  1.00  0.00     0.036 A 
HETATM   35  C   UNL     1       7.958  22.044  52.822  1.00  0.00     0.003 A 
HETATM   36  C   UNL     1       7.368  23.304  52.968  1.00  0.00     0.008 A 
BRANCH  33  37
HETATM   37  N   UNL     1       8.208  20.960  56.399  1.00  0.00    -0.116 N 
HETATM   38  O   UNL     1       8.272  19.732  56.238  1.00  0.00    -0.532 OA
HETATM   39  O   UNL     1       8.334  21.530  57.493  1.00  0.00    -0.532 OA
ENDBRANCH  33  37
ENDBRANCH   1  31
TORSDOF 9
ENDMDL
MODEL 10
REMARK VINA RESULT:      -9.9      4.026     10.549
REMARK  9 active torsions:
REMARK  status: ('A' for Active; 'I' for Inactive)
REMARK    1  A    between atoms: C_3  and  C_4 
REMARK    2  A    between atoms: C_4  and  C_5 
REMARK    3  A    between atoms: C_5  and  N_6 
REMARK       I    between atoms: N_6  and  C_7 
REMARK    4  A    between atoms: C_7  and  C_8 
REMARK    5  A    between atoms: C_8  and  C_9 
REMARK    6  A    between atoms: C_9  and  C_10 
REMARK    7  A    between atoms: C_9  and  C_26 
REMARK    8  A    between atoms: C_14  and  C_15 
REMARK    9  A    between atoms: C_28  and  N_29 
ROOT
HETATM    1  C   UNL     1       6.318  28.938  56.952  1.00  0.00     0.062 C 
ENDROOT
BRANCH   1   2
HETATM    2  C   UNL     1       7.747  29.363  56.544  1.00  0.00     0.116 C 
BRANCH   2   3
HETATM    3  C   UNL     1       8.696  29.638  57.700  1.00  0.00     0.218 C 
HETATM    4  N   UNL     1       8.092  30.069  58.857  1.00  0.00    -0.361 N 
HETATM    5  H   UNL     1       7.081  30.149  58.888  1.00  0.00     0.162 HD
HETATM    6  O   UNL     1       9.914  29.510  57.588  1.00  0.00    -0.274 OA
BRANCH   4   7
HETATM    7  C   UNL     1       8.826  30.448  60.049  1.00  0.00     0.128 C 
BRANCH   7   8
HETATM    8  C   UNL     1       8.791  31.953  60.334  1.00  0.00     0.079 C 
BRANCH   8   9
HETATM    9  C   UNL     1       8.023  32.437  61.541  1.00  0.00     0.035 A 
HETATM   10  C   UNL     1       8.488  32.279  62.843  1.00  0.00     0.027 A 
HETATM   11  C   UNL     1       7.765  32.834  63.897  1.00  0.00     0.003 A 
HETATM   12  C   UNL     1       6.609  33.552  63.632  1.00  0.00     0.019 A 
HETATM   13  C   UNL     1       6.217  33.682  62.313  1.00  0.00     0.117 A 
HETATM   14  N   UNL     1       6.885  33.136  61.271  1.00  0.00    -0.266 NA
ENDBRANCH   8   9
ENDBRANCH   7   8
ENDBRANCH   4   7
ENDBRANCH   2   3
ENDBRANCH   1   2
BRANCH   1  15
HETATM   15  C   UNL     1       5.709  27.898  56.028  1.00  0.00    -0.021 C 
HETATM   16  C   UNL     1       6.048  26.494  56.090  1.00  0.00    -0.001 A 
HETATM   17  C   UNL     1       5.650  25.910  54.894  1.00  0.00     0.043 A 
HETATM   18  C   UNL     1       6.790  25.711  56.992  1.00  0.00     0.015 A 
HETATM   19  C   UNL     1       6.065  24.627  54.493  1.00  0.00     0.044 A 
HETATM   20  N   UNL     1       4.887  26.842  54.234  1.00  0.00    -0.365 N 
HETATM   21  C   UNL     1       6.914  23.888  55.342  1.00  0.00    -0.005 A 
HETATM   22  C   UNL     1       7.210  24.432  56.606  1.00  0.00     0.015 A 
HETATM   23  H   UNL     1       4.502  26.718  53.307  1.00  0.00     0.165 HD
HETATM   24  C   UNL     1       4.866  28.021  54.938  1.00  0.00     0.097 C 
BRANCH  21  25
HETATM   25  C   UNL     1       7.553  22.615  54.920  1.00  0.00     0.066 A 
HETATM   26  N   UNL     1       7.600  22.412  53.575  1.00  0.00    -0.260 NA
HETATM   27  C   UNL     1       8.101  21.246  53.115  1.00  0.00     0.117 A 
HETATM   28  C   UNL     1       8.568  20.237  53.933  1.00  0.00     0.019 A 
HETATM   29  C   UNL     1       8.531  20.445  55.305  1.00  0.00     0.004 A 
HETATM   30  C   UNL     1       8.023  21.645  55.806  1.00  0.00     0.032 A 
ENDBRANCH  21  25
ENDBRANCH   1  15
BRANCH   1  31
HETATM   31  C   UNL     1       5.438  30.168  57.157  1.00  0.00    -0.047 A 
HETATM   32  C   UNL     1       5.688  31.304  56.361  1.00  0.00     0.043 A 
HETATM   33  C   UNL     1       4.794  32.389  56.357  1.00  0.00     0.103 A 
HETATM   34  C   UNL     1       3.658  32.382  57.171  1.00  0.00     0.036 A 
HETATM   35  C   UNL     1       3.402  31.268  57.966  1.00  0.00     0.003 A 
HETATM   36  C   UNL     1       4.268  30.169  57.936  1.00  0.00     0.008 A 
BRANCH  33  37
HETATM   37  N   UNL     1       5.021  33.514  55.441  1.00  0.00    -0.116 N 
HETATM   38  O   UNL     1       4.821  33.324  54.232  1.00  0.00    -0.532 OA
HETATM   39  O   UNL     1       5.389  34.593  55.929  1.00  0.00    -0.532 OA
ENDBRANCH  33  37
ENDBRANCH   1  31
TORSDOF 9
ENDMDL
