MODEL 1
REMARK VINA RESULT:      -8.5      0.000      0.000
REMARK  6 active torsions:
REMARK  status: ('A' for Active; 'I' for Inactive)
REMARK    1  A    between atoms: O_2  and  C_3 
REMARK    2  A    between atoms: C_6  and  S_7 
REMARK    3  A    between atoms: S_7  and  C_8 
REMARK    4  A    between atoms: C_11  and  N_12 
REMARK       I    between atoms: N_12  and  C_13 
REMARK    5  A    between atoms: C_13  and  C_14 
REMARK    6  A    between atoms: C_14  and  C_15 
ROOT
HETATM    1  C   UNL     1       5.953  26.865  54.582  1.00  0.00     0.005 A 
HETATM    2  C   UNL     1       5.156  27.402  55.594  1.00  0.00     0.021 A 
HETATM    3  C   UNL     1       5.613  28.473  56.372  1.00  0.00     0.031 A 
HETATM    4  C   UNL     1       6.883  29.012  56.159  1.00  0.00     0.034 A 
HETATM    5  C   UNL     1       7.678  28.477  55.138  1.00  0.00     0.031 A 
HETATM    6  C   UNL     1       7.218  27.412  54.353  1.00  0.00     0.021 A 
ENDROOT
BRANCH   4   7
HETATM    7  N   UNL     1       7.445  30.036  56.950  1.00  0.00    -0.327 N 
HETATM    8  C   UNL     1       8.131  29.896  58.144  1.00  0.00     0.227 C 
HETATM    9  O   UNL     1       8.228  28.864  58.809  1.00  0.00    -0.273 OA
HETATM   10  H   UNL     1       7.315  30.980  56.607  1.00  0.00     0.169 HD
BRANCH   8  11
HETATM   11  C   UNL     1       8.795  31.188  58.616  1.00  0.00     0.159 C 
BRANCH  11  12
HETATM   12  C   UNL     1       8.611  31.405  60.083  1.00  0.00     0.017 A 
HETATM   13  N   UNL     1       7.485  30.978  60.753  1.00  0.00    -0.369 N 
HETATM   14  H   UNL     1       6.691  30.521  60.315  1.00  0.00     0.165 HD
HETATM   15  C   UNL     1       7.600  31.282  62.083  1.00  0.00     0.088 A 
HETATM   16  C   UNL     1       8.816  31.895  62.278  1.00  0.00     0.019 A 
HETATM   17  C   UNL     1       9.456  31.972  61.018  1.00  0.00     0.027 A 
ENDBRANCH  11  12
ENDBRANCH   8  11
ENDBRANCH   4   7
BRANCH   1  18
HETATM   18  S   UNL     1       5.401  25.437  53.679  1.00  0.00    -0.091 SA
BRANCH  18  19
HETATM   19  C   UNL     1       6.647  24.203  54.005  1.00  0.00     0.005 A 
HETATM   20  C   UNL     1       6.906  23.872  55.339  1.00  0.00     0.021 A 
HETATM   21  C   UNL     1       7.818  22.862  55.660  1.00  0.00     0.038 A 
HETATM   22  C   UNL     1       8.476  22.156  54.652  1.00  0.00     0.068 A 
HETATM   23  C   UNL     1       8.234  22.488  53.320  1.00  0.00     0.038 A 
HETATM   24  C   UNL     1       7.320  23.502  53.000  1.00  0.00     0.021 A 
BRANCH  22  25
HETATM   25  O   UNL     1       9.322  21.179  55.097  1.00  0.00    -0.356 OA
HETATM   26  C   UNL     1       8.987  20.557  56.331  1.00  0.00     0.210 C 
ENDBRANCH  22  25
ENDBRANCH  18  19
ENDBRANCH   1  18
TORSDOF 6
ENDMDL
MODEL 2
REMARK VINA RESULT:      -8.5      1.217      1.655
REMARK  6 active torsions:
REMARK  status: ('A' for Active; 'I' for Inactive)
REMARK    1  A    between atoms: O_2  and  C_3 
REMARK    2  A    between atoms: C_6  and  S_7 
REMARK    3  A    between atoms: S_7  and  C_8 
REMARK    4  A    between atoms: C_11  and  N_12 
REMARK       I    between atoms: N_12  and  C_13 
REMARK    5  A    between atoms: C_13  and  C_14 
REMARK    6  A    between atoms: C_14  and  C_15 
ROOT
HETATM    1  C   UNL     1       6.454  27.374  55.113  1.00  0.00     0.005 A 
HETATM    2  C   UNL     1       6.104  27.318  56.463  1.00  0.00     0.021 A 
HETATM    3  C   UNL     1       6.807  28.065  57.416  1.00  0.00     0.031 A 
HETATM    4  C   UNL     1       7.884  28.867  57.033  1.00  0.00     0.034 A 
HETATM    5  C   UNL     1       8.228  28.928  55.676  1.00  0.00     0.031 A 
HETATM    6  C   UNL     1       7.519  28.188  54.722  1.00  0.00     0.021 A 
ENDROOT
BRANCH   4   7
HETATM    7  N   UNL     1       8.690  29.587  57.940  1.00  0.00    -0.327 N 
HETATM    8  C   UNL     1       8.405  30.804  58.535  1.00  0.00     0.227 C 
HETATM    9  O   UNL     1       7.468  31.550  58.250  1.00  0.00    -0.273 OA
HETATM   10  H   UNL     1       9.584  29.167  58.165  1.00  0.00     0.169 HD
BRANCH   8  11
HETATM   11  C   UNL     1       9.396  31.186  59.633  1.00  0.00     0.159 C 
BRANCH  11  12
HETATM   12  C   UNL     1       8.705  31.484  60.925  1.00  0.00     0.017 A 
HETATM   13  N   UNL     1       7.429  31.039  61.195  1.00  0.00    -0.369 N 
HETATM   14  H   UNL     1       6.852  30.512  60.547  1.00  0.00     0.165 HD
HETATM   15  C   UNL     1       7.063  31.432  62.455  1.00  0.00     0.088 A 
HETATM   16  C   UNL     1       8.116  32.122  63.010  1.00  0.00     0.019 A 
HETATM   17  C   UNL     1       9.153  32.155  62.047  1.00  0.00     0.027 A 
ENDBRANCH  11  12
ENDBRANCH   8  11
ENDBRANCH   4   7
BRANCH   1  18
HETATM   18  S   UNL     1       5.621  26.334  53.935  1.00  0.00    -0.091 SA
BRANCH  18  19
HETATM   19  C   UNL     1       6.509  24.790  54.009  1.00  0.00     0.005 A 
HETATM   20  C   UNL     1       7.023  24.273  52.815  1.00  0.00     0.021 A 
HETATM   21  C   UNL     1       7.791  23.105  52.815  1.00  0.00     0.038 A 
HETATM   22  C   UNL     1       8.070  22.440  54.010  1.00  0.00     0.068 A 
HETATM   23  C   UNL     1       7.551  22.941  55.203  1.00  0.00     0.038 A 
HETATM   24  C   UNL     1       6.780  24.112  55.202  1.00  0.00     0.021 A 
BRANCH  22  25
HETATM   25  O   UNL     1       8.850  21.326  53.877  1.00  0.00    -0.356 OA
HETATM   26  C   UNL     1       8.459  20.387  52.883  1.00  0.00     0.210 C 
ENDBRANCH  22  25
ENDBRANCH  18  19
ENDBRANCH   1  18
TORSDOF 6
ENDMDL
MODEL 3
REMARK VINA RESULT:      -7.9      3.253      9.583
REMARK  6 active torsions:
REMARK  status: ('A' for Active; 'I' for Inactive)
REMARK    1  A    between atoms: O_2  and  C_3 
REMARK    2  A    between atoms: C_6  and  S_7 
REMARK    3  A    between atoms: S_7  and  C_8 
REMARK    4  A    between atoms: C_11  and  N_12 
REMARK       I    between atoms: N_12  and  C_13 
REMARK    5  A    between atoms: C_13  and  C_14 
REMARK    6  A    between atoms: C_14  and  C_15 
ROOT
HETATM    1  C   UNL     1       9.075  30.129  58.120  1.00  0.00     0.005 A 
HETATM    2  C   UNL     1       7.783  29.731  58.467  1.00  0.00     0.021 A 
HETATM    3  C   UNL     1       7.152  28.679  57.790  1.00  0.00     0.031 A 
HETATM    4  C   UNL     1       7.801  28.020  56.745  1.00  0.00     0.034 A 
HETATM    5  C   UNL     1       9.102  28.415  56.405  1.00  0.00     0.031 A 
HETATM    6  C   UNL     1       9.736  29.460  57.088  1.00  0.00     0.021 A 
ENDROOT
BRANCH   4   7
HETATM    7  N   UNL     1       7.206  27.006  55.966  1.00  0.00    -0.327 N 
HETATM    8  C   UNL     1       7.353  25.637  56.112  1.00  0.00     0.227 C 
HETATM    9  O   UNL     1       8.160  25.068  56.848  1.00  0.00    -0.273 OA
HETATM   10  H   UNL     1       6.618  27.322  55.204  1.00  0.00     0.169 HD
BRANCH   8  11
HETATM   11  C   UNL     1       6.392  24.829  55.242  1.00  0.00     0.159 C 
BRANCH  11  12
HETATM   12  C   UNL     1       7.075  23.671  54.588  1.00  0.00     0.017 A 
HETATM   13  N   UNL     1       7.411  22.529  55.284  1.00  0.00    -0.369 N 
HETATM   14  H   UNL     1       7.257  22.392  56.278  1.00  0.00     0.165 HD
HETATM   15  C   UNL     1       7.996  21.629  54.433  1.00  0.00     0.088 A 
HETATM   16  C   UNL     1       8.022  22.186  53.175  1.00  0.00     0.019 A 
HETATM   17  C   UNL     1       7.441  23.473  53.271  1.00  0.00     0.027 A 
ENDBRANCH  11  12
ENDBRANCH   8  11
ENDBRANCH   4   7
BRANCH   1  18
HETATM   18  S   UNL     1       9.815  31.536  58.915  1.00  0.00    -0.091 SA
BRANCH  18  19
HETATM   19  C   UNL     1       8.744  31.869  60.302  1.00  0.00     0.005 A 
HETATM   20  C   UNL     1       9.199  31.522  61.578  1.00  0.00     0.021 A 
HETATM   21  C   UNL     1       8.440  31.823  62.713  1.00  0.00     0.038 A 
HETATM   22  C   UNL     1       7.219  32.488  62.593  1.00  0.00     0.068 A 
HETATM   23  C   UNL     1       6.752  32.826  61.324  1.00  0.00     0.038 A 
HETATM   24  C   UNL     1       7.514  32.523  60.186  1.00  0.00     0.021 A 
BRANCH  22  25
HETATM   25  O   UNL     1       6.588  32.744  63.777  1.00  0.00    -0.356 OA
HETATM   26  C   UNL     1       7.348  33.414  64.775  1.00  0.00     0.210 C 
ENDBRANCH  22  25
ENDBRANCH  18  19
ENDBRANCH   1  18
TORSDOF 6
ENDMDL
MODEL 4
REMARK VINA RESULT:      -7.4      4.756      7.928
REMARK  6 active torsions:
REMARK  status: ('A' for Active; 'I' for Inactive)
REMARK    1  A    between atoms: O_2  and  C_3 
REMARK    2  A    between atoms: C_6  and  S_7 
REMARK    3  A    between atoms: S_7  and  C_8 
REMARK    4  A    between atoms: C_11  and  N_12 
REMARK       I    between atoms: N_12  and  C_13 
REMARK    5  A    between atoms: C_13  and  C_14 
REMARK    6  A    between atoms: C_14  and  C_15 
ROOT
HETATM    1  C   UNL     1       7.007  26.029  55.673  1.00  0.00     0.005 A 
HETATM    2  C   UNL     1       7.631  27.106  55.041  1.00  0.00     0.021 A 
HETATM    3  C   UNL     1       6.998  27.783  53.991  1.00  0.00     0.031 A 
HETATM    4  C   UNL     1       5.738  27.380  53.547  1.00  0.00     0.034 A 
HETATM    5  C   UNL     1       5.110  26.304  54.188  1.00  0.00     0.031 A 
HETATM    6  C   UNL     1       5.739  25.633  55.245  1.00  0.00     0.021 A 
ENDROOT
BRANCH   4   7
HETATM    7  N   UNL     1       5.070  27.959  52.446  1.00  0.00    -0.327 N 
HETATM    8  C   UNL     1       5.054  27.504  51.139  1.00  0.00     0.227 C 
HETATM    9  O   UNL     1       5.754  26.605  50.674  1.00  0.00    -0.273 OA
HETATM   10  H   UNL     1       4.559  28.811  52.639  1.00  0.00     0.169 HD
BRANCH   8  11
HETATM   11  C   UNL     1       4.051  28.243  50.254  1.00  0.00     0.159 C 
BRANCH  11  12
HETATM   12  C   UNL     1       3.650  27.426  49.068  1.00  0.00     0.017 A 
HETATM   13  N   UNL     1       3.477  26.061  49.140  1.00  0.00    -0.369 N 
HETATM   14  H   UNL     1       3.634  25.502  49.974  1.00  0.00     0.165 HD
HETATM   15  C   UNL     1       3.085  25.583  47.919  1.00  0.00     0.088 A 
HETATM   16  C   UNL     1       2.986  26.649  47.054  1.00  0.00     0.019 A 
HETATM   17  C   UNL     1       3.341  27.812  47.777  1.00  0.00     0.027 A 
ENDBRANCH  11  12
ENDBRANCH   8  11
ENDBRANCH   4   7
BRANCH   1  18
HETATM   18  S   UNL     1       7.872  25.115  56.929  1.00  0.00    -0.091 SA
BRANCH  18  19
HETATM   19  C   UNL     1       8.115  23.502  56.207  1.00  0.00     0.005 A 
HETATM   20  C   UNL     1       8.225  23.418  54.815  1.00  0.00     0.021 A 
HETATM   21  C   UNL     1       8.490  22.195  54.193  1.00  0.00     0.038 A 
HETATM   22  C   UNL     1       8.663  21.037  54.951  1.00  0.00     0.068 A 
HETATM   23  C   UNL     1       8.542  21.108  56.338  1.00  0.00     0.038 A 
HETATM   24  C   UNL     1       8.276  22.336  56.961  1.00  0.00     0.021 A 
BRANCH  22  25
HETATM   25  O   UNL     1       8.940  19.912  54.225  1.00  0.00    -0.356 OA
HETATM   26  C   UNL     1       8.721  19.988  52.822  1.00  0.00     0.210 C 
ENDBRANCH  22  25
ENDBRANCH  18  19
ENDBRANCH   1  18
TORSDOF 6
ENDMDL
MODEL 5
REMARK VINA RESULT:      -7.3      2.127      2.846
REMARK  6 active torsions:
REMARK  status: ('A' for Active; 'I' for Inactive)
REMARK    1  A    between atoms: O_2  and  C_3 
REMARK    2  A    between atoms: C_6  and  S_7 
REMARK    3  A    between atoms: S_7  and  C_8 
REMARK    4  A    between atoms: C_11  and  N_12 
REMARK       I    between atoms: N_12  and  C_13 
REMARK    5  A    between atoms: C_13  and  C_14 
REMARK    6  A    between atoms: C_14  and  C_15 
ROOT
HETATM    1  C   UNL     1       4.402  28.711  55.076  1.00  0.00     0.005 A 
HETATM    2  C   UNL     1       5.173  28.170  56.106  1.00  0.00     0.021 A 
HETATM    3  C   UNL     1       5.352  28.868  57.307  1.00  0.00     0.031 A 
HETATM    4  C   UNL     1       4.777  30.127  57.487  1.00  0.00     0.034 A 
HETATM    5  C   UNL     1       3.997  30.664  56.455  1.00  0.00     0.031 A 
HETATM    6  C   UNL     1       3.809  29.962  55.258  1.00  0.00     0.021 A 
ENDROOT
BRANCH   4   7
HETATM    7  N   UNL     1       4.975  30.925  58.634  1.00  0.00    -0.327 N 
HETATM    8  C   UNL     1       6.065  31.727  58.921  1.00  0.00     0.227 C 
HETATM    9  O   UNL     1       7.128  31.757  58.301  1.00  0.00    -0.273 OA
HETATM   10  H   UNL     1       4.238  30.891  59.328  1.00  0.00     0.169 HD
BRANCH   8  11
HETATM   11  C   UNL     1       5.852  32.625  60.139  1.00  0.00     0.159 C 
BRANCH  11  12
HETATM   12  C   UNL     1       6.781  32.275  61.257  1.00  0.00     0.017 A 
HETATM   13  N   UNL     1       7.442  31.068  61.311  1.00  0.00    -0.369 N 
HETATM   14  H   UNL     1       7.335  30.319  60.633  1.00  0.00     0.165 HD
HETATM   15  C   UNL     1       8.243  31.033  62.422  1.00  0.00     0.088 A 
HETATM   16  C   UNL     1       8.111  32.233  63.081  1.00  0.00     0.019 A 
HETATM   17  C   UNL     1       7.190  33.019  62.348  1.00  0.00     0.027 A 
ENDBRANCH  11  12
ENDBRANCH   8  11
ENDBRANCH   4   7
BRANCH   1  18
HETATM   18  S   UNL     1       4.277  27.861  53.519  1.00  0.00    -0.091 SA
BRANCH  18  19
HETATM   19  C   UNL     1       5.578  26.643  53.580  1.00  0.00     0.005 A 
HETATM   20  C   UNL     1       5.257  25.365  54.049  1.00  0.00     0.021 A 
HETATM   21  C   UNL     1       6.213  24.345  54.053  1.00  0.00     0.038 A 
HETATM   22  C   UNL     1       7.502  24.580  53.575  1.00  0.00     0.068 A 
HETATM   23  C   UNL     1       7.835  25.855  53.118  1.00  0.00     0.038 A 
HETATM   24  C   UNL     1       6.876  26.877  53.115  1.00  0.00     0.021 A 
BRANCH  22  25
HETATM   25  O   UNL     1       8.333  23.496  53.610  1.00  0.00    -0.356 OA
HETATM   26  C   UNL     1       7.848  22.300  53.012  1.00  0.00     0.210 C 
ENDBRANCH  22  25
ENDBRANCH  18  19
ENDBRANCH   1  18
TORSDOF 6
ENDMDL
MODEL 6
REMARK VINA RESULT:      -7.3      2.948      8.717
REMARK  6 active torsions:
REMARK  status: ('A' for Active; 'I' for Inactive)
REMARK    1  A    between atoms: O_2  and  C_3 
REMARK    2  A    between atoms: C_6  and  S_7 
REMARK    3  A    between atoms: S_7  and  C_8 
REMARK    4  A    between atoms: C_11  and  N_12 
REMARK       I    between atoms: N_12  and  C_13 
REMARK    5  A    between atoms: C_13  and  C_14 
REMARK    6  A    between atoms: C_14  and  C_15 
ROOT
HETATM    1  C   UNL     1       6.145  28.280  55.959  1.00  0.00     0.005 A 
HETATM    2  C   UNL     1       5.703  27.115  56.588  1.00  0.00     0.021 A 
HETATM    3  C   UNL     1       6.185  25.861  56.192  1.00  0.00     0.031 A 
HETATM    4  C   UNL     1       7.105  25.754  55.148  1.00  0.00     0.034 A 
HETATM    5  C   UNL     1       7.554  26.925  54.524  1.00  0.00     0.031 A 
HETATM    6  C   UNL     1       7.079  28.180  54.926  1.00  0.00     0.021 A 
ENDROOT
BRANCH   4   7
HETATM    7  N   UNL     1       7.577  24.526  54.640  1.00  0.00    -0.327 N 
HETATM    8  C   UNL     1       7.094  23.826  53.547  1.00  0.00     0.227 C 
HETATM    9  O   UNL     1       6.060  24.074  52.926  1.00  0.00    -0.273 OA
HETATM   10  H   UNL     1       8.348  24.106  55.145  1.00  0.00     0.169 HD
BRANCH   8  11
HETATM   11  C   UNL     1       7.980  22.650  53.142  1.00  0.00     0.159 C 
BRANCH  11  12
HETATM   12  C   UNL     1       8.241  21.729  54.291  1.00  0.00     0.017 A 
HETATM   13  N   UNL     1       9.470  21.659  54.911  1.00  0.00    -0.369 N 
HETATM   14  H   UNL     1      10.290  22.189  54.630  1.00  0.00     0.165 HD
HETATM   15  C   UNL     1       9.413  20.759  55.942  1.00  0.00     0.088 A 
HETATM   16  C   UNL     1       8.133  20.257  55.999  1.00  0.00     0.019 A 
HETATM   17  C   UNL     1       7.393  20.868  54.960  1.00  0.00     0.027 A 
ENDBRANCH  11  12
ENDBRANCH   8  11
ENDBRANCH   4   7
BRANCH   1  18
HETATM   18  S   UNL     1       5.440  29.851  56.401  1.00  0.00    -0.091 SA
BRANCH  18  19
HETATM   19  C   UNL     1       6.414  30.393  57.794  1.00  0.00     0.005 A 
HETATM   20  C   UNL     1       7.523  29.621  58.155  1.00  0.00     0.021 A 
HETATM   21  C   UNL     1       8.370  30.030  59.190  1.00  0.00     0.038 A 
HETATM   22  C   UNL     1       8.130  31.223  59.872  1.00  0.00     0.068 A 
HETATM   23  C   UNL     1       7.020  31.992  59.527  1.00  0.00     0.038 A 
HETATM   24  C   UNL     1       6.171  31.581  58.489  1.00  0.00     0.021 A 
BRANCH  22  25
HETATM   25  O   UNL     1       9.044  31.521  60.844  1.00  0.00    -0.356 OA
HETATM   26  C   UNL     1       9.258  30.533  61.843  1.00  0.00     0.210 C 
ENDBRANCH  22  25
ENDBRANCH  18  19
ENDBRANCH   1  18
TORSDOF 6
ENDMDL
MODEL 7
REMARK VINA RESULT:      -7.2      5.134      9.401
REMARK  6 active torsions:
REMARK  status: ('A' for Active; 'I' for Inactive)
REMARK    1  A    between atoms: O_2  and  C_3 
REMARK    2  A    between atoms: C_6  and  S_7 
REMARK    3  A    between atoms: S_7  and  C_8 
REMARK    4  A    between atoms: C_11  and  N_12 
REMARK       I    between atoms: N_12  and  C_13 
REMARK    5  A    between atoms: C_13  and  C_14 
REMARK    6  A    between atoms: C_14  and  C_15 
ROOT
HETATM    1  C   UNL     1       6.568  25.373  54.569  1.00  0.00     0.005 A 
HETATM    2  C   UNL     1       5.512  24.654  54.009  1.00  0.00     0.021 A 
HETATM    3  C   UNL     1       5.141  24.850  52.673  1.00  0.00     0.031 A 
HETATM    4  C   UNL     1       5.813  25.784  51.882  1.00  0.00     0.034 A 
HETATM    5  C   UNL     1       6.879  26.499  52.444  1.00  0.00     0.031 A 
HETATM    6  C   UNL     1       7.256  26.295  53.777  1.00  0.00     0.021 A 
ENDROOT
BRANCH   4   7
HETATM    7  N   UNL     1       5.450  26.096  50.555  1.00  0.00    -0.327 N 
HETATM    8  C   UNL     1       4.680  27.161  50.121  1.00  0.00     0.227 C 
HETATM    9  O   UNL     1       4.039  27.931  50.837  1.00  0.00    -0.273 OA
HETATM   10  H   UNL     1       5.783  25.455  49.844  1.00  0.00     0.169 HD
BRANCH   8  11
HETATM   11  C   UNL     1       4.672  27.323  48.602  1.00  0.00     0.159 C 
BRANCH  11  12
HETATM   12  C   UNL     1       3.287  27.507  48.071  1.00  0.00     0.017 A 
HETATM   13  N   UNL     1       2.205  26.829  48.590  1.00  0.00    -0.369 N 
HETATM   14  H   UNL     1       2.258  26.141  49.336  1.00  0.00     0.165 HD
HETATM   15  C   UNL     1       1.066  27.211  47.933  1.00  0.00     0.088 A 
HETATM   16  C   UNL     1       1.410  28.157  46.995  1.00  0.00     0.019 A 
HETATM   17  C   UNL     1       2.811  28.345  47.081  1.00  0.00     0.027 A 
ENDBRANCH  11  12
ENDBRANCH   8  11
ENDBRANCH   4   7
BRANCH   1  18
HETATM   18  S   UNL     1       6.952  25.190  56.295  1.00  0.00    -0.091 SA
BRANCH  18  19
HETATM   19  C   UNL     1       7.027  26.863  56.908  1.00  0.00     0.005 A 
HETATM   20  C   UNL     1       8.283  27.385  57.233  1.00  0.00     0.021 A 
HETATM   21  C   UNL     1       8.419  28.713  57.648  1.00  0.00     0.038 A 
HETATM   22  C   UNL     1       7.304  29.546  57.733  1.00  0.00     0.068 A 
HETATM   23  C   UNL     1       6.046  29.031  57.423  1.00  0.00     0.038 A 
HETATM   24  C   UNL     1       5.911  27.699  57.007  1.00  0.00     0.021 A 
BRANCH  22  25
HETATM   25  O   UNL     1       7.574  30.827  58.127  1.00  0.00    -0.356 OA
HETATM   26  C   UNL     1       6.479  31.587  58.622  1.00  0.00     0.210 C 
ENDBRANCH  22  25
ENDBRANCH  18  19
ENDBRANCH   1  18
TORSDOF 6
ENDMDL
MODEL 8
REMARK VINA RESULT:      -7.1      6.141      9.193
REMARK  6 active torsions:
REMARK  status: ('A' for Active; 'I' for Inactive)
REMARK    1  A    between atoms: O_2  and  C_3 
REMARK    2  A    between atoms: C_6  and  S_7 
REMARK    3  A    between atoms: S_7  and  C_8 
REMARK    4  A    between atoms: C_11  and  N_12 
REMARK       I    between atoms: N_12  and  C_13 
REMARK    5  A    between atoms: C_13  and  C_14 
REMARK    6  A    between atoms: C_14  and  C_15 
ROOT
HETATM    1  C   UNL     1       6.283  26.675  52.489  1.00  0.00     0.005 A 
HETATM    2  C   UNL     1       5.752  25.538  51.878  1.00  0.00     0.021 A 
HETATM    3  C   UNL     1       4.853  25.654  50.810  1.00  0.00     0.031 A 
HETATM    4  C   UNL     1       4.461  26.912  50.349  1.00  0.00     0.034 A 
HETATM    5  C   UNL     1       5.002  28.051  50.959  1.00  0.00     0.031 A 
HETATM    6  C   UNL     1       5.908  27.935  52.021  1.00  0.00     0.021 A 
ENDROOT
BRANCH   4   7
HETATM    7  N   UNL     1       3.503  27.113  49.333  1.00  0.00    -0.327 N 
HETATM    8  C   UNL     1       3.667  26.921  47.972  1.00  0.00     0.227 C 
HETATM    9  O   UNL     1       4.731  26.696  47.394  1.00  0.00    -0.273 OA
HETATM   10  H   UNL     1       2.599  27.451  49.640  1.00  0.00     0.169 HD
BRANCH   8  11
HETATM   11  C   UNL     1       2.362  27.018  47.185  1.00  0.00     0.159 C 
BRANCH  11  12
HETATM   12  C   UNL     1       2.006  28.435  46.871  1.00  0.00     0.017 A 
HETATM   13  N   UNL     1       2.958  29.428  46.779  1.00  0.00    -0.369 N 
HETATM   14  H   UNL     1       3.951  29.293  46.944  1.00  0.00     0.165 HD
HETATM   15  C   UNL     1       2.354  30.613  46.454  1.00  0.00     0.088 A 
HETATM   16  C   UNL     1       1.005  30.382  46.317  1.00  0.00     0.019 A 
HETATM   17  C   UNL     1       0.784  29.009  46.578  1.00  0.00     0.027 A 
ENDBRANCH  11  12
ENDBRANCH   8  11
ENDBRANCH   4   7
BRANCH   1  18
HETATM   18  S   UNL     1       7.335  26.508  53.913  1.00  0.00    -0.091 SA
BRANCH  18  19
HETATM   19  C   UNL     1       7.604  24.750  54.055  1.00  0.00     0.005 A 
HETATM   20  C   UNL     1       7.221  24.125  55.246  1.00  0.00     0.021 A 
HETATM   21  C   UNL     1       7.337  22.739  55.394  1.00  0.00     0.038 A 
HETATM   22  C   UNL     1       7.825  21.954  54.349  1.00  0.00     0.068 A 
HETATM   23  C   UNL     1       8.220  22.570  53.163  1.00  0.00     0.038 A 
HETATM   24  C   UNL     1       8.104  23.960  53.016  1.00  0.00     0.021 A 
BRANCH  22  25
HETATM   25  O   UNL     1       7.865  20.613  54.611  1.00  0.00    -0.356 OA
HETATM   26  C   UNL     1       8.643  20.204  55.729  1.00  0.00     0.210 C 
ENDBRANCH  22  25
ENDBRANCH  18  19
ENDBRANCH   1  18
TORSDOF 6
ENDMDL
MODEL 9
REMARK VINA RESULT:      -7.0      2.442      3.016
REMARK  6 active torsions:
REMARK  status: ('A' for Active; 'I' for Inactive)
REMARK    1  A    between atoms: O_2  and  C_3 
REMARK    2  A    between atoms: C_6  and  S_7 
REMARK    3  A    between atoms: S_7  and  C_8 
REMARK    4  A    between atoms: C_11  and  N_12 
REMARK       I    between atoms: N_12  and  C_13 
REMARK    5  A    between atoms: C_13  and  C_14 
REMARK    6  A    between atoms: C_14  and  C_15 
ROOT
HETATM    1  C   UNL     1       6.642  27.093  54.080  1.00  0.00     0.005 A 
HETATM    2  C   UNL     1       5.260  27.262  53.980  1.00  0.00     0.021 A 
HETATM    3  C   UNL     1       4.552  27.965  54.962  1.00  0.00     0.031 A 
HETATM    4  C   UNL     1       5.216  28.496  56.069  1.00  0.00     0.034 A 
HETATM    5  C   UNL     1       6.604  28.332  56.164  1.00  0.00     0.031 A 
HETATM    6  C   UNL     1       7.314  27.637  55.176  1.00  0.00     0.021 A 
ENDROOT
BRANCH   4   7
HETATM    7  N   UNL     1       4.565  29.147  57.138  1.00  0.00    -0.327 N 
HETATM    8  C   UNL     1       4.436  30.511  57.338  1.00  0.00     0.227 C 
HETATM    9  O   UNL     1       5.009  31.395  56.702  1.00  0.00    -0.273 OA
HETATM   10  H   UNL     1       4.162  28.543  57.844  1.00  0.00     0.169 HD
BRANCH   8  11
HETATM   11  C   UNL     1       3.481  30.868  58.476  1.00  0.00     0.159 C 
BRANCH  11  12
HETATM   12  C   UNL     1       4.071  31.885  59.399  1.00  0.00     0.017 A 
HETATM   13  N   UNL     1       5.413  31.903  59.709  1.00  0.00    -0.369 N 
HETATM   14  H   UNL     1       6.093  31.227  59.373  1.00  0.00     0.165 HD
HETATM   15  C   UNL     1       5.676  32.953  60.549  1.00  0.00     0.088 A 
HETATM   16  C   UNL     1       4.498  33.629  60.768  1.00  0.00     0.019 A 
HETATM   17  C   UNL     1       3.485  32.958  60.043  1.00  0.00     0.027 A 
ENDBRANCH  11  12
ENDBRANCH   8  11
ENDBRANCH   4   7
BRANCH   1  18
HETATM   18  S   UNL     1       7.506  26.104  52.881  1.00  0.00    -0.091 SA
BRANCH  18  19
HETATM   19  C   UNL     1       7.514  24.467  53.588  1.00  0.00     0.005 A 
HETATM   20  C   UNL     1       7.850  23.396  52.754  1.00  0.00     0.021 A 
HETATM   21  C   UNL     1       7.947  22.097  53.264  1.00  0.00     0.038 A 
HETATM   22  C   UNL     1       7.722  21.849  54.618  1.00  0.00     0.068 A 
HETATM   23  C   UNL     1       7.374  22.908  55.454  1.00  0.00     0.038 A 
HETATM   24  C   UNL     1       7.277  24.210  54.942  1.00  0.00     0.021 A 
BRANCH  22  25
HETATM   25  O   UNL     1       7.871  20.543  54.993  1.00  0.00    -0.356 OA
HETATM   26  C   UNL     1       9.104  20.192  55.608  1.00  0.00     0.210 C 
ENDBRANCH  22  25
ENDBRANCH  18  19
ENDBRANCH   1  18
TORSDOF 6
ENDMDL
MODEL 10
REMARK VINA RESULT:      -6.9      4.057      6.225
REMARK  6 active torsions:
REMARK  status: ('A' for Active; 'I' for Inactive)
REMARK    1  A    between atoms: O_2  and  C_3 
REMARK    2  A    between atoms: C_6  and  S_7 
REMARK    3  A    between atoms: S_7  and  C_8 
REMARK    4  A    between atoms: C_11  and  N_12 
REMARK       I    between atoms: N_12  and  C_13 
REMARK    5  A    between atoms: C_13  and  C_14 
REMARK    6  A    between atoms: C_14  and  C_15 
ROOT
HETATM    1  C   UNL     1       7.902  31.191  59.037  1.00  0.00     0.005 A 
HETATM    2  C   UNL     1       6.635  31.239  58.452  1.00  0.00     0.021 A 
HETATM    3  C   UNL     1       5.595  31.955  59.056  1.00  0.00     0.031 A 
HETATM    4  C   UNL     1       5.803  32.620  60.265  1.00  0.00     0.034 A 
HETATM    5  C   UNL     1       7.077  32.578  60.846  1.00  0.00     0.031 A 
HETATM    6  C   UNL     1       8.121  31.869  60.237  1.00  0.00     0.021 A 
ENDROOT
BRANCH   4   7
HETATM    7  N   UNL     1       4.789  33.297  60.975  1.00  0.00    -0.327 N 
HETATM    8  C   UNL     1       4.089  32.842  62.080  1.00  0.00     0.227 C 
HETATM    9  O   UNL     1       4.116  31.699  62.536  1.00  0.00    -0.273 OA
HETATM   10  H   UNL     1       4.539  34.213  60.623  1.00  0.00     0.169 HD
BRANCH   8  11
HETATM   11  C   UNL     1       3.221  33.917  62.731  1.00  0.00     0.159 C 
BRANCH  11  12
HETATM   12  C   UNL     1       3.742  34.312  64.076  1.00  0.00     0.017 A 
HETATM   13  N   UNL     1       4.280  33.395  64.953  1.00  0.00    -0.369 N 
HETATM   14  H   UNL     1       4.338  32.396  64.780  1.00  0.00     0.165 HD
HETATM   15  C   UNL     1       4.699  34.038  66.087  1.00  0.00     0.088 A 
HETATM   16  C   UNL     1       4.447  35.382  65.936  1.00  0.00     0.019 A 
HETATM   17  C   UNL     1       3.844  35.557  64.667  1.00  0.00     0.027 A 
ENDBRANCH  11  12
ENDBRANCH   8  11
ENDBRANCH   4   7
BRANCH   1  18
HETATM   18  S   UNL     1       9.178  30.186  58.312  1.00  0.00    -0.091 SA
BRANCH  18  19
HETATM   19  C   UNL     1       8.292  29.024  57.289  1.00  0.00     0.005 A 
HETATM   20  C   UNL     1       8.326  29.214  55.904  1.00  0.00     0.021 A 
HETATM   21  C   UNL     1       7.714  28.298  55.043  1.00  0.00     0.038 A 
HETATM   22  C   UNL     1       7.070  27.170  55.550  1.00  0.00     0.068 A 
HETATM   23  C   UNL     1       7.021  26.979  56.930  1.00  0.00     0.038 A 
HETATM   24  C   UNL     1       7.633  27.899  57.793  1.00  0.00     0.021 A 
BRANCH  22  25
HETATM   25  O   UNL     1       6.535  26.342  54.604  1.00  0.00    -0.356 OA
HETATM   26  C   UNL     1       6.658  24.944  54.835  1.00  0.00     0.210 C 
ENDBRANCH  22  25
ENDBRANCH  18  19
ENDBRANCH   1  18
TORSDOF 6
ENDMDL
