MODEL 1
REMARK VINA RESULT:      -8.9      0.000      0.000
REMARK  3 active torsions:
REMARK  status: ('A' for Active; 'I' for Inactive)
REMARK    1  A    between atoms: C_3  and  N_4 
REMARK       I    between atoms: N_4  and  C_5 
REMARK    2  A    between atoms: C_5  and  C_6 
REMARK    3  A    between atoms: C_6  and  C_7 
ROOT
HETATM    1  C   UNL     1       7.270  28.674  55.608  1.00  0.00     0.286 C 
HETATM    2  N   UNL     1       8.390  27.956  56.362  1.00  0.00    -0.056 N 
HETATM    3  H   UNL     1       7.910  27.227  56.931  1.00  0.00     0.278 HD
HETATM    4  H   UNL     1       9.013  27.454  55.719  1.00  0.00     0.278 HD
HETATM    5  C   UNL     1       9.161  28.800  57.333  1.00  0.00     0.209 C 
HETATM    6  C   UNL     1       8.171  29.511  58.286  1.00  0.00     0.115 C 
HETATM    7  N   UNL     1       7.113  30.216  57.564  1.00  0.00    -0.353 N 
HETATM    8  C   UNL     1       6.480  29.687  56.467  1.00  0.00     0.249 C 
HETATM    9  O   UNL     1       5.368  30.091  56.144  1.00  0.00    -0.271 OA
HETATM   10  C   UNL     1      10.075  29.773  56.586  1.00  0.00     0.035 C 
HETATM   11  C   UNL     1      10.814  30.678  57.570  1.00  0.00     0.002 C 
HETATM   12  C   UNL     1       9.847  31.416  58.494  1.00  0.00     0.002 C 
HETATM   13  C   UNL     1       8.918  30.454  59.235  1.00  0.00     0.027 C 
HETATM   14  H   UNL     1       6.502  30.830  58.099  1.00  0.00     0.163 HD
ENDROOT
BRANCH   1  15
HETATM   15  C   UNL     1       6.314  27.654  54.966  1.00  0.00     0.146 C 
BRANCH  15  16
HETATM   16  C   UNL     1       7.111  26.527  54.344  1.00  0.00     0.224 C 
HETATM   17  N   UNL     1       6.811  25.281  54.839  1.00  0.00    -0.327 N 
HETATM   18  H   UNL     1       6.002  25.187  55.439  1.00  0.00     0.169 HD
HETATM   19  O   UNL     1       7.864  26.788  53.403  1.00  0.00    -0.273 OA
BRANCH  17  20
HETATM   20  C   UNL     1       7.476  24.073  54.512  1.00  0.00     0.040 A 
HETATM   21  C   UNL     1       8.438  23.553  55.403  1.00  0.00    -0.035 A 
HETATM   22  C   UNL     1       8.753  24.196  56.726  1.00  0.00     0.050 C 
HETATM   23  C   UNL     1       9.131  22.380  55.055  1.00  0.00     0.009 A 
HETATM   24  C   UNL     1       8.878  21.727  53.849  1.00  0.00     0.001 A 
HETATM   25  C   UNL     1       7.930  22.240  52.974  1.00  0.00     0.002 A 
HETATM   26  C   UNL     1       7.234  23.404  53.303  1.00  0.00     0.030 A 
ENDBRANCH  17  20
ENDBRANCH  15  16
ENDBRANCH   1  15
TORSDOF 3
ENDMDL
MODEL 2
REMARK VINA RESULT:      -8.8      3.101      4.132
REMARK  3 active torsions:
REMARK  status: ('A' for Active; 'I' for Inactive)
REMARK    1  A    between atoms: C_3  and  N_4 
REMARK       I    between atoms: N_4  and  C_5 
REMARK    2  A    between atoms: C_5  and  C_6 
REMARK    3  A    between atoms: C_6  and  C_7 
ROOT
HETATM    1  C   UNL     1       6.572  26.382  56.251  1.00  0.00     0.286 C 
HETATM    2  N   UNL     1       7.152  27.744  55.872  1.00  0.00    -0.056 N 
HETATM    3  H   UNL     1       7.393  28.199  56.778  1.00  0.00     0.278 HD
HETATM    4  H   UNL     1       8.034  27.647  55.356  1.00  0.00     0.278 HD
HETATM    5  C   UNL     1       6.207  28.679  55.178  1.00  0.00     0.209 C 
HETATM    6  C   UNL     1       4.910  28.803  56.013  1.00  0.00     0.115 C 
HETATM    7  N   UNL     1       4.343  27.499  56.356  1.00  0.00    -0.353 N 
HETATM    8  C   UNL     1       5.113  26.435  56.756  1.00  0.00     0.249 C 
HETATM    9  O   UNL     1       4.612  25.524  57.406  1.00  0.00    -0.271 OA
HETATM   10  C   UNL     1       5.952  28.214  53.744  1.00  0.00     0.035 C 
HETATM   11  C   UNL     1       4.940  29.127  53.055  1.00  0.00     0.002 C 
HETATM   12  C   UNL     1       3.639  29.229  53.849  1.00  0.00     0.002 C 
HETATM   13  C   UNL     1       3.883  29.680  55.289  1.00  0.00     0.027 C 
HETATM   14  H   UNL     1       3.417  27.481  56.778  1.00  0.00     0.163 HD
ENDROOT
BRANCH   1  15
HETATM   15  C   UNL     1       7.473  25.683  57.285  1.00  0.00     0.146 C 
BRANCH  15  16
HETATM   16  C   UNL     1       8.121  24.466  56.660  1.00  0.00     0.224 C 
HETATM   17  N   UNL     1       7.396  23.898  55.641  1.00  0.00    -0.327 N 
HETATM   18  H   UNL     1       6.595  24.404  55.286  1.00  0.00     0.169 HD
HETATM   19  O   UNL     1       9.256  24.151  57.026  1.00  0.00    -0.273 OA
BRANCH  17  20
HETATM   20  C   UNL     1       7.716  22.697  54.960  1.00  0.00     0.040 A 
HETATM   21  C   UNL     1       7.944  22.734  53.569  1.00  0.00    -0.035 A 
HETATM   22  C   UNL     1       7.922  24.012  52.774  1.00  0.00     0.050 C 
HETATM   23  C   UNL     1       8.215  21.535  52.886  1.00  0.00     0.009 A 
HETATM   24  C   UNL     1       8.264  20.318  53.564  1.00  0.00     0.001 A 
HETATM   25  C   UNL     1       8.039  20.284  54.934  1.00  0.00     0.002 A 
HETATM   26  C   UNL     1       7.768  21.465  55.627  1.00  0.00     0.030 A 
ENDBRANCH  17  20
ENDBRANCH  15  16
ENDBRANCH   1  15
TORSDOF 3
ENDMDL
MODEL 3
REMARK VINA RESULT:      -8.7      1.658      7.233
REMARK  3 active torsions:
REMARK  status: ('A' for Active; 'I' for Inactive)
REMARK    1  A    between atoms: C_3  and  N_4 
REMARK       I    between atoms: N_4  and  C_5 
REMARK    2  A    between atoms: C_5  and  C_6 
REMARK    3  A    between atoms: C_6  and  C_7 
ROOT
HETATM    1  C   UNL     1       6.823  26.256  56.082  1.00  0.00     0.286 C 
HETATM    2  N   UNL     1       5.864  25.534  55.136  1.00  0.00    -0.056 N 
HETATM    3  H   UNL     1       5.096  25.182  55.746  1.00  0.00     0.278 HD
HETATM    4  H   UNL     1       5.428  26.185  54.473  1.00  0.00     0.278 HD
HETATM    5  C   UNL     1       6.426  24.330  54.440  1.00  0.00     0.209 C 
HETATM    6  C   UNL     1       7.045  23.378  55.491  1.00  0.00     0.115 C 
HETATM    7  N   UNL     1       7.980  24.065  56.381  1.00  0.00    -0.353 N 
HETATM    8  C   UNL     1       7.734  25.313  56.898  1.00  0.00     0.249 C 
HETATM    9  O   UNL     1       8.306  25.678  57.920  1.00  0.00    -0.271 OA
HETATM   10  C   UNL     1       7.420  24.755  53.359  1.00  0.00     0.035 C 
HETATM   11  C   UNL     1       8.043  23.530  52.691  1.00  0.00     0.002 C 
HETATM   12  C   UNL     1       8.692  22.599  53.713  1.00  0.00     0.002 C 
HETATM   13  C   UNL     1       7.710  22.179  54.807  1.00  0.00     0.027 C 
HETATM   14  H   UNL     1       8.543  23.495  57.009  1.00  0.00     0.163 HD
ENDROOT
BRANCH   1  15
HETATM   15  C   UNL     1       6.047  27.197  57.019  1.00  0.00     0.146 C 
BRANCH  15  16
HETATM   16  C   UNL     1       6.743  28.540  57.089  1.00  0.00     0.224 C 
HETATM   17  N   UNL     1       7.663  28.649  58.103  1.00  0.00    -0.327 N 
HETATM   18  H   UNL     1       7.920  27.810  58.607  1.00  0.00     0.169 HD
HETATM   19  O   UNL     1       6.517  29.366  56.202  1.00  0.00    -0.273 OA
BRANCH  17  20
HETATM   20  C   UNL     1       8.375  29.822  58.458  1.00  0.00     0.040 A 
HETATM   21  C   UNL     1       9.616  30.087  57.844  1.00  0.00    -0.035 A 
HETATM   22  C   UNL     1      10.199  29.205  56.773  1.00  0.00     0.050 C 
HETATM   23  C   UNL     1      10.344  31.226  58.233  1.00  0.00     0.009 A 
HETATM   24  C   UNL     1       9.855  32.092  59.209  1.00  0.00     0.001 A 
HETATM   25  C   UNL     1       8.632  31.829  59.813  1.00  0.00     0.002 A 
HETATM   26  C   UNL     1       7.897  30.702  59.439  1.00  0.00     0.030 A 
ENDBRANCH  17  20
ENDBRANCH  15  16
ENDBRANCH   1  15
TORSDOF 3
ENDMDL
MODEL 4
REMARK VINA RESULT:      -8.6      4.709      7.107
REMARK  3 active torsions:
REMARK  status: ('A' for Active; 'I' for Inactive)
REMARK    1  A    between atoms: C_3  and  N_4 
REMARK       I    between atoms: N_4  and  C_5 
REMARK    2  A    between atoms: C_5  and  C_6 
REMARK    3  A    between atoms: C_6  and  C_7 
ROOT
HETATM    1  C   UNL     1       5.120  26.307  51.014  1.00  0.00     0.286 C 
HETATM    2  N   UNL     1       5.459  26.476  49.533  1.00  0.00    -0.056 N 
HETATM    3  H   UNL     1       6.258  27.144  49.512  1.00  0.00     0.278 HD
HETATM    4  H   UNL     1       5.807  25.600  49.125  1.00  0.00     0.278 HD
HETATM    5  C   UNL     1       4.383  27.091  48.689  1.00  0.00     0.209 C 
HETATM    6  C   UNL     1       3.918  28.415  49.340  1.00  0.00     0.115 C 
HETATM    7  N   UNL     1       3.572  28.248  50.751  1.00  0.00    -0.353 N 
HETATM    8  C   UNL     1       4.316  27.482  51.614  1.00  0.00     0.249 C 
HETATM    9  O   UNL     1       4.251  27.680  52.823  1.00  0.00    -0.271 OA
HETATM   10  C   UNL     1       3.240  26.097  48.474  1.00  0.00     0.035 C 
HETATM   11  C   UNL     1       2.113  26.741  47.668  1.00  0.00     0.002 C 
HETATM   12  C   UNL     1       1.618  28.030  48.321  1.00  0.00     0.002 C 
HETATM   13  C   UNL     1       2.755  29.025  48.553  1.00  0.00     0.027 C 
HETATM   14  H   UNL     1       3.121  29.028  51.225  1.00  0.00     0.163 HD
ENDROOT
BRANCH   1  15
HETATM   15  C   UNL     1       6.398  26.057  51.833  1.00  0.00     0.146 C 
BRANCH  15  16
HETATM   16  C   UNL     1       6.260  24.768  52.615  1.00  0.00     0.224 C 
HETATM   17  N   UNL     1       7.454  24.201  52.989  1.00  0.00    -0.327 N 
HETATM   18  H   UNL     1       8.300  24.744  52.864  1.00  0.00     0.169 HD
HETATM   19  O   UNL     1       5.130  24.393  52.938  1.00  0.00    -0.273 OA
BRANCH  17  20
HETATM   20  C   UNL     1       7.617  22.949  53.633  1.00  0.00     0.040 A 
HETATM   21  C   UNL     1       7.568  22.887  55.041  1.00  0.00    -0.035 A 
HETATM   22  C   UNL     1       7.289  24.090  55.899  1.00  0.00     0.050 C 
HETATM   23  C   UNL     1       7.778  21.651  55.680  1.00  0.00     0.009 A 
HETATM   24  C   UNL     1       8.028  20.495  54.942  1.00  0.00     0.001 A 
HETATM   25  C   UNL     1       8.076  20.559  53.556  1.00  0.00     0.002 A 
HETATM   26  C   UNL     1       7.871  21.777  52.906  1.00  0.00     0.030 A 
ENDBRANCH  17  20
ENDBRANCH  15  16
ENDBRANCH   1  15
TORSDOF 3
ENDMDL
MODEL 5
REMARK VINA RESULT:      -8.6      2.993      4.766
REMARK  3 active torsions:
REMARK  status: ('A' for Active; 'I' for Inactive)
REMARK    1  A    between atoms: C_3  and  N_4 
REMARK       I    between atoms: N_4  and  C_5 
REMARK    2  A    between atoms: C_5  and  C_6 
REMARK    3  A    between atoms: C_6  and  C_7 
ROOT
HETATM    1  C   UNL     1       6.165  27.629  55.480  1.00  0.00     0.286 C 
HETATM    2  N   UNL     1       5.050  26.885  54.745  1.00  0.00    -0.056 N 
HETATM    3  H   UNL     1       5.469  25.971  54.471  1.00  0.00     0.278 HD
HETATM    4  H   UNL     1       4.268  26.666  55.372  1.00  0.00     0.278 HD
HETATM    5  C   UNL     1       4.577  27.523  53.472  1.00  0.00     0.209 C 
HETATM    6  C   UNL     1       5.796  27.807  52.562  1.00  0.00     0.115 C 
HETATM    7  N   UNL     1       6.852  28.539  53.260  1.00  0.00    -0.353 N 
HETATM    8  C   UNL     1       7.228  28.254  54.549  1.00  0.00     0.249 C 
HETATM    9  O   UNL     1       8.339  28.582  54.952  1.00  0.00    -0.271 OA
HETATM   10  C   UNL     1       3.754  28.775  53.777  1.00  0.00     0.035 C 
HETATM   11  C   UNL     1       3.324  29.463  52.482  1.00  0.00     0.002 C 
HETATM   12  C   UNL     1       4.521  29.784  51.590  1.00  0.00     0.002 C 
HETATM   13  C   UNL     1       5.360  28.542  51.291  1.00  0.00     0.027 C 
HETATM   14  H   UNL     1       7.628  28.896  52.706  1.00  0.00     0.163 HD
ENDROOT
BRANCH   1  15
HETATM   15  C   UNL     1       6.832  26.709  56.517  1.00  0.00     0.146 C 
BRANCH  15  16
HETATM   16  C   UNL     1       6.662  25.263  56.103  1.00  0.00     0.224 C 
HETATM   17  N   UNL     1       7.767  24.711  55.503  1.00  0.00    -0.327 N 
HETATM   18  H   UNL     1       8.634  25.234  55.525  1.00  0.00     0.169 HD
HETATM   19  O   UNL     1       5.622  24.679  56.417  1.00  0.00    -0.273 OA
BRANCH  17  20
HETATM   20  C   UNL     1       7.845  23.418  54.927  1.00  0.00     0.040 A 
HETATM   21  C   UNL     1       7.845  23.288  53.523  1.00  0.00    -0.035 A 
HETATM   22  C   UNL     1       7.826  24.473  52.596  1.00  0.00     0.050 C 
HETATM   23  C   UNL     1       7.874  22.002  52.954  1.00  0.00     0.009 A 
HETATM   24  C   UNL     1       7.905  20.862  53.756  1.00  0.00     0.001 A 
HETATM   25  C   UNL     1       7.905  20.993  55.139  1.00  0.00     0.002 A 
HETATM   26  C   UNL     1       7.876  22.262  55.720  1.00  0.00     0.030 A 
ENDBRANCH  17  20
ENDBRANCH  15  16
ENDBRANCH   1  15
TORSDOF 3
ENDMDL
MODEL 6
REMARK VINA RESULT:      -8.5      1.984      2.684
REMARK  3 active torsions:
REMARK  status: ('A' for Active; 'I' for Inactive)
REMARK    1  A    between atoms: C_3  and  N_4 
REMARK       I    between atoms: N_4  and  C_5 
REMARK    2  A    between atoms: C_5  and  C_6 
REMARK    3  A    between atoms: C_6  and  C_7 
ROOT
HETATM    1  C   UNL     1       7.443  27.109  54.059  1.00  0.00     0.286 C 
HETATM    2  N   UNL     1       7.154  26.444  55.405  1.00  0.00    -0.056 N 
HETATM    3  H   UNL     1       6.280  25.896  55.255  1.00  0.00     0.278 HD
HETATM    4  H   UNL     1       7.881  25.763  55.651  1.00  0.00     0.278 HD
HETATM    5  C   UNL     1       6.866  27.381  56.540  1.00  0.00     0.209 C 
HETATM    6  C   UNL     1       5.749  28.365  56.118  1.00  0.00     0.115 C 
HETATM    7  N   UNL     1       6.037  29.017  54.841  1.00  0.00    -0.353 N 
HETATM    8  C   UNL     1       6.568  28.348  53.766  1.00  0.00     0.249 C 
HETATM    9  O   UNL     1       6.421  28.791  52.632  1.00  0.00    -0.271 OA
HETATM   10  C   UNL     1       8.147  28.087  56.988  1.00  0.00     0.035 C 
HETATM   11  C   UNL     1       7.847  29.089  58.101  1.00  0.00     0.002 C 
HETATM   12  C   UNL     1       6.773  30.091  57.684  1.00  0.00     0.002 C 
HETATM   13  C   UNL     1       5.492  29.396  57.221  1.00  0.00     0.027 C 
HETATM   14  H   UNL     1       5.433  29.784  54.554  1.00  0.00     0.163 HD
ENDROOT
BRANCH   1  15
HETATM   15  C   UNL     1       7.323  26.085  52.917  1.00  0.00     0.146 C 
BRANCH  15  16
HETATM   16  C   UNL     1       7.101  24.701  53.491  1.00  0.00     0.224 C 
HETATM   17  N   UNL     1       8.252  23.980  53.695  1.00  0.00    -0.327 N 
HETATM   18  H   UNL     1       9.138  24.461  53.606  1.00  0.00     0.169 HD
HETATM   19  O   UNL     1       5.957  24.377  53.819  1.00  0.00    -0.273 OA
BRANCH  17  20
HETATM   20  C   UNL     1       8.325  22.630  54.119  1.00  0.00     0.040 A 
HETATM   21  C   UNL     1       8.559  22.347  55.480  1.00  0.00    -0.035 A 
HETATM   22  C   UNL     1       8.677  23.422  56.526  1.00  0.00     0.050 C 
HETATM   23  C   UNL     1       8.679  21.007  55.891  1.00  0.00     0.009 A 
HETATM   24  C   UNL     1       8.567  19.962  54.975  1.00  0.00     0.001 A 
HETATM   25  C   UNL     1       8.337  20.243  53.634  1.00  0.00     0.002 A 
HETATM   26  C   UNL     1       8.216  21.568  53.210  1.00  0.00     0.030 A 
ENDBRANCH  17  20
ENDBRANCH  15  16
ENDBRANCH   1  15
TORSDOF 3
ENDMDL
MODEL 7
REMARK VINA RESULT:      -8.4      2.596      4.167
REMARK  3 active torsions:
REMARK  status: ('A' for Active; 'I' for Inactive)
REMARK    1  A    between atoms: C_3  and  N_4 
REMARK       I    between atoms: N_4  and  C_5 
REMARK    2  A    between atoms: C_5  and  C_6 
REMARK    3  A    between atoms: C_6  and  C_7 
ROOT
HETATM    1  C   UNL     1       6.364  28.041  56.938  1.00  0.00     0.286 C 
HETATM    2  N   UNL     1       4.872  27.713  56.877  1.00  0.00    -0.056 N 
HETATM    3  H   UNL     1       4.821  26.766  56.446  1.00  0.00     0.278 HD
HETATM    4  H   UNL     1       4.469  27.623  57.817  1.00  0.00     0.278 HD
HETATM    5  C   UNL     1       4.047  28.611  56.004  1.00  0.00     0.209 C 
HETATM    6  C   UNL     1       4.691  28.687  54.599  1.00  0.00     0.115 C 
HETATM    7  N   UNL     1       6.113  29.024  54.657  1.00  0.00    -0.353 N 
HETATM    8  C   UNL     1       6.968  28.486  55.586  1.00  0.00     0.249 C 
HETATM    9  O   UNL     1       8.175  28.460  55.369  1.00  0.00    -0.271 OA
HETATM   10  C   UNL     1       3.878  29.983  56.659  1.00  0.00     0.035 C 
HETATM   11  C   UNL     1       3.092  30.921  55.744  1.00  0.00     0.002 C 
HETATM   12  C   UNL     1       3.738  31.036  54.365  1.00  0.00     0.002 C 
HETATM   13  C   UNL     1       3.925  29.668  53.707  1.00  0.00     0.027 C 
HETATM   14  H   UNL     1       6.586  29.237  53.781  1.00  0.00     0.163 HD
ENDROOT
BRANCH   1  15
HETATM   15  C   UNL     1       7.153  26.853  57.514  1.00  0.00     0.146 C 
BRANCH  15  16
HETATM   16  C   UNL     1       6.878  25.610  56.694  1.00  0.00     0.224 C 
HETATM   17  N   UNL     1       7.943  25.180  55.942  1.00  0.00    -0.327 N 
HETATM   18  H   UNL     1       8.846  25.607  56.104  1.00  0.00     0.169 HD
HETATM   19  O   UNL     1       5.795  25.038  56.839  1.00  0.00    -0.273 OA
BRANCH  17  20
HETATM   20  C   UNL     1       7.928  24.112  55.010  1.00  0.00     0.040 A 
HETATM   21  C   UNL     1       7.809  24.400  53.634  1.00  0.00    -0.035 A 
HETATM   22  C   UNL     1       7.757  25.805  53.098  1.00  0.00     0.050 C 
HETATM   23  C   UNL     1       7.746  23.337  52.715  1.00  0.00     0.009 A 
HETATM   24  C   UNL     1       7.802  22.012  53.144  1.00  0.00     0.001 A 
HETATM   25  C   UNL     1       7.919  21.731  54.499  1.00  0.00     0.002 A 
HETATM   26  C   UNL     1       7.982  22.774  55.425  1.00  0.00     0.030 A 
ENDBRANCH  17  20
ENDBRANCH  15  16
ENDBRANCH   1  15
TORSDOF 3
ENDMDL
MODEL 8
REMARK VINA RESULT:      -8.3      4.417      9.473
REMARK  3 active torsions:
REMARK  status: ('A' for Active; 'I' for Inactive)
REMARK    1  A    between atoms: C_3  and  N_4 
REMARK       I    between atoms: N_4  and  C_5 
REMARK    2  A    between atoms: C_5  and  C_6 
REMARK    3  A    between atoms: C_6  and  C_7 
ROOT
HETATM    1  C   UNL     1       8.861  31.292  59.429  1.00  0.00     0.286 C 
HETATM    2  N   UNL     1       8.022  30.046  59.714  1.00  0.00    -0.056 N 
HETATM    3  H   UNL     1       8.661  29.401  60.226  1.00  0.00     0.278 HD
HETATM    4  H   UNL     1       7.248  30.252  60.355  1.00  0.00     0.278 HD
HETATM    5  C   UNL     1       7.554  29.292  58.506  1.00  0.00     0.209 C 
HETATM    6  C   UNL     1       8.766  28.990  57.592  1.00  0.00     0.115 C 
HETATM    7  N   UNL     1       9.554  30.187  57.302  1.00  0.00    -0.353 N 
HETATM    8  C   UNL     1       9.849  31.133  58.252  1.00  0.00     0.249 C 
HETATM    9  O   UNL     1      10.810  31.878  58.099  1.00  0.00    -0.271 OA
HETATM   10  C   UNL     1       6.444  30.065  57.791  1.00  0.00     0.035 C 
HETATM   11  C   UNL     1       6.009  29.331  56.524  1.00  0.00     0.002 C 
HETATM   12  C   UNL     1       7.190  29.060  55.594  1.00  0.00     0.002 C 
HETATM   13  C   UNL     1       8.311  28.300  56.302  1.00  0.00     0.027 C 
HETATM   14  H   UNL     1      10.284  30.114  56.595  1.00  0.00     0.163 HD
ENDROOT
BRANCH   1  15
HETATM   15  C   UNL     1       9.606  31.740  60.698  1.00  0.00     0.146 C 
BRANCH  15  16
HETATM   16  C   UNL     1       8.673  31.676  61.889  1.00  0.00     0.224 C 
HETATM   17  N   UNL     1       7.938  32.818  62.096  1.00  0.00    -0.327 N 
HETATM   18  H   UNL     1       7.949  33.529  61.376  1.00  0.00     0.169 HD
HETATM   19  O   UNL     1       8.569  30.609  62.499  1.00  0.00    -0.273 OA
BRANCH  17  20
HETATM   20  C   UNL     1       7.074  33.066  63.191  1.00  0.00     0.040 A 
HETATM   21  C   UNL     1       5.679  32.992  62.999  1.00  0.00    -0.035 A 
HETATM   22  C   UNL     1       5.059  32.600  61.685  1.00  0.00     0.050 C 
HETATM   23  C   UNL     1       4.822  33.285  64.075  1.00  0.00     0.009 A 
HETATM   24  C   UNL     1       5.332  33.642  65.322  1.00  0.00     0.001 A 
HETATM   25  C   UNL     1       6.706  33.714  65.509  1.00  0.00     0.002 A 
HETATM   26  C   UNL     1       7.571  33.427  64.452  1.00  0.00     0.030 A 
ENDBRANCH  17  20
ENDBRANCH  15  16
ENDBRANCH   1  15
TORSDOF 3
ENDMDL
MODEL 9
REMARK VINA RESULT:      -8.1      3.641      4.993
REMARK  3 active torsions:
REMARK  status: ('A' for Active; 'I' for Inactive)
REMARK    1  A    between atoms: C_3  and  N_4 
REMARK       I    between atoms: N_4  and  C_5 
REMARK    2  A    between atoms: C_5  and  C_6 
REMARK    3  A    between atoms: C_6  and  C_7 
ROOT
HETATM    1  C   UNL     1       5.680  26.170  54.894  1.00  0.00     0.286 C 
HETATM    2  N   UNL     1       6.722  26.085  53.779  1.00  0.00    -0.056 N 
HETATM    3  H   UNL     1       7.566  26.564  54.160  1.00  0.00     0.278 HD
HETATM    4  H   UNL     1       7.000  25.114  53.597  1.00  0.00     0.278 HD
HETATM    5  C   UNL     1       6.374  26.807  52.511  1.00  0.00     0.209 C 
HETATM    6  C   UNL     1       5.987  28.267  52.846  1.00  0.00     0.115 C 
HETATM    7  N   UNL     1       4.973  28.346  53.897  1.00  0.00    -0.353 N 
HETATM    8  C   UNL     1       4.996  27.550  55.015  1.00  0.00     0.249 C 
HETATM    9  O   UNL     1       4.405  27.900  56.031  1.00  0.00    -0.271 OA
HETATM   10  C   UNL     1       5.276  26.057  51.755  1.00  0.00     0.035 C 
HETATM   11  C   UNL     1       4.873  26.822  50.495  1.00  0.00     0.002 C 
HETATM   12  C   UNL     1       4.452  28.255  50.815  1.00  0.00     0.002 C 
HETATM   13  C   UNL     1       5.537  29.009  51.584  1.00  0.00     0.027 C 
HETATM   14  H   UNL     1       4.553  29.255  54.083  1.00  0.00     0.163 HD
ENDROOT
BRANCH   1  15
HETATM   15  C   UNL     1       6.298  25.756  56.240  1.00  0.00     0.146 C 
BRANCH  15  16
HETATM   16  C   UNL     1       7.327  24.668  56.018  1.00  0.00     0.224 C 
HETATM   17  N   UNL     1       6.832  23.531  55.428  1.00  0.00    -0.327 N 
HETATM   18  H   UNL     1       5.893  23.559  55.050  1.00  0.00     0.169 HD
HETATM   19  O   UNL     1       8.508  24.913  56.277  1.00  0.00    -0.273 OA
BRANCH  17  20
HETATM   20  C   UNL     1       7.548  22.329  55.205  1.00  0.00     0.040 A 
HETATM   21  C   UNL     1       8.011  22.034  53.905  1.00  0.00    -0.035 A 
HETATM   22  C   UNL     1       7.830  22.974  52.744  1.00  0.00     0.050 C 
HETATM   23  C   UNL     1       8.680  20.818  53.675  1.00  0.00     0.009 A 
HETATM   24  C   UNL     1       8.893  19.909  54.710  1.00  0.00     0.001 A 
HETATM   25  C   UNL     1       8.436  20.201  55.989  1.00  0.00     0.002 A 
HETATM   26  C   UNL     1       7.770  21.403  56.234  1.00  0.00     0.030 A 
ENDBRANCH  17  20
ENDBRANCH  15  16
ENDBRANCH   1  15
TORSDOF 3
ENDMDL
MODEL 10
REMARK VINA RESULT:      -8.1      3.397      4.054
REMARK  3 active torsions:
REMARK  status: ('A' for Active; 'I' for Inactive)
REMARK    1  A    between atoms: C_3  and  N_4 
REMARK       I    between atoms: N_4  and  C_5 
REMARK    2  A    between atoms: C_5  and  C_6 
REMARK    3  A    between atoms: C_6  and  C_7 
ROOT
HETATM    1  C   UNL     1       5.669  27.526  53.001  1.00  0.00     0.286 C 
HETATM    2  N   UNL     1       4.604  27.190  54.045  1.00  0.00    -0.056 N 
HETATM    3  H   UNL     1       3.755  26.941  53.495  1.00  0.00     0.278 HD
HETATM    4  H   UNL     1       4.855  26.352  54.581  1.00  0.00     0.278 HD
HETATM    5  C   UNL     1       4.199  28.321  54.942  1.00  0.00     0.209 C 
HETATM    6  C   UNL     1       3.812  29.544  54.077  1.00  0.00     0.115 C 
HETATM    7  N   UNL     1       4.841  29.878  53.094  1.00  0.00    -0.353 N 
HETATM    8  C   UNL     1       5.514  28.927  52.369  1.00  0.00     0.249 C 
HETATM    9  O   UNL     1       6.048  29.228  51.306  1.00  0.00    -0.271 OA
HETATM   10  C   UNL     1       5.311  28.628  55.947  1.00  0.00     0.035 C 
HETATM   11  C   UNL     1       4.929  29.821  56.822  1.00  0.00     0.002 C 
HETATM   12  C   UNL     1       4.580  31.049  55.982  1.00  0.00     0.002 C 
HETATM   13  C   UNL     1       3.480  30.749  54.963  1.00  0.00     0.027 C 
HETATM   14  H   UNL     1       4.741  30.751  52.580  1.00  0.00     0.163 HD
ENDROOT
BRANCH   1  15
HETATM   15  C   UNL     1       5.709  26.445  51.907  1.00  0.00     0.146 C 
BRANCH  15  16
HETATM   16  C   UNL     1       5.748  25.072  52.545  1.00  0.00     0.224 C 
HETATM   17  N   UNL     1       6.963  24.734  53.090  1.00  0.00    -0.327 N 
HETATM   18  H   UNL     1       7.668  25.456  53.169  1.00  0.00     0.169 HD
HETATM   19  O   UNL     1       4.699  24.427  52.618  1.00  0.00    -0.273 OA
BRANCH  17  20
HETATM   20  C   UNL     1       7.304  23.478  53.651  1.00  0.00     0.040 A 
HETATM   21  C   UNL     1       7.249  23.311  55.050  1.00  0.00    -0.035 A 
HETATM   22  C   UNL     1       6.784  24.397  55.982  1.00  0.00     0.050 C 
HETATM   23  C   UNL     1       7.634  22.079  55.608  1.00  0.00     0.009 A 
HETATM   24  C   UNL     1       8.063  21.027  54.800  1.00  0.00     0.001 A 
HETATM   25  C   UNL     1       8.115  21.194  53.422  1.00  0.00     0.002 A 
HETATM   26  C   UNL     1       7.738  22.411  52.852  1.00  0.00     0.030 A 
ENDBRANCH  17  20
ENDBRANCH  15  16
ENDBRANCH   1  15
TORSDOF 3
ENDMDL
