MODEL 1
REMARK VINA RESULT:      -8.9      0.000      0.000
REMARK  3 active torsions:
REMARK  status: ('A' for Active; 'I' for Inactive)
REMARK    1  A    between atoms: C_4  and  N_5 
REMARK       I    between atoms: N_5  and  C_6 
REMARK    2  A    between atoms: C_6  and  C_7 
REMARK    3  A    between atoms: C_7  and  C_8 
ROOT
HETATM    1  C   UNL     1       6.953  25.822  55.973  1.00  0.00     0.286 C 
HETATM    2  N   UNL     1       6.024  25.034  55.051  1.00  0.00    -0.056 N 
HETATM    3  H   UNL     1       5.236  24.715  55.658  1.00  0.00     0.278 HD
HETATM    4  H   UNL     1       5.597  25.643  54.345  1.00  0.00     0.278 HD
HETATM    5  C   UNL     1       6.615  23.800  54.434  1.00  0.00     0.209 C 
HETATM    6  C   UNL     1       7.256  22.927  55.539  1.00  0.00     0.115 C 
HETATM    7  N   UNL     1       8.161  23.685  56.399  1.00  0.00    -0.353 N 
HETATM    8  C   UNL     1       7.868  24.947  56.852  1.00  0.00     0.249 C 
HETATM    9  O   UNL     1       8.404  25.375  57.869  1.00  0.00    -0.271 OA
HETATM   10  C   UNL     1       7.597  24.185  53.327  1.00  0.00     0.035 C 
HETATM   11  C   UNL     1       8.258  22.941  52.737  1.00  0.00     0.002 C 
HETATM   12  C   UNL     1       8.939  22.102  53.816  1.00  0.00     0.002 C 
HETATM   13  C   UNL     1       7.967  21.714  54.931  1.00  0.00     0.027 C 
HETATM   14  H   UNL     1       8.732  23.163  57.062  1.00  0.00     0.163 HD
ENDROOT
BRANCH   1  15
HETATM   15  C   UNL     1       6.156  26.798  56.855  1.00  0.00     0.146 C 
BRANCH  15  16
HETATM   16  C   UNL     1       6.837  28.151  56.879  1.00  0.00     0.224 C 
HETATM   17  N   UNL     1       7.677  28.342  57.948  1.00  0.00    -0.327 N 
HETATM   18  H   UNL     1       7.712  27.624  58.664  1.00  0.00     0.169 HD
HETATM   19  O   UNL     1       6.637  28.918  55.936  1.00  0.00    -0.273 OA
BRANCH  17  20
HETATM   20  C   UNL     1       8.483  29.475  58.208  1.00  0.00     0.035 A 
HETATM   21  C   UNL     1       8.212  30.418  59.202  1.00  0.00     0.036 A 
HETATM   22  C   UNL     1       9.054  31.525  59.398  1.00  0.00    -0.060 A 
HETATM   23  C   UNL     1       8.753  32.513  60.489  1.00  0.00     0.048 C 
HETATM   24  C   UNL     1      10.190  31.672  58.597  1.00  0.00     0.007 A 
HETATM   25  C   UNL     1      10.469  30.737  57.603  1.00  0.00     0.003 A 
HETATM   26  C   UNL     1       9.619  29.646  57.407  1.00  0.00     0.029 A 
ENDBRANCH  17  20
ENDBRANCH  15  16
ENDBRANCH   1  15
TORSDOF 3
ENDMDL
MODEL 2
REMARK VINA RESULT:      -8.9      1.720      7.634
REMARK  3 active torsions:
REMARK  status: ('A' for Active; 'I' for Inactive)
REMARK    1  A    between atoms: C_4  and  N_5 
REMARK       I    between atoms: N_5  and  C_6 
REMARK    2  A    between atoms: C_6  and  C_7 
REMARK    3  A    between atoms: C_7  and  C_8 
ROOT
HETATM    1  C   UNL     1       7.181  28.472  55.413  1.00  0.00     0.286 C 
HETATM    2  N   UNL     1       8.273  27.756  56.206  1.00  0.00    -0.056 N 
HETATM    3  H   UNL     1       7.782  27.003  56.737  1.00  0.00     0.278 HD
HETATM    4  H   UNL     1       8.927  27.270  55.582  1.00  0.00     0.278 HD
HETATM    5  C   UNL     1       8.996  28.595  57.219  1.00  0.00     0.209 C 
HETATM    6  C   UNL     1       7.966  29.314  58.122  1.00  0.00     0.115 C 
HETATM    7  N   UNL     1       6.941  30.017  57.353  1.00  0.00    -0.353 N 
HETATM    8  C   UNL     1       6.351  29.475  56.239  1.00  0.00     0.249 C 
HETATM    9  O   UNL     1       5.245  29.864  55.877  1.00  0.00    -0.271 OA
HETATM   10  C   UNL     1       9.957  29.556  56.518  1.00  0.00     0.035 C 
HETATM   11  C   UNL     1      10.647  30.463  57.533  1.00  0.00     0.002 C 
HETATM   12  C   UNL     1       9.635  31.217  58.392  1.00  0.00     0.002 C 
HETATM   13  C   UNL     1       8.667  30.267  59.095  1.00  0.00     0.027 C 
HETATM   14  H   UNL     1       6.306  30.631  57.861  1.00  0.00     0.163 HD
ENDROOT
BRANCH   1  15
HETATM   15  C   UNL     1       6.248  27.461  54.724  1.00  0.00     0.146 C 
BRANCH  15  16
HETATM   16  C   UNL     1       7.036  26.242  54.288  1.00  0.00     0.224 C 
HETATM   17  N   UNL     1       6.587  25.060  54.821  1.00  0.00    -0.327 N 
HETATM   18  H   UNL     1       5.844  25.097  55.511  1.00  0.00     0.169 HD
HETATM   19  O   UNL     1       7.943  26.400  53.469  1.00  0.00    -0.273 OA
BRANCH  17  20
HETATM   20  C   UNL     1       7.085  23.762  54.559  1.00  0.00     0.035 A 
HETATM   21  C   UNL     1       7.382  22.822  55.548  1.00  0.00     0.036 A 
HETATM   22  C   UNL     1       7.882  21.552  55.214  1.00  0.00    -0.060 A 
HETATM   23  C   UNL     1       8.171  20.551  56.295  1.00  0.00     0.048 C 
HETATM   24  C   UNL     1       8.068  21.222  53.869  1.00  0.00     0.007 A 
HETATM   25  C   UNL     1       7.776  22.154  52.874  1.00  0.00     0.003 A 
HETATM   26  C   UNL     1       7.290  23.417  53.218  1.00  0.00     0.029 A 
ENDBRANCH  17  20
ENDBRANCH  15  16
ENDBRANCH   1  15
TORSDOF 3
ENDMDL
MODEL 3
REMARK VINA RESULT:      -8.9      1.531      2.286
REMARK  3 active torsions:
REMARK  status: ('A' for Active; 'I' for Inactive)
REMARK    1  A    between atoms: C_4  and  N_5 
REMARK       I    between atoms: N_5  and  C_6 
REMARK    2  A    between atoms: C_6  and  C_7 
REMARK    3  A    between atoms: C_7  and  C_8 
ROOT
HETATM    1  C   UNL     1       6.703  24.967  56.007  1.00  0.00     0.286 C 
HETATM    2  N   UNL     1       8.193  24.760  56.272  1.00  0.00    -0.056 N 
HETATM    3  H   UNL     1       8.674  25.544  55.777  1.00  0.00     0.278 HD
HETATM    4  H   UNL     1       8.415  24.886  57.265  1.00  0.00     0.278 HD
HETATM    5  C   UNL     1       8.778  23.488  55.731  1.00  0.00     0.209 C 
HETATM    6  C   UNL     1       8.403  23.342  54.237  1.00  0.00     0.115 C 
HETATM    7  N   UNL     1       6.972  23.517  53.998  1.00  0.00    -0.353 N 
HETATM    8  C   UNL     1       6.233  24.494  54.617  1.00  0.00     0.249 C 
HETATM    9  O   UNL     1       5.188  24.889  54.109  1.00  0.00    -0.271 OA
HETATM   10  C   UNL     1       8.332  22.299  56.582  1.00  0.00     0.035 C 
HETATM   11  C   UNL     1       8.863  20.991  56.002  1.00  0.00     0.002 C 
HETATM   12  C   UNL     1       8.451  20.815  54.542  1.00  0.00     0.002 C 
HETATM   13  C   UNL     1       8.889  22.000  53.682  1.00  0.00     0.027 C 
HETATM   14  H   UNL     1       6.617  23.299  53.068  1.00  0.00     0.163 HD
ENDROOT
BRANCH   1  15
HETATM   15  C   UNL     1       6.303  26.436  56.224  1.00  0.00     0.146 C 
BRANCH  15  16
HETATM   16  C   UNL     1       7.349  27.140  57.065  1.00  0.00     0.224 C 
HETATM   17  N   UNL     1       7.851  28.286  56.502  1.00  0.00    -0.327 N 
HETATM   18  H   UNL     1       7.559  28.524  55.559  1.00  0.00     0.169 HD
HETATM   19  O   UNL     1       7.608  26.674  58.176  1.00  0.00    -0.273 OA
BRANCH  17  20
HETATM   20  C   UNL     1       8.792  29.175  57.071  1.00  0.00     0.035 A 
HETATM   21  C   UNL     1       8.483  30.121  58.051  1.00  0.00     0.036 A 
HETATM   22  C   UNL     1       9.470  30.978  58.566  1.00  0.00    -0.060 A 
HETATM   23  C   UNL     1       9.118  31.971  59.636  1.00  0.00     0.048 C 
HETATM   24  C   UNL     1      10.783  30.868  58.100  1.00  0.00     0.007 A 
HETATM   25  C   UNL     1      11.101  29.928  57.122  1.00  0.00     0.003 A 
HETATM   26  C   UNL     1      10.110  29.088  56.609  1.00  0.00     0.029 A 
ENDBRANCH  17  20
ENDBRANCH  15  16
ENDBRANCH   1  15
TORSDOF 3
ENDMDL
MODEL 4
REMARK VINA RESULT:      -8.8      5.566      8.365
REMARK  3 active torsions:
REMARK  status: ('A' for Active; 'I' for Inactive)
REMARK    1  A    between atoms: C_4  and  N_5 
REMARK       I    between atoms: N_5  and  C_6 
REMARK    2  A    between atoms: C_6  and  C_7 
REMARK    3  A    between atoms: C_7  and  C_8 
ROOT
HETATM    1  C   UNL     1       5.233  26.336  51.457  1.00  0.00     0.286 C 
HETATM    2  N   UNL     1       5.653  26.527  50.000  1.00  0.00    -0.056 N 
HETATM    3  H   UNL     1       6.423  27.231  50.024  1.00  0.00     0.278 HD
HETATM    4  H   UNL     1       6.074  25.672  49.620  1.00  0.00     0.278 HD
HETATM    5  C   UNL     1       4.597  27.078  49.087  1.00  0.00     0.209 C 
HETATM    6  C   UNL     1       3.987  28.354  49.713  1.00  0.00     0.115 C 
HETATM    7  N   UNL     1       3.566  28.152  51.098  1.00  0.00    -0.353 N 
HETATM    8  C   UNL     1       4.317  27.448  52.005  1.00  0.00     0.249 C 
HETATM    9  O   UNL     1       4.174  27.645  53.207  1.00  0.00    -0.271 OA
HETATM   10  C   UNL     1       3.555  26.002  48.778  1.00  0.00     0.035 C 
HETATM   11  C   UNL     1       2.438  26.569  47.905  1.00  0.00     0.002 C 
HETATM   12  C   UNL     1       1.795  27.798  48.544  1.00  0.00     0.002 C 
HETATM   13  C   UNL     1       2.828  28.879  48.861  1.00  0.00     0.027 C 
HETATM   14  H   UNL     1       3.027  28.895  51.542  1.00  0.00     0.163 HD
ENDROOT
BRANCH   1  15
HETATM   15  C   UNL     1       6.461  26.171  52.368  1.00  0.00     0.146 C 
BRANCH  15  16
HETATM   16  C   UNL     1       6.397  24.840  53.089  1.00  0.00     0.224 C 
HETATM   17  N   UNL     1       7.553  24.103  53.019  1.00  0.00    -0.327 N 
HETATM   18  H   UNL     1       8.309  24.451  52.438  1.00  0.00     0.169 HD
HETATM   19  O   UNL     1       5.370  24.566  53.711  1.00  0.00    -0.273 OA
BRANCH  17  20
HETATM   20  C   UNL     1       7.808  22.855  53.634  1.00  0.00     0.035 A 
HETATM   21  C   UNL     1       7.963  22.677  55.011  1.00  0.00     0.036 A 
HETATM   22  C   UNL     1       8.222  21.407  55.551  1.00  0.00    -0.060 A 
HETATM   23  C   UNL     1       8.362  21.238  57.037  1.00  0.00     0.048 C 
HETATM   24  C   UNL     1       8.309  20.304  54.698  1.00  0.00     0.007 A 
HETATM   25  C   UNL     1       8.157  20.471  53.323  1.00  0.00     0.003 A 
HETATM   26  C   UNL     1       7.911  21.740  52.794  1.00  0.00     0.029 A 
ENDBRANCH  17  20
ENDBRANCH  15  16
ENDBRANCH   1  15
TORSDOF 3
ENDMDL
MODEL 5
REMARK VINA RESULT:      -8.4      3.474      7.432
REMARK  3 active torsions:
REMARK  status: ('A' for Active; 'I' for Inactive)
REMARK    1  A    between atoms: C_4  and  N_5 
REMARK       I    between atoms: N_5  and  C_6 
REMARK    2  A    between atoms: C_6  and  C_7 
REMARK    3  A    between atoms: C_7  and  C_8 
ROOT
HETATM    1  C   UNL     1       6.757  26.469  56.135  1.00  0.00     0.286 C 
HETATM    2  N   UNL     1       7.374  27.750  55.575  1.00  0.00    -0.056 N 
HETATM    3  H   UNL     1       7.541  28.362  56.404  1.00  0.00     0.278 HD
HETATM    4  H   UNL     1       8.302  27.571  55.175  1.00  0.00     0.278 HD
HETATM    5  C   UNL     1       6.506  28.531  54.632  1.00  0.00     0.209 C 
HETATM    6  C   UNL     1       5.119  28.760  55.278  1.00  0.00     0.115 C 
HETATM    7  N   UNL     1       4.527  27.524  55.787  1.00  0.00    -0.353 N 
HETATM    8  C   UNL     1       5.255  26.579  56.465  1.00  0.00     0.249 C 
HETATM    9  O   UNL     1       4.693  25.798  57.226  1.00  0.00    -0.271 OA
HETATM   10  C   UNL     1       6.431  27.824  53.279  1.00  0.00     0.035 C 
HETATM   11  C   UNL     1       5.495  28.571  52.332  1.00  0.00     0.002 C 
HETATM   12  C   UNL     1       4.107  28.754  52.942  1.00  0.00     0.002 C 
HETATM   13  C   UNL     1       4.170  29.456  54.298  1.00  0.00     0.027 C 
HETATM   14  H   UNL     1       3.558  27.558  56.100  1.00  0.00     0.163 HD
ENDROOT
BRANCH   1  15
HETATM   15  C   UNL     1       7.531  25.978  57.370  1.00  0.00     0.146 C 
BRANCH  15  16
HETATM   16  C   UNL     1       8.237  24.675  57.056  1.00  0.00     0.224 C 
HETATM   17  N   UNL     1       7.484  23.784  56.334  1.00  0.00    -0.327 N 
HETATM   18  H   UNL     1       6.515  24.019  56.144  1.00  0.00     0.169 HD
HETATM   19  O   UNL     1       9.412  24.552  57.409  1.00  0.00    -0.273 OA
BRANCH  17  20
HETATM   20  C   UNL     1       7.890  22.517  55.852  1.00  0.00     0.035 A 
HETATM   21  C   UNL     1       7.847  22.140  54.508  1.00  0.00     0.036 A 
HETATM   22  C   UNL     1       8.259  20.860  54.102  1.00  0.00    -0.060 A 
HETATM   23  C   UNL     1       8.226  20.486  52.648  1.00  0.00     0.048 C 
HETATM   24  C   UNL     1       8.735  19.958  55.058  1.00  0.00     0.007 A 
HETATM   25  C   UNL     1       8.780  20.325  56.402  1.00  0.00     0.003 A 
HETATM   26  C   UNL     1       8.357  21.596  56.797  1.00  0.00     0.029 A 
ENDBRANCH  17  20
ENDBRANCH  15  16
ENDBRANCH   1  15
TORSDOF 3
ENDMDL
MODEL 6
REMARK VINA RESULT:      -8.4      2.471      7.963
REMARK  3 active torsions:
REMARK  status: ('A' for Active; 'I' for Inactive)
REMARK    1  A    between atoms: C_4  and  N_5 
REMARK       I    between atoms: N_5  and  C_6 
REMARK    2  A    between atoms: C_6  and  C_7 
REMARK    3  A    between atoms: C_7  and  C_8 
ROOT
HETATM    1  C   UNL     1       6.554  27.875  56.012  1.00  0.00     0.286 C 
HETATM    2  N   UNL     1       6.128  29.082  55.177  1.00  0.00    -0.056 N 
HETATM    3  H   UNL     1       7.017  29.523  54.853  1.00  0.00     0.278 HD
HETATM    4  H   UNL     1       5.641  28.789  54.323  1.00  0.00     0.278 HD
HETATM    5  C   UNL     1       5.365  30.144  55.913  1.00  0.00     0.209 C 
HETATM    6  C   UNL     1       6.135  30.538  57.195  1.00  0.00     0.115 C 
HETATM    7  N   UNL     1       6.516  29.378  57.999  1.00  0.00    -0.353 N 
HETATM    8  C   UNL     1       7.006  28.223  57.445  1.00  0.00     0.249 C 
HETATM    9  O   UNL     1       7.693  27.461  58.117  1.00  0.00    -0.271 OA
HETATM   10  C   UNL     1       3.938  29.671  56.189  1.00  0.00     0.035 C 
HETATM   11  C   UNL     1       3.172  30.715  56.999  1.00  0.00     0.002 C 
HETATM   12  C   UNL     1       3.901  31.069  58.293  1.00  0.00     0.002 C 
HETATM   13  C   UNL     1       5.331  31.540  58.028  1.00  0.00     0.027 C 
HETATM   14  H   UNL     1       6.901  29.551  58.927  1.00  0.00     0.163 HD
ENDROOT
BRANCH   1  15
HETATM   15  C   UNL     1       7.652  27.070  55.297  1.00  0.00     0.146 C 
BRANCH  15  16
HETATM   16  C   UNL     1       7.254  25.610  55.215  1.00  0.00     0.224 C 
HETATM   17  N   UNL     1       8.313  24.738  55.159  1.00  0.00    -0.327 N 
HETATM   18  H   UNL     1       9.249  25.125  55.092  1.00  0.00     0.169 HD
HETATM   19  O   UNL     1       6.055  25.332  55.267  1.00  0.00    -0.273 OA
BRANCH  17  20
HETATM   20  C   UNL     1       8.254  23.325  55.130  1.00  0.00     0.035 A 
HETATM   21  C   UNL     1       8.259  22.565  53.958  1.00  0.00     0.036 A 
HETATM   22  C   UNL     1       8.190  21.163  54.005  1.00  0.00    -0.060 A 
HETATM   23  C   UNL     1       8.221  20.367  52.731  1.00  0.00     0.048 C 
HETATM   24  C   UNL     1       8.133  20.521  55.244  1.00  0.00     0.007 A 
HETATM   25  C   UNL     1       8.126  21.271  56.419  1.00  0.00     0.003 A 
HETATM   26  C   UNL     1       8.183  22.665  56.362  1.00  0.00     0.029 A 
ENDBRANCH  17  20
ENDBRANCH  15  16
ENDBRANCH   1  15
TORSDOF 3
ENDMDL
MODEL 7
REMARK VINA RESULT:      -8.2      2.808      7.700
REMARK  3 active torsions:
REMARK  status: ('A' for Active; 'I' for Inactive)
REMARK    1  A    between atoms: C_4  and  N_5 
REMARK       I    between atoms: N_5  and  C_6 
REMARK    2  A    between atoms: C_6  and  C_7 
REMARK    3  A    between atoms: C_7  and  C_8 
ROOT
HETATM    1  C   UNL     1       6.340  27.139  53.391  1.00  0.00     0.286 C 
HETATM    2  N   UNL     1       7.219  26.731  54.572  1.00  0.00    -0.056 N 
HETATM    3  H   UNL     1       6.916  25.764  54.823  1.00  0.00     0.278 HD
HETATM    4  H   UNL     1       8.203  26.646  54.291  1.00  0.00     0.278 HD
HETATM    5  C   UNL     1       7.069  27.563  55.812  1.00  0.00     0.209 C 
HETATM    6  C   UNL     1       5.570  27.671  56.182  1.00  0.00     0.115 C 
HETATM    7  N   UNL     1       4.742  28.086  55.052  1.00  0.00    -0.353 N 
HETATM    8  C   UNL     1       4.920  27.593  53.784  1.00  0.00     0.249 C 
HETATM    9  O   UNL     1       3.994  27.614  52.979  1.00  0.00    -0.271 OA
HETATM   10  C   UNL     1       7.739  28.924  55.617  1.00  0.00     0.035 C 
HETATM   11  C   UNL     1       7.533  29.806  56.846  1.00  0.00     0.002 C 
HETATM   12  C   UNL     1       6.052  29.960  57.185  1.00  0.00     0.002 C 
HETATM   13  C   UNL     1       5.370  28.606  57.378  1.00  0.00     0.027 C 
HETATM   14  H   UNL     1       3.767  28.317  55.239  1.00  0.00     0.163 HD
ENDROOT
BRANCH   1  15
HETATM   15  C   UNL     1       6.261  26.012  52.348  1.00  0.00     0.146 C 
BRANCH  15  16
HETATM   16  C   UNL     1       7.247  24.914  52.694  1.00  0.00     0.224 C 
HETATM   17  N   UNL     1       6.699  23.858  53.379  1.00  0.00    -0.327 N 
HETATM   18  H   UNL     1       5.729  23.927  53.669  1.00  0.00     0.169 HD
HETATM   19  O   UNL     1       8.405  25.027  52.291  1.00  0.00    -0.273 OA
BRANCH  17  20
HETATM   20  C   UNL     1       7.356  22.674  53.788  1.00  0.00     0.035 A 
HETATM   21  C   UNL     1       7.615  22.342  55.120  1.00  0.00     0.036 A 
HETATM   22  C   UNL     1       8.280  21.150  55.453  1.00  0.00    -0.060 A 
HETATM   23  C   UNL     1       8.525  20.805  56.894  1.00  0.00     0.048 C 
HETATM   24  C   UNL     1       8.672  20.278  54.435  1.00  0.00     0.007 A 
HETATM   25  C   UNL     1       8.419  20.600  53.103  1.00  0.00     0.003 A 
HETATM   26  C   UNL     1       7.767  21.793  52.782  1.00  0.00     0.029 A 
ENDBRANCH  17  20
ENDBRANCH  15  16
ENDBRANCH   1  15
TORSDOF 3
ENDMDL
MODEL 8
REMARK VINA RESULT:      -8.2      3.514      7.279
REMARK  3 active torsions:
REMARK  status: ('A' for Active; 'I' for Inactive)
REMARK    1  A    between atoms: C_4  and  N_5 
REMARK       I    between atoms: N_5  and  C_6 
REMARK    2  A    between atoms: C_6  and  C_7 
REMARK    3  A    between atoms: C_7  and  C_8 
ROOT
HETATM    1  C   UNL     1       5.934  27.927  54.910  1.00  0.00     0.286 C 
HETATM    2  N   UNL     1       4.476  27.524  54.695  1.00  0.00    -0.056 N 
HETATM    3  H   UNL     1       4.464  26.482  54.760  1.00  0.00     0.278 HD
HETATM    4  H   UNL     1       3.882  27.853  55.464  1.00  0.00     0.278 HD
HETATM    5  C   UNL     1       3.895  27.877  53.357  1.00  0.00     0.209 C 
HETATM    6  C   UNL     1       4.834  27.370  52.237  1.00  0.00     0.115 C 
HETATM    7  N   UNL     1       6.222  27.783  52.439  1.00  0.00    -0.353 N 
HETATM    8  C   UNL     1       6.831  27.752  53.668  1.00  0.00     0.249 C 
HETATM    9  O   UNL     1       8.053  27.687  53.748  1.00  0.00    -0.271 OA
HETATM   10  C   UNL     1       3.624  29.380  53.281  1.00  0.00     0.035 C 
HETATM   11  C   UNL     1       3.098  29.763  51.900  1.00  0.00     0.002 C 
HETATM   12  C   UNL     1       4.047  29.313  50.792  1.00  0.00     0.002 C 
HETATM   13  C   UNL     1       4.329  27.812  50.860  1.00  0.00     0.027 C 
HETATM   14  H   UNL     1       6.881  27.614  51.681  1.00  0.00     0.163 HD
ENDROOT
BRANCH   1  15
HETATM   15  C   UNL     1       6.542  27.176  56.107  1.00  0.00     0.146 C 
BRANCH  15  16
HETATM   16  C   UNL     1       6.447  25.680  55.884  1.00  0.00     0.224 C 
HETATM   17  N   UNL     1       7.659  25.048  55.766  1.00  0.00    -0.327 N 
HETATM   18  H   UNL     1       8.498  25.619  55.749  1.00  0.00     0.169 HD
HETATM   19  O   UNL     1       5.328  25.163  55.891  1.00  0.00    -0.273 OA
BRANCH  17  20
HETATM   20  C   UNL     1       7.886  23.661  55.606  1.00  0.00     0.035 A 
HETATM   21  C   UNL     1       7.771  22.984  54.389  1.00  0.00     0.036 A 
HETATM   22  C   UNL     1       8.004  21.601  54.307  1.00  0.00    -0.060 A 
HETATM   23  C   UNL     1       7.897  20.900  52.982  1.00  0.00     0.048 C 
HETATM   24  C   UNL     1       8.373  20.898  55.457  1.00  0.00     0.007 A 
HETATM   25  C   UNL     1       8.489  21.565  56.675  1.00  0.00     0.003 A 
HETATM   26  C   UNL     1       8.244  22.938  56.749  1.00  0.00     0.029 A 
ENDBRANCH  17  20
ENDBRANCH  15  16
ENDBRANCH   1  15
TORSDOF 3
ENDMDL
MODEL 9
REMARK VINA RESULT:      -8.2      1.598      2.439
REMARK  3 active torsions:
REMARK  status: ('A' for Active; 'I' for Inactive)
REMARK    1  A    between atoms: C_4  and  N_5 
REMARK       I    between atoms: N_5  and  C_6 
REMARK    2  A    between atoms: C_6  and  C_7 
REMARK    3  A    between atoms: C_7  and  C_8 
ROOT
HETATM    1  C   UNL     1       5.519  26.438  55.574  1.00  0.00     0.286 C 
HETATM    2  N   UNL     1       6.978  26.106  55.885  1.00  0.00    -0.056 N 
HETATM    3  H   UNL     1       7.479  27.022  55.874  1.00  0.00     0.278 HD
HETATM    4  H   UNL     1       7.082  25.748  56.841  1.00  0.00     0.278 HD
HETATM    5  C   UNL     1       7.672  25.226  54.886  1.00  0.00     0.209 C 
HETATM    6  C   UNL     1       7.473  25.803  53.465  1.00  0.00     0.115 C 
HETATM    7  N   UNL     1       6.071  26.093  53.168  1.00  0.00    -0.353 N 
HETATM    8  C   UNL     1       5.228  26.678  54.079  1.00  0.00     0.249 C 
HETATM    9  O   UNL     1       4.231  27.282  53.696  1.00  0.00    -0.271 OA
HETATM   10  C   UNL     1       7.181  23.785  55.025  1.00  0.00     0.035 C 
HETATM   11  C   UNL     1       7.828  22.892  53.969  1.00  0.00     0.002 C 
HETATM   12  C   UNL     1       7.589  23.427  52.559  1.00  0.00     0.002 C 
HETATM   13  C   UNL     1       8.072  24.869  52.409  1.00  0.00     0.027 C 
HETATM   14  H   UNL     1       5.831  26.342  52.210  1.00  0.00     0.163 HD
ENDROOT
BRANCH   1  15
HETATM   15  C   UNL     1       5.039  27.641  56.402  1.00  0.00     0.146 C 
BRANCH  15  16
HETATM   16  C   UNL     1       6.128  28.692  56.472  1.00  0.00     0.224 C 
HETATM   17  N   UNL     1       6.773  28.759  57.681  1.00  0.00    -0.327 N 
HETATM   18  H   UNL     1       6.428  28.181  58.441  1.00  0.00     0.169 HD
HETATM   19  O   UNL     1       6.379  29.335  55.451  1.00  0.00    -0.273 OA
BRANCH  17  20
HETATM   20  C   UNL     1       7.858  29.599  58.024  1.00  0.00     0.035 A 
HETATM   21  C   UNL     1       7.794  30.607  58.989  1.00  0.00     0.036 A 
HETATM   22  C   UNL     1       8.912  31.409  59.273  1.00  0.00    -0.060 A 
HETATM   23  C   UNL     1       8.824  32.471  60.331  1.00  0.00     0.048 C 
HETATM   24  C   UNL     1      10.109  31.181  58.590  1.00  0.00     0.007 A 
HETATM   25  C   UNL     1      10.183  30.178  57.625  1.00  0.00     0.003 A 
HETATM   26  C   UNL     1       9.063  29.393  57.343  1.00  0.00     0.029 A 
ENDBRANCH  17  20
ENDBRANCH  15  16
ENDBRANCH   1  15
TORSDOF 3
ENDMDL
MODEL 10
REMARK VINA RESULT:      -8.2      4.162      6.753
REMARK  3 active torsions:
REMARK  status: ('A' for Active; 'I' for Inactive)
REMARK    1  A    between atoms: C_4  and  N_5 
REMARK       I    between atoms: N_5  and  C_6 
REMARK    2  A    between atoms: C_6  and  C_7 
REMARK    3  A    between atoms: C_7  and  C_8 
ROOT
HETATM    1  C   UNL     1       8.955  31.120  59.112  1.00  0.00     0.286 C 
HETATM    2  N   UNL     1       8.014  29.975  59.482  1.00  0.00    -0.056 N 
HETATM    3  H   UNL     1       8.588  29.318  60.055  1.00  0.00     0.278 HD
HETATM    4  H   UNL     1       7.263  30.297  60.102  1.00  0.00     0.278 HD
HETATM    5  C   UNL     1       7.475  29.179  58.328  1.00  0.00     0.209 C 
HETATM    6  C   UNL     1       8.645  28.732  57.419  1.00  0.00     0.115 C 
HETATM    7  N   UNL     1       9.524  29.840  57.051  1.00  0.00    -0.353 N 
HETATM    8  C   UNL     1       9.914  30.804  57.947  1.00  0.00     0.249 C 
HETATM    9  O   UNL     1      10.942  31.445  57.753  1.00  0.00    -0.271 OA
HETATM   10  C   UNL     1       6.410  29.985  57.585  1.00  0.00     0.035 C 
HETATM   11  C   UNL     1       5.903  29.214  56.368  1.00  0.00     0.002 C 
HETATM   12  C   UNL     1       7.047  28.816  55.439  1.00  0.00     0.002 C 
HETATM   13  C   UNL     1       8.121  28.013  56.172  1.00  0.00     0.027 C 
HETATM   14  H   UNL     1      10.236  29.665  56.344  1.00  0.00     0.163 HD
ENDROOT
BRANCH   1  15
HETATM   15  C   UNL     1       9.756  31.593  60.337  1.00  0.00     0.146 C 
BRANCH  15  16
HETATM   16  C   UNL     1       8.876  31.573  61.571  1.00  0.00     0.224 C 
HETATM   17  N   UNL     1       8.106  32.697  61.734  1.00  0.00    -0.327 N 
HETATM   18  H   UNL     1       8.240  33.468  61.087  1.00  0.00     0.169 HD
HETATM   19  O   UNL     1       8.878  30.557  62.269  1.00  0.00    -0.273 OA
BRANCH  17  20
HETATM   20  C   UNL     1       7.157  32.941  62.754  1.00  0.00     0.035 A 
HETATM   21  C   UNL     1       7.487  33.324  64.056  1.00  0.00     0.036 A 
HETATM   22  C   UNL     1       6.490  33.541  65.021  1.00  0.00    -0.060 A 
HETATM   23  C   UNL     1       6.870  33.975  66.408  1.00  0.00     0.048 C 
HETATM   24  C   UNL     1       5.148  33.388  64.666  1.00  0.00     0.007 A 
HETATM   25  C   UNL     1       4.808  33.006  63.369  1.00  0.00     0.003 A 
HETATM   26  C   UNL     1       5.807  32.781  62.420  1.00  0.00     0.029 A 
ENDBRANCH  17  20
ENDBRANCH  15  16
ENDBRANCH   1  15
TORSDOF 3
ENDMDL
