MODEL 1
REMARK VINA RESULT:      -9.4      0.000      0.000
REMARK  9 active torsions:
REMARK  status: ('A' for Active; 'I' for Inactive)
REMARK    1  A    between atoms: C_4  and  S_5 
REMARK    2  A    between atoms: S_5  and  C_6 
REMARK    3  A    between atoms: C_6  and  C_7 
REMARK       I    between atoms: C_7  and  N_8 
REMARK    4  A    between atoms: N_8  and  C_9 
REMARK    5  A    between atoms: C_10  and  O_11 
REMARK    6  A    between atoms: C_22  and  C_23 
REMARK    7  A    between atoms: C_29  and  C_30 
REMARK       I    between atoms: C_30  and  N_31 
REMARK    8  A    between atoms: N_31  and  C_32 
REMARK    9  A    between atoms: C_33  and  O_34 
ROOT
HETATM    1  C   UNL     1       4.794  32.803  57.348  1.00  0.00     0.069 C 
HETATM    2  C   UNL     1       5.352  31.399  57.336  1.00  0.00     0.019 C 
HETATM    3  N   UNL     1       4.841  30.568  56.356  1.00  0.00    -0.353 N 
HETATM    4  C   UNL     1       5.049  29.205  56.278  1.00  0.00     0.087 C 
HETATM    5  C   UNL     1       5.977  28.640  57.082  1.00  0.00     0.055 C 
HETATM    6  C   UNL     1       6.172  27.135  57.184  1.00  0.00     0.019 C 
HETATM    7  N   UNL     1       6.333  25.887  57.267  1.00  0.00    -0.096 N 
HETATM    8  C   UNL     1       6.865  29.519  57.967  1.00  0.00     0.104 C 
HETATM    9  C   UNL     1       6.316  30.933  58.172  1.00  0.00     0.046 C 
HETATM   10  H   UNL     1       4.108  30.930  55.753  1.00  0.00     0.166 HD
ENDROOT
BRANCH   4  11
HETATM   11  S   UNL     1       4.240  28.315  55.023  1.00  0.00    -0.102 SA
BRANCH  11  12
HETATM   12  C   UNL     1       4.742  29.111  53.493  1.00  0.00     0.184 C 
BRANCH  12  13
HETATM   13  C   UNL     1       3.781  30.147  52.930  1.00  0.00     0.231 C 
HETATM   14  N   UNL     1       3.693  30.357  51.575  1.00  0.00    -0.324 N 
HETATM   15  H   UNL     1       3.486  31.322  51.337  1.00  0.00     0.169 HD
HETATM   16  O   UNL     1       3.221  30.938  53.698  1.00  0.00    -0.272 OA
BRANCH  14  17
HETATM   17  C   UNL     1       4.075  29.526  50.506  1.00  0.00     0.070 C 
HETATM   18  C   UNL     1       5.316  29.735  49.878  1.00  0.00     0.095 C 
HETATM   19  C   UNL     1       5.713  28.885  48.838  1.00  0.00     0.041 C 
HETATM   20  C   UNL     1       4.853  27.886  48.374  1.00  0.00     0.026 C 
HETATM   21  C   UNL     1       3.585  27.758  48.927  1.00  0.00     0.036 C 
HETATM   22 CL   UNL     1       2.493  26.581  48.310  1.00  0.00    -0.084 Cl
HETATM   23  C   UNL     1       3.190  28.588  49.973  1.00  0.00     0.056 C 
BRANCH  18  24
HETATM   24  O   UNL     1       6.086  30.753  50.384  1.00  0.00    -0.354 OA
HETATM   25  C   UNL     1       6.153  31.938  49.597  1.00  0.00     0.210 C 
ENDBRANCH  18  24
ENDBRANCH  14  17
ENDBRANCH  12  13
ENDBRANCH  11  12
ENDBRANCH   4  11
BRANCH   8  26
HETATM   26  C   UNL     1       8.280  29.528  57.363  1.00  0.00    -0.044 A 
HETATM   27  C   UNL     1       9.408  29.827  58.152  1.00  0.00     0.008 A 
HETATM   28  C   UNL     1      10.680  29.897  57.586  1.00  0.00     0.001 A 
HETATM   29  C   UNL     1      10.848  29.677  56.221  1.00  0.00     0.000 A 
HETATM   30  C   UNL     1       9.741  29.390  55.424  1.00  0.00     0.001 A 
HETATM   31  C   UNL     1       8.465  29.319  55.987  1.00  0.00     0.008 A 
ENDBRANCH   8  26
BRANCH   9  32
HETATM   32  C   UNL     1       6.782  31.782  59.321  1.00  0.00     0.255 C 
HETATM   33  N   UNL     1       6.067  31.659  60.496  1.00  0.00    -0.321 N 
HETATM   34  H   UNL     1       5.136  31.278  60.476  1.00  0.00     0.169 HD
HETATM   35  O   UNL     1       7.668  32.617  59.147  1.00  0.00    -0.268 OA
BRANCH  33  36
HETATM   36  C   UNL     1       6.443  32.296  61.703  1.00  0.00     0.068 A 
HETATM   37  C   UNL     1       7.464  31.808  62.547  1.00  0.00     0.095 A 
HETATM   38  C   UNL     1       7.814  32.542  63.686  1.00  0.00     0.039 A 
HETATM   39  C   UNL     1       7.142  33.727  64.000  1.00  0.00     0.003 A 
HETATM   40  C   UNL     1       6.094  34.170  63.199  1.00  0.00     0.002 A 
HETATM   41  C   UNL     1       5.731  33.447  62.063  1.00  0.00     0.032 A 
BRANCH  37  42
HETATM   42  O   UNL     1       7.964  30.564  62.257  1.00  0.00    -0.354 OA
HETATM   43  C   UNL     1       9.307  30.486  61.802  1.00  0.00     0.210 C 
ENDBRANCH  37  42
ENDBRANCH  33  36
ENDBRANCH   9  32
TORSDOF 9
ENDMDL
MODEL 2
REMARK VINA RESULT:      -9.3      3.203      4.641
REMARK  9 active torsions:
REMARK  status: ('A' for Active; 'I' for Inactive)
REMARK    1  A    between atoms: C_4  and  S_5 
REMARK    2  A    between atoms: S_5  and  C_6 
REMARK    3  A    between atoms: C_6  and  C_7 
REMARK       I    between atoms: C_7  and  N_8 
REMARK    4  A    between atoms: N_8  and  C_9 
REMARK    5  A    between atoms: C_10  and  O_11 
REMARK    6  A    between atoms: C_22  and  C_23 
REMARK    7  A    between atoms: C_29  and  C_30 
REMARK       I    between atoms: C_30  and  N_31 
REMARK    8  A    between atoms: N_31  and  C_32 
REMARK    9  A    between atoms: C_33  and  O_34 
ROOT
HETATM    1  C   UNL     1       4.088  32.559  54.996  1.00  0.00     0.069 C 
HETATM    2  C   UNL     1       4.479  31.192  55.507  1.00  0.00     0.019 C 
HETATM    3  N   UNL     1       4.243  30.144  54.636  1.00  0.00    -0.353 N 
HETATM    4  C   UNL     1       4.332  28.805  54.957  1.00  0.00     0.087 C 
HETATM    5  C   UNL     1       4.882  28.452  56.141  1.00  0.00     0.055 C 
HETATM    6  C   UNL     1       4.886  27.022  56.654  1.00  0.00     0.019 C 
HETATM    7  N   UNL     1       4.888  25.834  57.079  1.00  0.00    -0.096 N 
HETATM    8  C   UNL     1       5.509  29.519  57.044  1.00  0.00     0.104 C 
HETATM    9  C   UNL     1       5.063  30.944  56.708  1.00  0.00     0.046 C 
HETATM   10  H   UNL     1       3.789  30.350  53.751  1.00  0.00     0.166 HD
ENDROOT
BRANCH   4  11
HETATM   11  S   UNL     1       3.900  27.633  53.748  1.00  0.00    -0.102 SA
BRANCH  11  12
HETATM   12  C   UNL     1       5.184  26.379  53.839  1.00  0.00     0.184 C 
BRANCH  12  13
HETATM   13  C   UNL     1       6.504  26.722  53.166  1.00  0.00     0.231 C 
HETATM   14  N   UNL     1       7.641  26.002  53.446  1.00  0.00    -0.324 N 
HETATM   15  H   UNL     1       8.484  26.564  53.409  1.00  0.00     0.169 HD
HETATM   16  O   UNL     1       6.601  27.769  52.516  1.00  0.00    -0.272 OA
BRANCH  14  17
HETATM   17  C   UNL     1       7.781  24.715  53.998  1.00  0.00     0.070 C 
HETATM   18  C   UNL     1       8.017  24.577  55.378  1.00  0.00     0.095 C 
HETATM   19  C   UNL     1       8.121  23.295  55.933  1.00  0.00     0.041 C 
HETATM   20  C   UNL     1       8.067  22.163  55.115  1.00  0.00     0.026 C 
HETATM   21  C   UNL     1       7.944  22.314  53.739  1.00  0.00     0.036 C 
HETATM   22 CL   UNL     1       7.955  20.929  52.719  1.00  0.00    -0.084 Cl
HETATM   23  C   UNL     1       7.823  23.584  53.182  1.00  0.00     0.056 C 
BRANCH  18  24
HETATM   24  O   UNL     1       8.077  25.742  56.100  1.00  0.00    -0.354 OA
HETATM   25  C   UNL     1       8.350  25.604  57.491  1.00  0.00     0.210 C 
ENDBRANCH  18  24
ENDBRANCH  14  17
ENDBRANCH  12  13
ENDBRANCH  11  12
ENDBRANCH   4  11
BRANCH   8  26
HETATM   26  C   UNL     1       7.037  29.359  56.980  1.00  0.00    -0.044 A 
HETATM   27  C   UNL     1       7.828  29.441  58.143  1.00  0.00     0.008 A 
HETATM   28  C   UNL     1       9.219  29.360  58.071  1.00  0.00     0.001 A 
HETATM   29  C   UNL     1       9.844  29.204  56.837  1.00  0.00     0.000 A 
HETATM   30  C   UNL     1       9.077  29.131  55.675  1.00  0.00     0.001 A 
HETATM   31  C   UNL     1       7.684  29.212  55.742  1.00  0.00     0.008 A 
ENDBRANCH   8  26
BRANCH   9  32
HETATM   32  C   UNL     1       5.202  32.052  57.714  1.00  0.00     0.255 C 
HETATM   33  N   UNL     1       4.766  31.771  58.994  1.00  0.00    -0.321 N 
HETATM   34  H   UNL     1       4.127  31.008  59.146  1.00  0.00     0.169 HD
HETATM   35  O   UNL     1       5.567  33.169  57.349  1.00  0.00    -0.268 OA
BRANCH  33  36
HETATM   36  C   UNL     1       4.932  32.658  60.083  1.00  0.00     0.068 A 
HETATM   37  C   UNL     1       6.114  32.723  60.852  1.00  0.00     0.095 A 
HETATM   38  C   UNL     1       6.214  33.680  61.867  1.00  0.00     0.039 A 
HETATM   39  C   UNL     1       5.147  34.542  62.137  1.00  0.00     0.003 A 
HETATM   40  C   UNL     1       3.960  34.432  61.419  1.00  0.00     0.002 A 
HETATM   41  C   UNL     1       3.845  33.479  60.406  1.00  0.00     0.032 A 
BRANCH  37  42
HETATM   42  O   UNL     1       7.050  31.745  60.631  1.00  0.00    -0.354 OA
HETATM   43  C   UNL     1       7.754  31.244  61.757  1.00  0.00     0.210 C 
ENDBRANCH  37  42
ENDBRANCH  33  36
ENDBRANCH   9  32
TORSDOF 9
ENDMDL
MODEL 3
REMARK VINA RESULT:      -9.3      2.635      3.974
REMARK  9 active torsions:
REMARK  status: ('A' for Active; 'I' for Inactive)
REMARK    1  A    between atoms: C_4  and  S_5 
REMARK    2  A    between atoms: S_5  and  C_6 
REMARK    3  A    between atoms: C_6  and  C_7 
REMARK       I    between atoms: C_7  and  N_8 
REMARK    4  A    between atoms: N_8  and  C_9 
REMARK    5  A    between atoms: C_10  and  O_11 
REMARK    6  A    between atoms: C_22  and  C_23 
REMARK    7  A    between atoms: C_29  and  C_30 
REMARK       I    between atoms: C_30  and  N_31 
REMARK    8  A    between atoms: N_31  and  C_32 
REMARK    9  A    between atoms: C_33  and  O_34 
ROOT
HETATM    1  C   UNL     1       4.573  29.768  54.018  1.00  0.00     0.069 C 
HETATM    2  C   UNL     1       5.537  28.948  54.844  1.00  0.00     0.019 C 
HETATM    3  N   UNL     1       6.163  27.916  54.170  1.00  0.00    -0.353 N 
HETATM    4  C   UNL     1       6.921  26.923  54.758  1.00  0.00     0.087 C 
HETATM    5  C   UNL     1       7.263  27.048  56.060  1.00  0.00     0.055 C 
HETATM    6  C   UNL     1       7.959  25.944  56.839  1.00  0.00     0.019 C 
HETATM    7  N   UNL     1       8.536  25.026  57.484  1.00  0.00    -0.096 N 
HETATM    8  C   UNL     1       6.924  28.332  56.823  1.00  0.00     0.104 C 
HETATM    9  C   UNL     1       5.842  29.178  56.147  1.00  0.00     0.046 C 
HETATM   10  H   UNL     1       5.907  27.750  53.201  1.00  0.00     0.166 HD
ENDROOT
BRANCH   4  11
HETATM   11  S   UNL     1       7.548  25.653  53.750  1.00  0.00    -0.102 SA
BRANCH  11  12
HETATM   12  C   UNL     1       6.705  25.854  52.176  1.00  0.00     0.184 C 
BRANCH  12  13
HETATM   13  C   UNL     1       5.202  25.621  52.187  1.00  0.00     0.231 C 
HETATM   14  N   UNL     1       4.362  26.432  51.462  1.00  0.00    -0.324 N 
HETATM   15  H   UNL     1       3.459  26.564  51.905  1.00  0.00     0.169 HD
HETATM   16  O   UNL     1       4.715  24.827  53.000  1.00  0.00    -0.272 OA
BRANCH  14  17
HETATM   17  C   UNL     1       4.641  27.273  50.368  1.00  0.00     0.070 C 
HETATM   18  C   UNL     1       4.425  26.801  49.061  1.00  0.00     0.095 C 
HETATM   19  C   UNL     1       4.669  27.650  47.974  1.00  0.00     0.041 C 
HETATM   20  C   UNL     1       5.194  28.929  48.179  1.00  0.00     0.026 C 
HETATM   21  C   UNL     1       5.507  29.346  49.467  1.00  0.00     0.036 C 
HETATM   22 CL   UNL     1       6.225  30.888  49.719  1.00  0.00    -0.084 Cl
HETATM   23  C   UNL     1       5.252  28.514  50.553  1.00  0.00     0.056 C 
BRANCH  18  24
HETATM   24  O   UNL     1       3.930  25.526  48.953  1.00  0.00    -0.354 OA
HETATM   25  C   UNL     1       3.106  25.267  47.820  1.00  0.00     0.210 C 
ENDBRANCH  18  24
ENDBRANCH  14  17
ENDBRANCH  12  13
ENDBRANCH  11  12
ENDBRANCH   4  11
BRANCH   8  26
HETATM   26  C   UNL     1       8.228  29.120  57.035  1.00  0.00    -0.044 A 
HETATM   27  C   UNL     1       9.182  29.240  56.006  1.00  0.00     0.008 A 
HETATM   28  C   UNL     1      10.391  29.900  56.222  1.00  0.00     0.001 A 
HETATM   29  C   UNL     1      10.672  30.445  57.472  1.00  0.00     0.000 A 
HETATM   30  C   UNL     1       9.743  30.327  58.505  1.00  0.00     0.001 A 
HETATM   31  C   UNL     1       8.531  29.666  58.292  1.00  0.00     0.008 A 
ENDBRANCH   8  26
BRANCH   9  32
HETATM   32  C   UNL     1       5.072  30.208  56.924  1.00  0.00     0.255 C 
HETATM   33  N   UNL     1       5.655  31.455  57.027  1.00  0.00    -0.321 N 
HETATM   34  H   UNL     1       6.645  31.557  56.867  1.00  0.00     0.169 HD
HETATM   35  O   UNL     1       4.049  29.884  57.526  1.00  0.00    -0.268 OA
BRANCH  33  36
HETATM   36  C   UNL     1       5.012  32.566  57.621  1.00  0.00     0.068 A 
HETATM   37  C   UNL     1       5.162  32.907  58.983  1.00  0.00     0.095 A 
HETATM   38  C   UNL     1       4.542  34.064  59.467  1.00  0.00     0.039 A 
HETATM   39  C   UNL     1       3.760  34.857  58.622  1.00  0.00     0.003 A 
HETATM   40  C   UNL     1       3.563  34.482  57.296  1.00  0.00     0.002 A 
HETATM   41  C   UNL     1       4.172  33.329  56.801  1.00  0.00     0.032 A 
BRANCH  37  42
HETATM   42  O   UNL     1       5.812  31.999  59.779  1.00  0.00    -0.354 OA
HETATM   43  C   UNL     1       7.028  32.409  60.386  1.00  0.00     0.210 C 
ENDBRANCH  37  42
ENDBRANCH  33  36
ENDBRANCH   9  32
TORSDOF 9
ENDMDL
MODEL 4
REMARK VINA RESULT:      -9.2      3.771      5.385
REMARK  9 active torsions:
REMARK  status: ('A' for Active; 'I' for Inactive)
REMARK    1  A    between atoms: C_4  and  S_5 
REMARK    2  A    between atoms: S_5  and  C_6 
REMARK    3  A    between atoms: C_6  and  C_7 
REMARK       I    between atoms: C_7  and  N_8 
REMARK    4  A    between atoms: N_8  and  C_9 
REMARK    5  A    between atoms: C_10  and  O_11 
REMARK    6  A    between atoms: C_22  and  C_23 
REMARK    7  A    between atoms: C_29  and  C_30 
REMARK       I    between atoms: C_30  and  N_31 
REMARK    8  A    between atoms: N_31  and  C_32 
REMARK    9  A    between atoms: C_33  and  O_34 
ROOT
HETATM    1  C   UNL     1       4.272  32.616  54.704  1.00  0.00     0.069 C 
HETATM    2  C   UNL     1       4.642  31.276  55.298  1.00  0.00     0.019 C 
HETATM    3  N   UNL     1       4.523  30.197  54.442  1.00  0.00    -0.353 N 
HETATM    4  C   UNL     1       4.611  28.870  54.814  1.00  0.00     0.087 C 
HETATM    5  C   UNL     1       5.044  28.569  56.059  1.00  0.00     0.055 C 
HETATM    6  C   UNL     1       5.029  27.155  56.616  1.00  0.00     0.019 C 
HETATM    7  N   UNL     1       5.016  25.981  57.078  1.00  0.00    -0.096 N 
HETATM    8  C   UNL     1       5.547  29.679  56.987  1.00  0.00     0.104 C 
HETATM    9  C   UNL     1       5.104  31.081  56.560  1.00  0.00     0.046 C 
HETATM   10  H   UNL     1       4.159  30.362  53.508  1.00  0.00     0.166 HD
ENDROOT
BRANCH   4  11
HETATM   11  S   UNL     1       4.336  27.651  53.605  1.00  0.00    -0.102 SA
BRANCH  11  12
HETATM   12  C   UNL     1       5.956  26.942  53.288  1.00  0.00     0.184 C 
BRANCH  12  13
HETATM   13  C   UNL     1       5.991  25.747  52.347  1.00  0.00     0.231 C 
HETATM   14  N   UNL     1       6.841  24.693  52.584  1.00  0.00    -0.324 N 
HETATM   15  H   UNL     1       7.180  24.259  51.732  1.00  0.00     0.169 HD
HETATM   16  O   UNL     1       5.398  25.808  51.264  1.00  0.00    -0.272 OA
BRANCH  14  17
HETATM   17  C   UNL     1       7.481  24.300  53.774  1.00  0.00     0.070 C 
HETATM   18  C   UNL     1       7.876  22.960  53.935  1.00  0.00     0.095 C 
HETATM   19  C   UNL     1       8.545  22.575  55.104  1.00  0.00     0.041 C 
HETATM   20  C   UNL     1       8.753  23.496  56.135  1.00  0.00     0.026 C 
HETATM   21  C   UNL     1       8.262  24.790  56.012  1.00  0.00     0.036 C 
HETATM   22 CL   UNL     1       8.446  25.906  57.307  1.00  0.00    -0.084 Cl
HETATM   23  C   UNL     1       7.611  25.183  54.846  1.00  0.00     0.056 C 
BRANCH  18  24
HETATM   24  O   UNL     1       7.612  22.121  52.882  1.00  0.00    -0.354 OA
HETATM   25  C   UNL     1       8.042  20.771  53.031  1.00  0.00     0.210 C 
ENDBRANCH  18  24
ENDBRANCH  14  17
ENDBRANCH  12  13
ENDBRANCH  11  12
ENDBRANCH   4  11
BRANCH   8  26
HETATM   26  C   UNL     1       7.077  29.560  57.086  1.00  0.00    -0.044 A 
HETATM   27  C   UNL     1       7.750  29.797  58.300  1.00  0.00     0.008 A 
HETATM   28  C   UNL     1       9.142  29.750  58.369  1.00  0.00     0.001 A 
HETATM   29  C   UNL     1       9.887  29.476  57.226  1.00  0.00     0.000 A 
HETATM   30  C   UNL     1       9.238  29.249  56.013  1.00  0.00     0.001 A 
HETATM   31  C   UNL     1       7.843  29.294  55.939  1.00  0.00     0.008 A 
ENDBRANCH   8  26
BRANCH   9  32
HETATM   32  C   UNL     1       5.110  32.222  57.538  1.00  0.00     0.255 C 
HETATM   33  N   UNL     1       4.483  31.992  58.746  1.00  0.00    -0.321 N 
HETATM   34  H   UNL     1       3.814  31.243  58.826  1.00  0.00     0.169 HD
HETATM   35  O   UNL     1       5.546  33.320  57.195  1.00  0.00    -0.268 OA
BRANCH  33  36
HETATM   36  C   UNL     1       4.500  32.916  59.817  1.00  0.00     0.068 A 
HETATM   37  C   UNL     1       3.454  33.830  60.065  1.00  0.00     0.095 A 
HETATM   38  C   UNL     1       3.526  34.659  61.189  1.00  0.00     0.039 A 
HETATM   39  C   UNL     1       4.634  34.606  62.040  1.00  0.00     0.003 A 
HETATM   40  C   UNL     1       5.693  33.748  61.757  1.00  0.00     0.002 A 
HETATM   41  C   UNL     1       5.636  32.919  60.637  1.00  0.00     0.032 A 
BRANCH  37  42
HETATM   42  O   UNL     1       2.481  33.932  59.102  1.00  0.00    -0.354 OA
HETATM   43  C   UNL     1       2.569  35.019  58.194  1.00  0.00     0.210 C 
ENDBRANCH  37  42
ENDBRANCH  33  36
ENDBRANCH   9  32
TORSDOF 9
ENDMDL
MODEL 5
REMARK VINA RESULT:      -9.2      3.578     10.092
REMARK  9 active torsions:
REMARK  status: ('A' for Active; 'I' for Inactive)
REMARK    1  A    between atoms: C_4  and  S_5 
REMARK    2  A    between atoms: S_5  and  C_6 
REMARK    3  A    between atoms: C_6  and  C_7 
REMARK       I    between atoms: C_7  and  N_8 
REMARK    4  A    between atoms: N_8  and  C_9 
REMARK    5  A    between atoms: C_10  and  O_11 
REMARK    6  A    between atoms: C_22  and  C_23 
REMARK    7  A    between atoms: C_29  and  C_30 
REMARK       I    between atoms: C_30  and  N_31 
REMARK    8  A    between atoms: N_31  and  C_32 
REMARK    9  A    between atoms: C_33  and  O_34 
ROOT
HETATM    1  C   UNL     1       3.243  29.430  53.628  1.00  0.00     0.069 C 
HETATM    2  C   UNL     1       4.656  29.078  54.032  1.00  0.00     0.019 C 
HETATM    3  N   UNL     1       4.942  29.228  55.376  1.00  0.00    -0.353 N 
HETATM    4  C   UNL     1       6.202  29.160  55.936  1.00  0.00     0.087 C 
HETATM    5  C   UNL     1       7.230  28.718  55.177  1.00  0.00     0.055 C 
HETATM    6  C   UNL     1       8.675  28.753  55.648  1.00  0.00     0.019 C 
HETATM    7  N   UNL     1       9.874  28.782  56.039  1.00  0.00    -0.096 N 
HETATM    8  C   UNL     1       6.969  28.183  53.766  1.00  0.00     0.104 C 
HETATM    9  C   UNL     1       5.614  28.605  53.193  1.00  0.00     0.046 C 
HETATM   10  H   UNL     1       4.217  29.600  55.983  1.00  0.00     0.166 HD
ENDROOT
BRANCH   4  11
HETATM   11  S   UNL     1       6.370  29.473  57.638  1.00  0.00    -0.102 SA
BRANCH  11  12
HETATM   12  C   UNL     1       5.085  30.670  58.016  1.00  0.00     0.184 C 
BRANCH  12  13
HETATM   13  C   UNL     1       5.419  32.125  57.725  1.00  0.00     0.231 C 
HETATM   14  N   UNL     1       5.845  32.961  58.730  1.00  0.00    -0.324 N 
HETATM   15  H   UNL     1       5.540  33.920  58.602  1.00  0.00     0.169 HD
HETATM   16  O   UNL     1       5.121  32.610  56.627  1.00  0.00    -0.272 OA
BRANCH  14  17
HETATM   17  C   UNL     1       6.404  32.653  59.984  1.00  0.00     0.070 C 
HETATM   18  C   UNL     1       7.746  32.238  60.058  1.00  0.00     0.095 C 
HETATM   19  C   UNL     1       8.313  31.965  61.310  1.00  0.00     0.041 C 
HETATM   20  C   UNL     1       7.535  32.032  62.469  1.00  0.00     0.026 C 
HETATM   21  C   UNL     1       6.183  32.336  62.373  1.00  0.00     0.036 C 
HETATM   22 CL   UNL     1       5.202  32.343  63.786  1.00  0.00    -0.084 Cl
HETATM   23  C   UNL     1       5.616  32.624  61.135  1.00  0.00     0.056 C 
BRANCH  18  24
HETATM   24  O   UNL     1       8.428  32.179  58.869  1.00  0.00    -0.354 OA
HETATM   25  C   UNL     1       9.538  31.289  58.825  1.00  0.00     0.210 C 
ENDBRANCH  18  24
ENDBRANCH  14  17
ENDBRANCH  12  13
ENDBRANCH  11  12
ENDBRANCH   4  11
BRANCH   8  26
HETATM   26  C   UNL     1       7.134  26.654  53.798  1.00  0.00    -0.044 A 
HETATM   27  C   UNL     1       7.824  25.974  52.776  1.00  0.00     0.008 A 
HETATM   28  C   UNL     1       7.916  24.582  52.777  1.00  0.00     0.001 A 
HETATM   29  C   UNL     1       7.313  23.846  53.793  1.00  0.00     0.000 A 
HETATM   30  C   UNL     1       6.618  24.502  54.807  1.00  0.00     0.001 A 
HETATM   31  C   UNL     1       6.524  25.896  54.810  1.00  0.00     0.008 A 
ENDBRANCH   8  26
BRANCH   9  32
HETATM   32  C   UNL     1       5.357  28.565  51.713  1.00  0.00     0.255 C 
HETATM   33  N   UNL     1       4.509  27.570  51.269  1.00  0.00    -0.321 N 
HETATM   34  H   UNL     1       4.342  26.763  51.847  1.00  0.00     0.169 HD
HETATM   35  O   UNL     1       5.984  29.311  50.962  1.00  0.00    -0.268 OA
BRANCH  33  36
HETATM   36  C   UNL     1       4.072  27.464  49.927  1.00  0.00     0.068 A 
HETATM   37  C   UNL     1       3.028  28.250  49.392  1.00  0.00     0.095 A 
HETATM   38  C   UNL     1       2.710  28.126  48.036  1.00  0.00     0.039 A 
HETATM   39  C   UNL     1       3.395  27.214  47.227  1.00  0.00     0.003 A 
HETATM   40  C   UNL     1       4.379  26.396  47.774  1.00  0.00     0.002 A 
HETATM   41  C   UNL     1       4.704  26.507  49.125  1.00  0.00     0.032 A 
BRANCH  37  42
HETATM   42  O   UNL     1       2.303  29.003  50.280  1.00  0.00    -0.354 OA
HETATM   43  C   UNL     1       2.406  30.415  50.183  1.00  0.00     0.210 C 
ENDBRANCH  37  42
ENDBRANCH  33  36
ENDBRANCH   9  32
TORSDOF 9
ENDMDL
MODEL 6
REMARK VINA RESULT:      -9.2      1.683      2.146
REMARK  9 active torsions:
REMARK  status: ('A' for Active; 'I' for Inactive)
REMARK    1  A    between atoms: C_4  and  S_5 
REMARK    2  A    between atoms: S_5  and  C_6 
REMARK    3  A    between atoms: C_6  and  C_7 
REMARK       I    between atoms: C_7  and  N_8 
REMARK    4  A    between atoms: N_8  and  C_9 
REMARK    5  A    between atoms: C_10  and  O_11 
REMARK    6  A    between atoms: C_22  and  C_23 
REMARK    7  A    between atoms: C_29  and  C_30 
REMARK       I    between atoms: C_30  and  N_31 
REMARK    8  A    between atoms: N_31  and  C_32 
REMARK    9  A    between atoms: C_33  and  O_34 
ROOT
HETATM    1  C   UNL     1       4.895  33.081  57.393  1.00  0.00     0.069 C 
HETATM    2  C   UNL     1       5.355  31.643  57.346  1.00  0.00     0.019 C 
HETATM    3  N   UNL     1       4.796  30.876  56.340  1.00  0.00    -0.353 N 
HETATM    4  C   UNL     1       4.910  29.505  56.226  1.00  0.00     0.087 C 
HETATM    5  C   UNL     1       5.791  28.855  57.020  1.00  0.00     0.055 C 
HETATM    6  C   UNL     1       5.882  27.339  57.081  1.00  0.00     0.019 C 
HETATM    7  N   UNL     1       5.956  26.081  57.131  1.00  0.00    -0.096 N 
HETATM    8  C   UNL     1       6.731  29.647  57.934  1.00  0.00     0.104 C 
HETATM    9  C   UNL     1       6.279  31.090  58.174  1.00  0.00     0.046 C 
HETATM   10  H   UNL     1       4.094  31.304  55.744  1.00  0.00     0.166 HD
ENDROOT
BRANCH   4  11
HETATM   11  S   UNL     1       4.051  28.707  54.943  1.00  0.00    -0.102 SA
BRANCH  11  12
HETATM   12  C   UNL     1       4.834  29.284  53.433  1.00  0.00     0.184 C 
BRANCH  12  13
HETATM   13  C   UNL     1       5.836  28.334  52.793  1.00  0.00     0.231 C 
HETATM   14  N   UNL     1       5.852  28.146  51.432  1.00  0.00    -0.324 N 
HETATM   15  H   UNL     1       6.118  27.204  51.165  1.00  0.00     0.169 HD
HETATM   16  O   UNL     1       6.506  27.583  53.511  1.00  0.00    -0.272 OA
BRANCH  14  17
HETATM   17  C   UNL     1       5.335  28.955  50.403  1.00  0.00     0.070 C 
HETATM   18  C   UNL     1       4.387  28.420  49.513  1.00  0.00     0.095 C 
HETATM   19  C   UNL     1       3.846  29.235  48.510  1.00  0.00     0.041 C 
HETATM   20  C   UNL     1       4.298  30.548  48.346  1.00  0.00     0.026 C 
HETATM   21  C   UNL     1       5.314  31.033  49.160  1.00  0.00     0.036 C 
HETATM   22 CL   UNL     1       5.929  32.620  48.914  1.00  0.00    -0.084 Cl
HETATM   23  C   UNL     1       5.844  30.234  50.169  1.00  0.00     0.056 C 
BRANCH  18  24
HETATM   24  O   UNL     1       4.018  27.117  49.735  1.00  0.00    -0.354 OA
HETATM   25  C   UNL     1       3.948  26.280  48.585  1.00  0.00     0.210 C 
ENDBRANCH  18  24
ENDBRANCH  14  17
ENDBRANCH  12  13
ENDBRANCH  11  12
ENDBRANCH   4  11
BRANCH   8  26
HETATM   26  C   UNL     1       8.147  29.575  57.338  1.00  0.00    -0.044 A 
HETATM   27  C   UNL     1       9.285  29.819  58.131  1.00  0.00     0.008 A 
HETATM   28  C   UNL     1      10.563  29.815  57.572  1.00  0.00     0.001 A 
HETATM   29  C   UNL     1      10.726  29.578  56.210  1.00  0.00     0.000 A 
HETATM   30  C   UNL     1       9.609  29.345  55.408  1.00  0.00     0.001 A 
HETATM   31  C   UNL     1       8.328  29.347  55.964  1.00  0.00     0.008 A 
ENDBRANCH   8  26
BRANCH   9  32
HETATM   32  C   UNL     1       6.793  31.873  59.349  1.00  0.00     0.255 C 
HETATM   33  N   UNL     1       6.042  31.799  60.505  1.00  0.00    -0.321 N 
HETATM   34  H   UNL     1       5.079  31.506  60.456  1.00  0.00     0.169 HD
HETATM   35  O   UNL     1       7.757  32.625  59.210  1.00  0.00    -0.268 OA
BRANCH  33  36
HETATM   36  C   UNL     1       6.445  32.378  61.731  1.00  0.00     0.068 A 
HETATM   37  C   UNL     1       7.476  31.845  62.534  1.00  0.00     0.095 A 
HETATM   38  C   UNL     1       7.854  32.525  63.697  1.00  0.00     0.039 A 
HETATM   39  C   UNL     1       7.200  33.701  64.076  1.00  0.00     0.003 A 
HETATM   40  C   UNL     1       6.141  34.188  63.315  1.00  0.00     0.002 A 
HETATM   41  C   UNL     1       5.751  33.519  62.155  1.00  0.00     0.032 A 
BRANCH  37  42
HETATM   42  O   UNL     1       7.960  30.611  62.181  1.00  0.00    -0.354 OA
HETATM   43  C   UNL     1       9.327  30.523  61.809  1.00  0.00     0.210 C 
ENDBRANCH  37  42
ENDBRANCH  33  36
ENDBRANCH   9  32
TORSDOF 9
ENDMDL
MODEL 7
REMARK VINA RESULT:      -9.0      2.358      3.137
REMARK  9 active torsions:
REMARK  status: ('A' for Active; 'I' for Inactive)
REMARK    1  A    between atoms: C_4  and  S_5 
REMARK    2  A    between atoms: S_5  and  C_6 
REMARK    3  A    between atoms: C_6  and  C_7 
REMARK       I    between atoms: C_7  and  N_8 
REMARK    4  A    between atoms: N_8  and  C_9 
REMARK    5  A    between atoms: C_10  and  O_11 
REMARK    6  A    between atoms: C_22  and  C_23 
REMARK    7  A    between atoms: C_29  and  C_30 
REMARK       I    between atoms: C_30  and  N_31 
REMARK    8  A    between atoms: N_31  and  C_32 
REMARK    9  A    between atoms: C_33  and  O_34 
ROOT
HETATM    1  C   UNL     1       4.162  31.274  54.988  1.00  0.00     0.069 C 
HETATM    2  C   UNL     1       5.008  30.194  55.622  1.00  0.00     0.019 C 
HETATM    3  N   UNL     1       5.125  29.028  54.888  1.00  0.00    -0.353 N 
HETATM    4  C   UNL     1       5.673  27.847  55.349  1.00  0.00     0.087 C 
HETATM    5  C   UNL     1       6.336  27.852  56.527  1.00  0.00     0.055 C 
HETATM    6  C   UNL     1       6.839  26.582  57.194  1.00  0.00     0.019 C 
HETATM    7  N   UNL     1       7.256  25.528  57.746  1.00  0.00    -0.096 N 
HETATM    8  C   UNL     1       6.579  29.171  57.266  1.00  0.00     0.104 C 
HETATM    9  C   UNL     1       5.666  30.310  56.804  1.00  0.00     0.046 C 
HETATM   10  H   UNL     1       4.609  28.956  54.016  1.00  0.00     0.166 HD
ENDROOT
BRANCH   4  11
HETATM   11  S   UNL     1       5.642  26.457  54.305  1.00  0.00    -0.102 SA
BRANCH  11  12
HETATM   12  C   UNL     1       5.274  27.113  52.674  1.00  0.00     0.184 C 
BRANCH  12  13
HETATM   13  C   UNL     1       5.885  26.365  51.498  1.00  0.00     0.231 C 
HETATM   14  N   UNL     1       5.585  26.726  50.206  1.00  0.00    -0.324 N 
HETATM   15  H   UNL     1       5.572  25.937  49.568  1.00  0.00     0.169 HD
HETATM   16  O   UNL     1       6.497  25.310  51.701  1.00  0.00    -0.272 OA
BRANCH  14  17
HETATM   17  C   UNL     1       5.070  27.935  49.703  1.00  0.00     0.070 C 
HETATM   18  C   UNL     1       3.884  27.919  48.948  1.00  0.00     0.095 C 
HETATM   19  C   UNL     1       3.351  29.127  48.477  1.00  0.00     0.041 C 
HETATM   20  C   UNL     1       4.032  30.329  48.689  1.00  0.00     0.026 C 
HETATM   21  C   UNL     1       5.258  30.321  49.341  1.00  0.00     0.036 C 
HETATM   22 CL   UNL     1       6.137  31.786  49.537  1.00  0.00    -0.084 Cl
HETATM   23  C   UNL     1       5.785  29.127  49.826  1.00  0.00     0.056 C 
BRANCH  18  24
HETATM   24  O   UNL     1       3.296  26.692  48.771  1.00  0.00    -0.354 OA
HETATM   25  C   UNL     1       3.119  26.270  47.422  1.00  0.00     0.210 C 
ENDBRANCH  18  24
ENDBRANCH  14  17
ENDBRANCH  12  13
ENDBRANCH  11  12
ENDBRANCH   4  11
BRANCH   8  26
HETATM   26  C   UNL     1       8.069  29.528  57.124  1.00  0.00    -0.044 A 
HETATM   27  C   UNL     1       8.754  29.330  55.910  1.00  0.00     0.008 A 
HETATM   28  C   UNL     1      10.119  29.595  55.805  1.00  0.00     0.001 A 
HETATM   29  C   UNL     1      10.825  30.055  56.912  1.00  0.00     0.000 A 
HETATM   30  C   UNL     1      10.165  30.248  58.125  1.00  0.00     0.001 A 
HETATM   31  C   UNL     1       8.798  29.983  58.235  1.00  0.00     0.008 A 
ENDBRANCH   8  26
BRANCH   9  32
HETATM   32  C   UNL     1       5.440  31.517  57.670  1.00  0.00     0.255 C 
HETATM   33  N   UNL     1       4.813  31.289  58.879  1.00  0.00    -0.321 N 
HETATM   34  H   UNL     1       4.279  30.446  59.012  1.00  0.00     0.169 HD
HETATM   35  O   UNL     1       5.697  32.639  57.236  1.00  0.00    -0.268 OA
BRANCH  33  36
HETATM   36  C   UNL     1       4.631  32.292  59.859  1.00  0.00     0.068 A 
HETATM   37  C   UNL     1       5.629  32.653  60.790  1.00  0.00     0.095 A 
HETATM   38  C   UNL     1       5.383  33.705  61.679  1.00  0.00     0.039 A 
HETATM   39  C   UNL     1       4.154  34.371  61.667  1.00  0.00     0.003 A 
HETATM   40  C   UNL     1       3.149  33.970  60.791  1.00  0.00     0.002 A 
HETATM   41  C   UNL     1       3.380  32.920  59.902  1.00  0.00     0.032 A 
BRANCH  37  42
HETATM   42  O   UNL     1       6.742  31.852  60.844  1.00  0.00    -0.354 OA
HETATM   43  C   UNL     1       7.262  31.537  62.126  1.00  0.00     0.210 C 
ENDBRANCH  37  42
ENDBRANCH  33  36
ENDBRANCH   9  32
TORSDOF 9
ENDMDL
MODEL 8
REMARK VINA RESULT:      -9.0      1.871      2.293
REMARK  9 active torsions:
REMARK  status: ('A' for Active; 'I' for Inactive)
REMARK    1  A    between atoms: C_4  and  S_5 
REMARK    2  A    between atoms: S_5  and  C_6 
REMARK    3  A    between atoms: C_6  and  C_7 
REMARK       I    between atoms: C_7  and  N_8 
REMARK    4  A    between atoms: N_8  and  C_9 
REMARK    5  A    between atoms: C_10  and  O_11 
REMARK    6  A    between atoms: C_22  and  C_23 
REMARK    7  A    between atoms: C_29  and  C_30 
REMARK       I    between atoms: C_30  and  N_31 
REMARK    8  A    between atoms: N_31  and  C_32 
REMARK    9  A    between atoms: C_33  and  O_34 
ROOT
HETATM    1  C   UNL     1       4.269  31.708  55.029  1.00  0.00     0.069 C 
HETATM    2  C   UNL     1       4.981  30.500  55.593  1.00  0.00     0.019 C 
HETATM    3  N   UNL     1       4.976  29.379  54.783  1.00  0.00    -0.353 N 
HETATM    4  C   UNL     1       5.383  28.117  55.166  1.00  0.00     0.087 C 
HETATM    5  C   UNL     1       6.028  27.969  56.346  1.00  0.00     0.055 C 
HETATM    6  C   UNL     1       6.377  26.609  56.928  1.00  0.00     0.019 C 
HETATM    7  N   UNL     1       6.667  25.481  57.411  1.00  0.00    -0.096 N 
HETATM    8  C   UNL     1       6.409  29.201  57.172  1.00  0.00     0.104 C 
HETATM    9  C   UNL     1       5.634  30.463  56.783  1.00  0.00     0.046 C 
HETATM   10  H   UNL     1       4.466  29.423  53.906  1.00  0.00     0.166 HD
ENDROOT
BRANCH   4  11
HETATM   11  S   UNL     1       5.209  26.811  54.032  1.00  0.00    -0.102 SA
BRANCH  11  12
HETATM   12  C   UNL     1       4.467  27.559  52.577  1.00  0.00     0.184 C 
BRANCH  12  13
HETATM   13  C   UNL     1       5.418  28.294  51.644  1.00  0.00     0.231 C 
HETATM   14  N   UNL     1       5.321  28.140  50.282  1.00  0.00    -0.324 N 
HETATM   15  H   UNL     1       6.219  28.195  49.812  1.00  0.00     0.169 HD
HETATM   16  O   UNL     1       6.402  28.876  52.114  1.00  0.00    -0.272 OA
BRANCH  14  17
HETATM   17  C   UNL     1       4.242  27.689  49.499  1.00  0.00     0.070 C 
HETATM   18  C   UNL     1       3.205  28.580  49.172  1.00  0.00     0.095 C 
HETATM   19  C   UNL     1       2.149  28.141  48.363  1.00  0.00     0.041 C 
HETATM   20  C   UNL     1       2.086  26.808  47.945  1.00  0.00     0.026 C 
HETATM   21  C   UNL     1       3.058  25.908  48.364  1.00  0.00     0.036 C 
HETATM   22 CL   UNL     1       2.944  24.252  47.918  1.00  0.00    -0.084 Cl
HETATM   23  C   UNL     1       4.119  26.342  49.154  1.00  0.00     0.056 C 
BRANCH  18  24
HETATM   24  O   UNL     1       3.339  29.862  49.643  1.00  0.00    -0.354 OA
HETATM   25  C   UNL     1       2.795  30.892  48.823  1.00  0.00     0.210 C 
ENDBRANCH  18  24
ENDBRANCH  14  17
ENDBRANCH  12  13
ENDBRANCH  11  12
ENDBRANCH   4  11
BRANCH   8  26
HETATM   26  C   UNL     1       7.930  29.397  57.061  1.00  0.00    -0.044 A 
HETATM   27  C   UNL     1       8.696  29.807  58.170  1.00  0.00     0.008 A 
HETATM   28  C   UNL     1      10.064  30.045  58.048  1.00  0.00     0.001 A 
HETATM   29  C   UNL     1      10.691  29.887  56.815  1.00  0.00     0.000 A 
HETATM   30  C   UNL     1       9.947  29.491  55.705  1.00  0.00     0.001 A 
HETATM   31  C   UNL     1       8.576  29.251  55.823  1.00  0.00     0.008 A 
ENDBRANCH   8  26
BRANCH   9  32
HETATM   32  C   UNL     1       5.534  31.628  57.727  1.00  0.00     0.255 C 
HETATM   33  N   UNL     1       4.988  31.361  58.967  1.00  0.00    -0.321 N 
HETATM   34  H   UNL     1       4.423  30.537  59.095  1.00  0.00     0.169 HD
HETATM   35  O   UNL     1       5.814  32.760  57.335  1.00  0.00    -0.268 OA
BRANCH  33  36
HETATM   36  C   UNL     1       4.929  32.315  60.010  1.00  0.00     0.068 A 
HETATM   37  C   UNL     1       6.032  32.623  60.836  1.00  0.00     0.095 A 
HETATM   38  C   UNL     1       5.900  33.630  61.798  1.00  0.00     0.039 A 
HETATM   39  C   UNL     1       4.685  34.302  61.961  1.00  0.00     0.003 A 
HETATM   40  C   UNL     1       3.582  33.950  61.188  1.00  0.00     0.002 A 
HETATM   41  C   UNL     1       3.698  32.945  60.227  1.00  0.00     0.032 A 
BRANCH  37  42
HETATM   42  O   UNL     1       7.135  31.816  60.722  1.00  0.00    -0.354 OA
HETATM   43  C   UNL     1       8.402  32.447  60.612  1.00  0.00     0.210 C 
ENDBRANCH  37  42
ENDBRANCH  33  36
ENDBRANCH   9  32
TORSDOF 9
ENDMDL
MODEL 9
REMARK VINA RESULT:      -8.9      3.763     10.107
REMARK  9 active torsions:
REMARK  status: ('A' for Active; 'I' for Inactive)
REMARK    1  A    between atoms: C_4  and  S_5 
REMARK    2  A    between atoms: S_5  and  C_6 
REMARK    3  A    between atoms: C_6  and  C_7 
REMARK       I    between atoms: C_7  and  N_8 
REMARK    4  A    between atoms: N_8  and  C_9 
REMARK    5  A    between atoms: C_10  and  O_11 
REMARK    6  A    between atoms: C_22  and  C_23 
REMARK    7  A    between atoms: C_29  and  C_30 
REMARK       I    between atoms: C_30  and  N_31 
REMARK    8  A    between atoms: N_31  and  C_32 
REMARK    9  A    between atoms: C_33  and  O_34 
ROOT
HETATM    1  C   UNL     1       3.002  30.995  55.008  1.00  0.00     0.069 C 
HETATM    2  C   UNL     1       4.340  30.448  55.448  1.00  0.00     0.019 C 
HETATM    3  N   UNL     1       4.795  30.910  56.669  1.00  0.00    -0.353 N 
HETATM    4  C   UNL     1       6.064  30.708  57.176  1.00  0.00     0.087 C 
HETATM    5  C   UNL     1       6.882  29.830  56.554  1.00  0.00     0.055 C 
HETATM    6  C   UNL     1       8.342  29.652  56.937  1.00  0.00     0.019 C 
HETATM    7  N   UNL     1       9.554  29.505  57.256  1.00  0.00    -0.096 N 
HETATM    8  C   UNL     1       6.360  28.985  55.388  1.00  0.00     0.104 C 
HETATM    9  C   UNL     1       5.075  29.534  54.762  1.00  0.00     0.046 C 
HETATM   10  H   UNL     1       4.239  31.606  57.157  1.00  0.00     0.166 HD
ENDROOT
BRANCH   4  11
HETATM   11  S   UNL     1       6.479  31.454  58.690  1.00  0.00    -0.102 SA
BRANCH  11  12
HETATM   12  C   UNL     1       5.081  32.512  59.082  1.00  0.00     0.184 C 
BRANCH  12  13
HETATM   13  C   UNL     1       3.902  31.837  59.766  1.00  0.00     0.231 C 
HETATM   14  N   UNL     1       3.830  31.772  61.137  1.00  0.00    -0.324 N 
HETATM   15  H   UNL     1       3.377  30.927  61.470  1.00  0.00     0.169 HD
HETATM   16  O   UNL     1       3.105  31.175  59.091  1.00  0.00    -0.272 OA
BRANCH  14  17
HETATM   17  C   UNL     1       4.484  32.547  62.113  1.00  0.00     0.070 C 
HETATM   18  C   UNL     1       3.815  33.643  62.686  1.00  0.00     0.095 C 
HETATM   19  C   UNL     1       4.452  34.393  63.683  1.00  0.00     0.041 C 
HETATM   20  C   UNL     1       5.769  34.104  64.053  1.00  0.00     0.026 C 
HETATM   21  C   UNL     1       6.459  33.089  63.403  1.00  0.00     0.036 C 
HETATM   22 CL   UNL     1       8.103  32.778  63.799  1.00  0.00    -0.084 Cl
HETATM   23  C   UNL     1       5.826  32.328  62.423  1.00  0.00     0.056 C 
BRANCH  18  24
HETATM   24  O   UNL     1       2.534  33.867  62.247  1.00  0.00    -0.354 OA
HETATM   25  C   UNL     1       2.301  35.117  61.605  1.00  0.00     0.210 C 
ENDBRANCH  18  24
ENDBRANCH  14  17
ENDBRANCH  12  13
ENDBRANCH  11  12
ENDBRANCH   4  11
BRANCH   8  26
HETATM   26  C   UNL     1       6.190  27.540  55.886  1.00  0.00    -0.044 A 
HETATM   27  C   UNL     1       7.049  26.512  55.448  1.00  0.00     0.008 A 
HETATM   28  C   UNL     1       6.851  25.192  55.852  1.00  0.00     0.001 A 
HETATM   29  C   UNL     1       5.789  24.874  56.693  1.00  0.00     0.000 A 
HETATM   30  C   UNL     1       4.923  25.876  57.128  1.00  0.00     0.001 A 
HETATM   31  C   UNL     1       5.118  27.200  56.726  1.00  0.00     0.008 A 
ENDBRANCH   8  26
BRANCH   9  32
HETATM   32  C   UNL     1       4.657  29.126  53.377  1.00  0.00     0.255 C 
HETATM   33  N   UNL     1       5.655  29.099  52.424  1.00  0.00    -0.321 N 
HETATM   34  H   UNL     1       6.507  29.612  52.580  1.00  0.00     0.169 HD
HETATM   35  O   UNL     1       3.465  28.960  53.121  1.00  0.00    -0.268 OA
BRANCH  33  36
HETATM   36  C   UNL     1       5.455  28.626  51.105  1.00  0.00     0.068 A 
HETATM   37  C   UNL     1       5.218  27.269  50.800  1.00  0.00     0.095 A 
HETATM   38  C   UNL     1       4.963  26.904  49.473  1.00  0.00     0.039 A 
HETATM   39  C   UNL     1       4.972  27.866  48.459  1.00  0.00     0.003 A 
HETATM   40  C   UNL     1       5.270  29.193  48.756  1.00  0.00     0.002 A 
HETATM   41  C   UNL     1       5.530  29.570  50.073  1.00  0.00     0.032 A 
BRANCH  37  42
HETATM   42  O   UNL     1       5.381  26.368  51.821  1.00  0.00    -0.354 OA
HETATM   43  C   UNL     1       6.563  25.582  51.821  1.00  0.00     0.210 C 
ENDBRANCH  37  42
ENDBRANCH  33  36
ENDBRANCH   9  32
TORSDOF 9
ENDMDL
MODEL 10
REMARK VINA RESULT:      -8.9      3.989      9.777
REMARK  9 active torsions:
REMARK  status: ('A' for Active; 'I' for Inactive)
REMARK    1  A    between atoms: C_4  and  S_5 
REMARK    2  A    between atoms: S_5  and  C_6 
REMARK    3  A    between atoms: C_6  and  C_7 
REMARK       I    between atoms: C_7  and  N_8 
REMARK    4  A    between atoms: N_8  and  C_9 
REMARK    5  A    between atoms: C_10  and  O_11 
REMARK    6  A    between atoms: C_22  and  C_23 
REMARK    7  A    between atoms: C_29  and  C_30 
REMARK       I    between atoms: C_30  and  N_31 
REMARK    8  A    between atoms: N_31  and  C_32 
REMARK    9  A    between atoms: C_33  and  O_34 
ROOT
HETATM    1  C   UNL     1       8.072  28.228  57.639  1.00  0.00     0.069 C 
HETATM    2  C   UNL     1       6.780  28.747  57.055  1.00  0.00     0.019 C 
HETATM    3  N   UNL     1       6.602  30.116  57.135  1.00  0.00    -0.353 N 
HETATM    4  C   UNL     1       5.428  30.786  56.854  1.00  0.00     0.087 C 
HETATM    5  C   UNL     1       4.418  30.111  56.260  1.00  0.00     0.055 C 
HETATM    6  C   UNL     1       3.038  30.712  56.050  1.00  0.00     0.019 C 
HETATM    7  N   UNL     1       1.892  31.212  55.877  1.00  0.00    -0.096 N 
HETATM    8  C   UNL     1       4.628  28.667  55.796  1.00  0.00     0.104 C 
HETATM    9  C   UNL     1       5.836  27.985  56.443  1.00  0.00     0.046 C 
HETATM   10  H   UNL     1       7.311  30.665  57.613  1.00  0.00     0.166 HD
ENDROOT
BRANCH   4  11
HETATM   11  S   UNL     1       5.374  32.504  57.110  1.00  0.00    -0.102 SA
BRANCH  11  12
HETATM   12  C   UNL     1       5.622  32.717  58.877  1.00  0.00     0.184 C 
BRANCH  12  13
HETATM   13  C   UNL     1       4.451  32.333  59.768  1.00  0.00     0.231 C 
HETATM   14  N   UNL     1       4.659  31.946  61.070  1.00  0.00    -0.324 N 
HETATM   15  H   UNL     1       3.991  31.252  61.388  1.00  0.00     0.169 HD
HETATM   16  O   UNL     1       3.330  32.180  59.268  1.00  0.00    -0.272 OA
BRANCH  14  17
HETATM   17  C   UNL     1       5.762  32.173  61.914  1.00  0.00     0.070 C 
HETATM   18  C   UNL     1       5.556  32.746  63.182  1.00  0.00     0.095 C 
HETATM   19  C   UNL     1       6.649  32.938  64.036  1.00  0.00     0.041 C 
HETATM   20  C   UNL     1       7.944  32.635  63.606  1.00  0.00     0.026 C 
HETATM   21  C   UNL     1       8.150  32.173  62.312  1.00  0.00     0.036 C 
HETATM   22 CL   UNL     1       9.747  31.872  61.751  1.00  0.00    -0.084 Cl
HETATM   23  C   UNL     1       7.066  31.963  61.464  1.00  0.00     0.056 C 
BRANCH  18  24
HETATM   24  O   UNL     1       4.255  33.032  63.512  1.00  0.00    -0.354 OA
HETATM   25  C   UNL     1       3.949  34.407  63.721  1.00  0.00     0.210 C 
ENDBRANCH  18  24
ENDBRANCH  14  17
ENDBRANCH  12  13
ENDBRANCH  11  12
ENDBRANCH   4  11
BRANCH   8  26
HETATM   26  C   UNL     1       4.716  28.668  54.260  1.00  0.00    -0.044 A 
HETATM   27  C   UNL     1       3.557  28.593  53.463  1.00  0.00     0.008 A 
HETATM   28  C   UNL     1       3.647  28.531  52.073  1.00  0.00     0.001 A 
HETATM   29  C   UNL     1       4.894  28.532  51.455  1.00  0.00     0.000 A 
HETATM   30  C   UNL     1       6.052  28.595  52.229  1.00  0.00     0.001 A 
HETATM   31  C   UNL     1       5.967  28.659  53.622  1.00  0.00     0.008 A 
ENDBRANCH   8  26
BRANCH   9  32
HETATM   32  C   UNL     1       5.955  26.487  56.467  1.00  0.00     0.255 C 
HETATM   33  N   UNL     1       6.997  25.948  55.740  1.00  0.00    -0.321 N 
HETATM   34  H   UNL     1       7.431  26.492  55.012  1.00  0.00     0.169 HD
HETATM   35  O   UNL     1       5.080  25.812  57.009  1.00  0.00    -0.268 OA
BRANCH  33  36
HETATM   36  C   UNL     1       7.319  24.570  55.751  1.00  0.00     0.068 A 
HETATM   37  C   UNL     1       7.003  23.695  54.690  1.00  0.00     0.095 A 
HETATM   38  C   UNL     1       7.422  22.362  54.759  1.00  0.00     0.039 A 
HETATM   39  C   UNL     1       8.119  21.894  55.877  1.00  0.00     0.003 A 
HETATM   40  C   UNL     1       8.373  22.745  56.949  1.00  0.00     0.002 A 
HETATM   41  C   UNL     1       7.957  24.075  56.896  1.00  0.00     0.032 A 
BRANCH  37  42
HETATM   42  O   UNL     1       6.184  24.187  53.706  1.00  0.00    -0.354 OA
HETATM   43  C   UNL     1       6.799  24.667  52.519  1.00  0.00     0.210 C 
ENDBRANCH  37  42
ENDBRANCH  33  36
ENDBRANCH   9  32
TORSDOF 9
ENDMDL
