MODEL 1
REMARK VINA RESULT:      -9.2      0.000      0.000
REMARK  6 active torsions:
REMARK  status: ('A' for Active; 'I' for Inactive)
REMARK    1  A    between atoms: C_2  and  C_3 
REMARK    2  A    between atoms: C_3  and  C_4 
REMARK    3  A    between atoms: C_7  and  C_8 
REMARK    4  A    between atoms: C_14  and  C_15 
REMARK    5  A    between atoms: C_18  and  N_19 
REMARK       I    between atoms: N_19  and  C_20 
REMARK    6  A    between atoms: C_28  and  N_29 
ROOT
HETATM    1  C   UNL     1       4.706  28.708  54.998  1.00  0.00     0.099 A 
HETATM    2  N   UNL     1       3.588  28.966  55.704  1.00  0.00    -0.172 NA
HETATM    3  N   UNL     1       4.033  29.355  56.915  1.00  0.00    -0.256 N 
HETATM    4  H   UNL     1       3.358  29.615  57.624  1.00  0.00     0.191 HD
HETATM    5  C   UNL     1       5.385  29.316  57.016  1.00  0.00     0.175 A 
HETATM    6  C   UNL     1       5.864  28.911  55.799  1.00  0.00     0.040 A 
HETATM    7  C   UNL     1       7.335  28.750  55.595  1.00  0.00     0.106 A 
HETATM    8  C   UNL     1       8.093  29.084  56.880  1.00  0.00     0.081 A 
HETATM    9  C   UNL     1       9.516  29.021  56.816  1.00  0.00     0.100 C 
HETATM   10  N   UNL     1      10.674  28.968  56.776  1.00  0.00    -0.191 NA
HETATM   11  C   UNL     1       7.473  29.486  58.024  1.00  0.00     0.140 A 
HETATM   12  O   UNL     1       6.073  29.603  58.114  1.00  0.00    -0.279 OA
ENDROOT
BRANCH   7  13
HETATM   13  C   UNL     1       7.542  27.324  55.103  1.00  0.00    -0.044 A 
HETATM   14  C   UNL     1       7.919  27.109  53.768  1.00  0.00     0.010 A 
HETATM   15  C   UNL     1       7.992  25.817  53.235  1.00  0.00     0.030 A 
HETATM   16  C   UNL     1       7.713  24.709  54.031  1.00  0.00     0.034 A 
HETATM   17  C   UNL     1       7.410  24.910  55.382  1.00  0.00     0.030 A 
HETATM   18  C   UNL     1       7.328  26.201  55.916  1.00  0.00     0.010 A 
BRANCH  16  19
HETATM   19  N   UNL     1       7.686  23.384  53.551  1.00  0.00    -0.328 N 
HETATM   20  C   UNL     1       8.522  22.342  53.912  1.00  0.00     0.218 C 
HETATM   21  C   UNL     1       8.236  21.088  53.123  1.00  0.00     0.117 C 
HETATM   22  O   UNL     1       9.403  22.357  54.764  1.00  0.00    -0.274 OA
HETATM   23  H   UNL     1       7.012  23.193  52.820  1.00  0.00     0.169 HD
ENDBRANCH  16  19
ENDBRANCH   7  13
BRANCH  11  24
HETATM   24  N   UNL     1       8.107  29.826  59.198  1.00  0.00    -0.282 NA
HETATM   25  H   UNL     1       7.577  29.665  60.051  1.00  0.00     0.126 HD
HETATM   26  H   UNL     1       8.530  30.750  59.155  1.00  0.00     0.126 HD
ENDBRANCH  11  24
BRANCH   1  27
HETATM   27  C   UNL     1       4.646  28.206  53.631  1.00  0.00    -0.005 A 
HETATM   28  C   UNL     1       4.950  29.037  52.548  1.00  0.00     0.014 A 
HETATM   29  C   UNL     1       5.054  28.510  51.257  1.00  0.00     0.008 A 
HETATM   30  C   UNL     1       4.850  27.144  51.020  1.00  0.00    -0.058 A 
HETATM   31  C   UNL     1       4.474  26.333  52.105  1.00  0.00     0.008 A 
HETATM   32  C   UNL     1       4.376  26.856  53.397  1.00  0.00     0.014 A 
BRANCH  30  33
HETATM   33  C   UNL     1       5.010  26.485  49.665  1.00  0.00     0.042 C 
BRANCH  33  34
HETATM   34  C   UNL     1       4.210  27.067  48.478  1.00  0.00    -0.019 C 
HETATM   35  C   UNL     1       3.403  25.983  47.756  1.00  0.00     0.010 C 
HETATM   36  C   UNL     1       5.161  27.730  47.475  1.00  0.00     0.010 C 
ENDBRANCH  33  34
ENDBRANCH  30  33
ENDBRANCH   1  27
TORSDOF 6
ENDMDL
MODEL 2
REMARK VINA RESULT:      -8.9      2.027      5.622
REMARK  6 active torsions:
REMARK  status: ('A' for Active; 'I' for Inactive)
REMARK    1  A    between atoms: C_2  and  C_3 
REMARK    2  A    between atoms: C_3  and  C_4 
REMARK    3  A    between atoms: C_7  and  C_8 
REMARK    4  A    between atoms: C_14  and  C_15 
REMARK    5  A    between atoms: C_18  and  N_19 
REMARK       I    between atoms: N_19  and  C_20 
REMARK    6  A    between atoms: C_28  and  N_29 
ROOT
HETATM    1  C   UNL     1       8.210  27.751  56.945  1.00  0.00     0.099 A 
HETATM    2  N   UNL     1       9.490  28.143  57.089  1.00  0.00    -0.172 NA
HETATM    3  N   UNL     1       9.408  29.405  57.557  1.00  0.00    -0.256 N 
HETATM    4  H   UNL     1      10.264  29.910  57.754  1.00  0.00     0.191 HD
HETATM    5  C   UNL     1       8.129  29.839  57.677  1.00  0.00     0.175 A 
HETATM    6  C   UNL     1       7.319  28.802  57.300  1.00  0.00     0.040 A 
HETATM    7  C   UNL     1       5.836  28.977  57.306  1.00  0.00     0.106 A 
HETATM    8  C   UNL     1       5.465  30.390  57.757  1.00  0.00     0.081 A 
HETATM    9  C   UNL     1       4.073  30.684  57.858  1.00  0.00     0.100 C 
HETATM   10  N   UNL     1       2.944  30.934  57.939  1.00  0.00    -0.191 NA
HETATM   11  C   UNL     1       6.393  31.322  58.113  1.00  0.00     0.140 A 
HETATM   12  O   UNL     1       7.774  31.056  58.069  1.00  0.00    -0.279 OA
ENDROOT
BRANCH   7  13
HETATM   13  C   UNL     1       5.362  28.628  55.901  1.00  0.00    -0.044 A 
HETATM   14  C   UNL     1       4.621  27.452  55.701  1.00  0.00     0.010 A 
HETATM   15  C   UNL     1       4.278  27.022  54.415  1.00  0.00     0.030 A 
HETATM   16  C   UNL     1       4.647  27.769  53.299  1.00  0.00     0.034 A 
HETATM   17  C   UNL     1       5.319  28.982  53.493  1.00  0.00     0.030 A 
HETATM   18  C   UNL     1       5.671  29.411  54.779  1.00  0.00     0.010 A 
BRANCH  16  19
HETATM   19  N   UNL     1       4.410  27.365  51.969  1.00  0.00    -0.328 N 
HETATM   20  C   UNL     1       5.241  26.611  51.160  1.00  0.00     0.218 C 
HETATM   21  C   UNL     1       4.680  26.449  49.769  1.00  0.00     0.117 C 
HETATM   22  O   UNL     1       6.311  26.096  51.467  1.00  0.00    -0.274 OA
HETATM   23  H   UNL     1       3.560  27.716  51.547  1.00  0.00     0.169 HD
ENDBRANCH  16  19
ENDBRANCH   7  13
BRANCH  11  24
HETATM   24  N   UNL     1       6.114  32.596  58.554  1.00  0.00    -0.282 NA
HETATM   25  H   UNL     1       5.531  33.160  57.940  1.00  0.00     0.126 HD
HETATM   26  H   UNL     1       6.947  33.083  58.878  1.00  0.00     0.126 HD
ENDBRANCH  11  24
BRANCH   1  27
HETATM   27  C   UNL     1       7.869  26.441  56.405  1.00  0.00    -0.005 A 
HETATM   28  C   UNL     1       7.788  26.233  55.024  1.00  0.00     0.014 A 
HETATM   29  C   UNL     1       7.626  24.942  54.510  1.00  0.00     0.008 A 
HETATM   30  C   UNL     1       7.536  23.835  55.362  1.00  0.00    -0.058 A 
HETATM   31  C   UNL     1       7.546  24.065  56.749  1.00  0.00     0.008 A 
HETATM   32  C   UNL     1       7.713  25.352  57.266  1.00  0.00     0.014 A 
BRANCH  30  33
HETATM   33  C   UNL     1       7.428  22.401  54.883  1.00  0.00     0.042 C 
BRANCH  33  34
HETATM   34  C   UNL     1       8.738  21.634  54.596  1.00  0.00    -0.019 C 
HETATM   35  C   UNL     1       8.617  20.759  53.344  1.00  0.00     0.010 C 
HETATM   36  C   UNL     1       9.102  20.744  55.791  1.00  0.00     0.010 C 
ENDBRANCH  33  34
ENDBRANCH  30  33
ENDBRANCH   1  27
TORSDOF 6
ENDMDL
MODEL 3
REMARK VINA RESULT:      -8.7      1.168      1.847
REMARK  6 active torsions:
REMARK  status: ('A' for Active; 'I' for Inactive)
REMARK    1  A    between atoms: C_2  and  C_3 
REMARK    2  A    between atoms: C_3  and  C_4 
REMARK    3  A    between atoms: C_7  and  C_8 
REMARK    4  A    between atoms: C_14  and  C_15 
REMARK    5  A    between atoms: C_18  and  N_19 
REMARK       I    between atoms: N_19  and  C_20 
REMARK    6  A    between atoms: C_28  and  N_29 
ROOT
HETATM    1  C   UNL     1       4.825  30.011  56.107  1.00  0.00     0.099 A 
HETATM    2  N   UNL     1       3.925  30.348  57.050  1.00  0.00    -0.172 NA
HETATM    3  N   UNL     1       4.658  30.551  58.162  1.00  0.00    -0.256 N 
HETATM    4  H   UNL     1       4.187  30.829  59.016  1.00  0.00     0.191 HD
HETATM    5  C   UNL     1       5.980  30.319  57.971  1.00  0.00     0.175 A 
HETATM    6  C   UNL     1       6.138  29.975  56.655  1.00  0.00     0.040 A 
HETATM    7  C   UNL     1       7.495  29.636  56.133  1.00  0.00     0.106 A 
HETATM    8  C   UNL     1       8.538  29.735  57.246  1.00  0.00     0.081 A 
HETATM    9  C   UNL     1       9.892  29.486  56.877  1.00  0.00     0.100 C 
HETATM   10  N   UNL     1      10.997  29.280  56.588  1.00  0.00    -0.191 NA
HETATM   11  C   UNL     1       8.229  30.103  58.521  1.00  0.00     0.140 A 
HETATM   12  O   UNL     1       6.910  30.399  58.914  1.00  0.00    -0.279 OA
ENDROOT
BRANCH   7  13
HETATM   13  C   UNL     1       7.378  28.251  55.512  1.00  0.00    -0.044 A 
HETATM   14  C   UNL     1       7.050  27.159  56.331  1.00  0.00     0.010 A 
HETATM   15  C   UNL     1       7.060  25.851  55.834  1.00  0.00     0.030 A 
HETATM   16  C   UNL     1       7.376  25.606  54.500  1.00  0.00     0.034 A 
HETATM   17  C   UNL     1       7.630  26.695  53.657  1.00  0.00     0.030 A 
HETATM   18  C   UNL     1       7.628  28.004  54.154  1.00  0.00     0.010 A 
BRANCH  16  19
HETATM   19  N   UNL     1       7.487  24.316  53.943  1.00  0.00    -0.328 N 
HETATM   20  C   UNL     1       8.337  23.298  54.341  1.00  0.00     0.218 C 
HETATM   21  C   UNL     1       8.223  22.086  53.450  1.00  0.00     0.117 C 
HETATM   22  O   UNL     1       9.108  23.304  55.294  1.00  0.00    -0.274 OA
HETATM   23  H   UNL     1       6.917  24.138  53.125  1.00  0.00     0.169 HD
ENDBRANCH  16  19
ENDBRANCH   7  13
BRANCH  11  24
HETATM   24  N   UNL     1       9.129  30.236  59.554  1.00  0.00    -0.282 NA
HETATM   25  H   UNL     1       9.098  29.510  60.265  1.00  0.00     0.126 HD
HETATM   26  H   UNL     1       9.140  31.178  59.938  1.00  0.00     0.126 HD
ENDBRANCH  11  24
BRANCH   1  27
HETATM   27  C   UNL     1       4.417  29.659  54.753  1.00  0.00    -0.005 A 
HETATM   28  C   UNL     1       4.478  30.598  53.719  1.00  0.00     0.014 A 
HETATM   29  C   UNL     1       4.245  30.211  52.395  1.00  0.00     0.008 A 
HETATM   30  C   UNL     1       3.940  28.882  52.078  1.00  0.00    -0.058 A 
HETATM   31  C   UNL     1       3.810  27.963  53.134  1.00  0.00     0.008 A 
HETATM   32  C   UNL     1       4.048  28.345  54.457  1.00  0.00     0.014 A 
BRANCH  30  33
HETATM   33  C   UNL     1       3.741  28.369  50.665  1.00  0.00     0.042 C 
BRANCH  33  34
HETATM   34  C   UNL     1       4.969  27.793  49.925  1.00  0.00    -0.019 C 
HETATM   35  C   UNL     1       5.693  28.870  49.110  1.00  0.00     0.010 C 
HETATM   36  C   UNL     1       4.536  26.663  48.983  1.00  0.00     0.010 C 
ENDBRANCH  33  34
ENDBRANCH  30  33
ENDBRANCH   1  27
TORSDOF 6
ENDMDL
MODEL 4
REMARK VINA RESULT:      -8.6      3.702      8.639
REMARK  6 active torsions:
REMARK  status: ('A' for Active; 'I' for Inactive)
REMARK    1  A    between atoms: C_2  and  C_3 
REMARK    2  A    between atoms: C_3  and  C_4 
REMARK    3  A    between atoms: C_7  and  C_8 
REMARK    4  A    between atoms: C_14  and  C_15 
REMARK    5  A    between atoms: C_18  and  N_19 
REMARK       I    between atoms: N_19  and  C_20 
REMARK    6  A    between atoms: C_28  and  N_29 
ROOT
HETATM    1  C   UNL     1       6.458  27.794  55.293  1.00  0.00     0.099 A 
HETATM    2  N   UNL     1       6.439  26.456  55.141  1.00  0.00    -0.172 NA
HETATM    3  N   UNL     1       5.460  26.230  54.243  1.00  0.00    -0.256 N 
HETATM    4  H   UNL     1       5.266  25.277  53.960  1.00  0.00     0.191 HD
HETATM    5  C   UNL     1       4.832  27.367  53.851  1.00  0.00     0.175 A 
HETATM    6  C   UNL     1       5.449  28.405  54.497  1.00  0.00     0.040 A 
HETATM    7  C   UNL     1       4.967  29.802  54.285  1.00  0.00     0.106 A 
HETATM    8  C   UNL     1       3.782  29.821  53.320  1.00  0.00     0.081 A 
HETATM    9  C   UNL     1       3.249  31.100  52.987  1.00  0.00     0.100 C 
HETATM   10  N   UNL     1       2.806  32.136  52.712  1.00  0.00    -0.191 NA
HETATM   11  C   UNL     1       3.279  28.694  52.743  1.00  0.00     0.140 A 
HETATM   12  O   UNL     1       3.805  27.417  53.013  1.00  0.00    -0.279 OA
ENDROOT
BRANCH   7  13
HETATM   13  C   UNL     1       4.652  30.357  55.668  1.00  0.00    -0.044 A 
HETATM   14  C   UNL     1       5.388  31.451  56.151  1.00  0.00     0.010 A 
HETATM   15  C   UNL     1       5.227  31.911  57.462  1.00  0.00     0.030 A 
HETATM   16  C   UNL     1       4.309  31.303  58.315  1.00  0.00     0.034 A 
HETATM   17  C   UNL     1       3.516  30.261  57.819  1.00  0.00     0.030 A 
HETATM   18  C   UNL     1       3.682  29.793  56.510  1.00  0.00     0.010 A 
BRANCH  16  19
HETATM   19  N   UNL     1       4.144  31.653  59.671  1.00  0.00    -0.328 N 
HETATM   20  C   UNL     1       3.373  32.680  60.186  1.00  0.00     0.218 C 
HETATM   21  C   UNL     1       3.511  32.794  61.683  1.00  0.00     0.117 C 
HETATM   22  O   UNL     1       2.637  33.440  59.566  1.00  0.00    -0.274 OA
HETATM   23  H   UNL     1       4.697  31.124  60.333  1.00  0.00     0.169 HD
ENDBRANCH  16  19
ENDBRANCH   7  13
BRANCH  11  24
HETATM   24  N   UNL     1       2.234  28.655  51.847  1.00  0.00    -0.282 NA
HETATM   25  H   UNL     1       2.494  28.585  50.866  1.00  0.00     0.126 HD
HETATM   26  H   UNL     1       1.541  29.377  52.029  1.00  0.00     0.126 HD
ENDBRANCH  11  24
BRANCH   1  27
HETATM   27  C   UNL     1       7.362  28.443  56.234  1.00  0.00    -0.005 A 
HETATM   28  C   UNL     1       8.486  29.140  55.783  1.00  0.00     0.014 A 
HETATM   29  C   UNL     1       9.255  29.898  56.674  1.00  0.00     0.008 A 
HETATM   30  C   UNL     1       8.920  29.969  58.032  1.00  0.00    -0.058 A 
HETATM   31  C   UNL     1       7.831  29.204  58.485  1.00  0.00     0.008 A 
HETATM   32  C   UNL     1       7.058  28.452  57.598  1.00  0.00     0.014 A 
BRANCH  30  33
HETATM   33  C   UNL     1       9.659  30.819  59.046  1.00  0.00     0.042 C 
BRANCH  33  34
HETATM   34  C   UNL     1       8.903  31.240  60.326  1.00  0.00    -0.019 C 
HETATM   35  C   UNL     1       7.880  32.344  60.039  1.00  0.00     0.010 C 
HETATM   36  C   UNL     1       9.894  31.742  61.383  1.00  0.00     0.010 C 
ENDBRANCH  33  34
ENDBRANCH  30  33
ENDBRANCH   1  27
TORSDOF 6
ENDMDL
MODEL 5
REMARK VINA RESULT:      -8.6      3.347      7.507
REMARK  6 active torsions:
REMARK  status: ('A' for Active; 'I' for Inactive)
REMARK    1  A    between atoms: C_2  and  C_3 
REMARK    2  A    between atoms: C_3  and  C_4 
REMARK    3  A    between atoms: C_7  and  C_8 
REMARK    4  A    between atoms: C_14  and  C_15 
REMARK    5  A    between atoms: C_18  and  N_19 
REMARK       I    between atoms: N_19  and  C_20 
REMARK    6  A    between atoms: C_28  and  N_29 
ROOT
HETATM    1  C   UNL     1       5.044  25.975  50.688  1.00  0.00     0.099 A 
HETATM    2  N   UNL     1       4.227  25.193  49.957  1.00  0.00    -0.172 NA
HETATM    3  N   UNL     1       3.702  26.022  49.033  1.00  0.00    -0.256 N 
HETATM    4  H   UNL     1       3.053  25.647  48.351  1.00  0.00     0.191 HD
HETATM    5  C   UNL     1       4.123  27.303  49.174  1.00  0.00     0.175 A 
HETATM    6  C   UNL     1       4.998  27.321  50.227  1.00  0.00     0.040 A 
HETATM    7  C   UNL     1       5.627  28.607  50.650  1.00  0.00     0.106 A 
HETATM    8  C   UNL     1       5.138  29.758  49.770  1.00  0.00     0.081 A 
HETATM    9  C   UNL     1       5.696  31.043  50.030  1.00  0.00     0.100 C 
HETATM   10  N   UNL     1       6.142  32.094  50.236  1.00  0.00    -0.191 NA
HETATM   11  C   UNL     1       4.261  29.583  48.742  1.00  0.00     0.140 A 
HETATM   12  O   UNL     1       3.721  28.323  48.426  1.00  0.00    -0.279 OA
ENDROOT
BRANCH   7  13
HETATM   13  C   UNL     1       5.303  28.773  52.129  1.00  0.00    -0.044 A 
HETATM   14  C   UNL     1       4.013  29.181  52.505  1.00  0.00     0.010 A 
HETATM   15  C   UNL     1       3.706  29.474  53.838  1.00  0.00     0.030 A 
HETATM   16  C   UNL     1       4.674  29.345  54.830  1.00  0.00     0.034 A 
HETATM   17  C   UNL     1       5.941  28.865  54.476  1.00  0.00     0.030 A 
HETATM   18  C   UNL     1       6.254  28.579  53.141  1.00  0.00     0.010 A 
BRANCH  16  19
HETATM   19  N   UNL     1       4.469  29.696  56.180  1.00  0.00    -0.328 N 
HETATM   20  C   UNL     1       4.647  30.939  56.761  1.00  0.00     0.218 C 
HETATM   21  C   UNL     1       4.403  30.907  58.249  1.00  0.00     0.117 C 
HETATM   22  O   UNL     1       4.954  31.985  56.200  1.00  0.00    -0.274 OA
HETATM   23  H   UNL     1       4.215  28.937  56.799  1.00  0.00     0.169 HD
ENDBRANCH  16  19
ENDBRANCH   7  13
BRANCH  11  24
HETATM   24  N   UNL     1       3.810  30.576  47.902  1.00  0.00    -0.282 NA
HETATM   25  H   UNL     1       2.807  30.747  47.916  1.00  0.00     0.126 HD
HETATM   26  H   UNL     1       4.190  30.489  46.962  1.00  0.00     0.126 HD
ENDBRANCH  11  24
BRANCH   1  27
HETATM   27  C   UNL     1       5.772  25.453  51.838  1.00  0.00    -0.005 A 
HETATM   28  C   UNL     1       5.101  25.110  53.016  1.00  0.00     0.014 A 
HETATM   29  C   UNL     1       5.777  24.456  54.052  1.00  0.00     0.008 A 
HETATM   30  C   UNL     1       7.136  24.138  53.935  1.00  0.00    -0.058 A 
HETATM   31  C   UNL     1       7.816  24.554  52.777  1.00  0.00     0.008 A 
HETATM   32  C   UNL     1       7.142  25.201  51.738  1.00  0.00     0.014 A 
BRANCH  30  33
HETATM   33  C   UNL     1       7.922  23.373  54.982  1.00  0.00     0.042 C 
BRANCH  33  34
HETATM   34  C   UNL     1       7.650  21.859  55.126  1.00  0.00    -0.019 C 
HETATM   35  C   UNL     1       8.418  21.259  56.308  1.00  0.00     0.010 C 
HETATM   36  C   UNL     1       8.060  21.125  53.843  1.00  0.00     0.010 C 
ENDBRANCH  33  34
ENDBRANCH  30  33
ENDBRANCH   1  27
TORSDOF 6
ENDMDL
MODEL 6
REMARK VINA RESULT:      -8.5      3.175      6.132
REMARK  6 active torsions:
REMARK  status: ('A' for Active; 'I' for Inactive)
REMARK    1  A    between atoms: C_2  and  C_3 
REMARK    2  A    between atoms: C_3  and  C_4 
REMARK    3  A    between atoms: C_7  and  C_8 
REMARK    4  A    between atoms: C_14  and  C_15 
REMARK    5  A    between atoms: C_18  and  N_19 
REMARK       I    between atoms: N_19  and  C_20 
REMARK    6  A    between atoms: C_28  and  N_29 
ROOT
HETATM    1  C   UNL     1       9.130  29.024  57.098  1.00  0.00     0.099 A 
HETATM    2  N   UNL     1      10.396  29.318  56.748  1.00  0.00    -0.172 NA
HETATM    3  N   UNL     1      10.692  30.431  57.448  1.00  0.00    -0.256 N 
HETATM    4  H   UNL     1      11.615  30.839  57.351  1.00  0.00     0.191 HD
HETATM    5  C   UNL     1       9.653  30.874  58.197  1.00  0.00     0.175 A 
HETATM    6  C   UNL     1       8.622  29.991  58.010  1.00  0.00     0.040 A 
HETATM    7  C   UNL     1       7.315  30.219  58.694  1.00  0.00     0.106 A 
HETATM    8  C   UNL     1       7.366  31.493  59.536  1.00  0.00     0.081 A 
HETATM    9  C   UNL     1       6.196  31.809  60.289  1.00  0.00     0.100 C 
HETATM   10  N   UNL     1       5.249  32.077  60.901  1.00  0.00    -0.191 NA
HETATM   11  C   UNL     1       8.478  32.274  59.634  1.00  0.00     0.140 A 
HETATM   12  O   UNL     1       9.665  31.973  58.941  1.00  0.00    -0.279 OA
ENDROOT
BRANCH   7  13
HETATM   13  C   UNL     1       6.259  30.239  57.598  1.00  0.00    -0.044 A 
HETATM   14  C   UNL     1       5.406  29.134  57.448  1.00  0.00     0.010 A 
HETATM   15  C   UNL     1       4.512  29.049  56.376  1.00  0.00     0.030 A 
HETATM   16  C   UNL     1       4.431  30.078  55.441  1.00  0.00     0.034 A 
HETATM   17  C   UNL     1       5.223  31.218  55.624  1.00  0.00     0.030 A 
HETATM   18  C   UNL     1       6.125  31.301  56.692  1.00  0.00     0.010 A 
BRANCH  16  19
HETATM   19  N   UNL     1       3.616  30.034  54.291  1.00  0.00    -0.328 N 
HETATM   20  C   UNL     1       3.932  29.492  53.057  1.00  0.00     0.218 C 
HETATM   21  C   UNL     1       2.831  29.705  52.048  1.00  0.00     0.117 C 
HETATM   22  O   UNL     1       4.955  28.890  52.749  1.00  0.00    -0.274 OA
HETATM   23  H   UNL     1       2.722  30.501  54.366  1.00  0.00     0.169 HD
ENDBRANCH  16  19
ENDBRANCH   7  13
BRANCH  11  24
HETATM   24  N   UNL     1       8.588  33.414  60.398  1.00  0.00    -0.282 NA
HETATM   25  H   UNL     1       8.254  34.272  59.965  1.00  0.00     0.126 HD
HETATM   26  H   UNL     1       9.509  33.508  60.821  1.00  0.00     0.126 HD
ENDBRANCH  11  24
BRANCH   1  27
HETATM   27  C   UNL     1       8.417  27.897  56.509  1.00  0.00    -0.005 A 
HETATM   28  C   UNL     1       7.933  27.962  55.199  1.00  0.00     0.014 A 
HETATM   29  C   UNL     1       7.399  26.825  54.583  1.00  0.00     0.008 A 
HETATM   30  C   UNL     1       7.333  25.603  55.264  1.00  0.00    -0.058 A 
HETATM   31  C   UNL     1       7.755  25.570  56.605  1.00  0.00     0.008 A 
HETATM   32  C   UNL     1       8.294  26.702  57.220  1.00  0.00     0.014 A 
BRANCH  30  33
HETATM   33  C   UNL     1       6.832  24.312  54.647  1.00  0.00     0.042 C 
BRANCH  33  34
HETATM   34  C   UNL     1       7.863  23.194  54.373  1.00  0.00    -0.019 C 
HETATM   35  C   UNL     1       7.768  22.679  52.933  1.00  0.00     0.010 C 
HETATM   36  C   UNL     1       7.639  22.023  55.337  1.00  0.00     0.010 C 
ENDBRANCH  33  34
ENDBRANCH  30  33
ENDBRANCH   1  27
TORSDOF 6
ENDMDL
MODEL 7
REMARK VINA RESULT:      -8.1      2.755      6.752
REMARK  6 active torsions:
REMARK  status: ('A' for Active; 'I' for Inactive)
REMARK    1  A    between atoms: C_2  and  C_3 
REMARK    2  A    between atoms: C_3  and  C_4 
REMARK    3  A    between atoms: C_7  and  C_8 
REMARK    4  A    between atoms: C_14  and  C_15 
REMARK    5  A    between atoms: C_18  and  N_19 
REMARK       I    between atoms: N_19  and  C_20 
REMARK    6  A    between atoms: C_28  and  N_29 
ROOT
HETATM    1  C   UNL     1       4.760  27.332  53.429  1.00  0.00     0.099 A 
HETATM    2  N   UNL     1       4.494  27.401  52.111  1.00  0.00    -0.172 NA
HETATM    3  N   UNL     1       5.037  26.280  51.596  1.00  0.00    -0.256 N 
HETATM    4  H   UNL     1       4.951  26.106  50.602  1.00  0.00     0.191 HD
HETATM    5  C   UNL     1       5.668  25.524  52.529  1.00  0.00     0.175 A 
HETATM    6  C   UNL     1       5.509  26.161  53.731  1.00  0.00     0.040 A 
HETATM    7  C   UNL     1       6.116  25.579  54.965  1.00  0.00     0.106 A 
HETATM    8  C   UNL     1       6.865  24.288  54.637  1.00  0.00     0.081 A 
HETATM    9  C   UNL     1       7.455  23.595  55.735  1.00  0.00     0.100 C 
HETATM   10  N   UNL     1       7.943  23.026  56.621  1.00  0.00    -0.191 NA
HETATM   11  C   UNL     1       6.930  23.767  53.380  1.00  0.00     0.140 A 
HETATM   12  O   UNL     1       6.324  24.398  52.278  1.00  0.00    -0.279 OA
ENDROOT
BRANCH   7  13
HETATM   13  C   UNL     1       6.992  26.672  55.564  1.00  0.00    -0.044 A 
HETATM   14  C   UNL     1       7.117  26.762  56.959  1.00  0.00     0.010 A 
HETATM   15  C   UNL     1       7.801  27.825  57.558  1.00  0.00     0.030 A 
HETATM   16  C   UNL     1       8.395  28.812  56.776  1.00  0.00     0.034 A 
HETATM   17  C   UNL     1       8.341  28.690  55.383  1.00  0.00     0.030 A 
HETATM   18  C   UNL     1       7.650  27.631  54.780  1.00  0.00     0.010 A 
BRANCH  16  19
HETATM   19  N   UNL     1       9.032  29.955  57.302  1.00  0.00    -0.328 N 
HETATM   20  C   UNL     1      10.387  30.235  57.308  1.00  0.00     0.218 C 
HETATM   21  C   UNL     1      10.695  31.520  58.033  1.00  0.00     0.117 C 
HETATM   22  O   UNL     1      11.285  29.573  56.799  1.00  0.00    -0.274 OA
HETATM   23  H   UNL     1       8.429  30.616  57.776  1.00  0.00     0.169 HD
ENDBRANCH  16  19
ENDBRANCH   7  13
BRANCH  11  24
HETATM   24  N   UNL     1       7.565  22.596  53.034  1.00  0.00    -0.282 NA
HETATM   25  H   UNL     1       8.576  22.650  52.944  1.00  0.00     0.126 HD
HETATM   26  H   UNL     1       7.115  22.130  52.249  1.00  0.00     0.126 HD
ENDBRANCH  11  24
BRANCH   1  27
HETATM   27  C   UNL     1       4.375  28.401  54.342  1.00  0.00    -0.005 A 
HETATM   28  C   UNL     1       4.052  28.124  55.674  1.00  0.00     0.014 A 
HETATM   29  C   UNL     1       3.846  29.166  56.585  1.00  0.00     0.008 A 
HETATM   30  C   UNL     1       3.952  30.503  56.183  1.00  0.00    -0.058 A 
HETATM   31  C   UNL     1       4.204  30.768  54.825  1.00  0.00     0.008 A 
HETATM   32  C   UNL     1       4.417  29.730  53.915  1.00  0.00     0.014 A 
BRANCH  30  33
HETATM   33  C   UNL     1       3.811  31.686  57.121  1.00  0.00     0.042 C 
BRANCH  33  34
HETATM   34  C   UNL     1       5.082  32.496  57.459  1.00  0.00    -0.019 C 
HETATM   35  C   UNL     1       6.103  31.650  58.227  1.00  0.00     0.010 C 
HETATM   36  C   UNL     1       4.716  33.723  58.305  1.00  0.00     0.010 C 
ENDBRANCH  33  34
ENDBRANCH  30  33
ENDBRANCH   1  27
TORSDOF 6
ENDMDL
MODEL 8
REMARK VINA RESULT:      -7.9      2.903      7.513
REMARK  6 active torsions:
REMARK  status: ('A' for Active; 'I' for Inactive)
REMARK    1  A    between atoms: C_2  and  C_3 
REMARK    2  A    between atoms: C_3  and  C_4 
REMARK    3  A    between atoms: C_7  and  C_8 
REMARK    4  A    between atoms: C_14  and  C_15 
REMARK    5  A    between atoms: C_18  and  N_19 
REMARK       I    between atoms: N_19  and  C_20 
REMARK    6  A    between atoms: C_28  and  N_29 
ROOT
HETATM    1  C   UNL     1       4.777  29.666  53.992  1.00  0.00     0.099 A 
HETATM    2  N   UNL     1       4.576  30.297  52.820  1.00  0.00    -0.172 NA
HETATM    3  N   UNL     1       5.043  29.442  51.889  1.00  0.00    -0.256 N 
HETATM    4  H   UNL     1       4.986  29.703  50.912  1.00  0.00     0.191 HD
HETATM    5  C   UNL     1       5.567  28.313  52.428  1.00  0.00     0.175 A 
HETATM    6  C   UNL     1       5.411  28.409  53.785  1.00  0.00     0.040 A 
HETATM    7  C   UNL     1       5.911  27.316  54.670  1.00  0.00     0.106 A 
HETATM    8  C   UNL     1       6.563  26.210  53.840  1.00  0.00     0.081 A 
HETATM    9  C   UNL     1       7.044  25.074  54.555  1.00  0.00     0.100 C 
HETATM   10  N   UNL     1       7.442  24.147  55.127  1.00  0.00    -0.191 NA
HETATM   11  C   UNL     1       6.637  26.250  52.480  1.00  0.00     0.140 A 
HETATM   12  O   UNL     1       6.135  27.334  51.736  1.00  0.00    -0.279 OA
ENDROOT
BRANCH   7  13
HETATM   13  C   UNL     1       6.850  27.977  55.672  1.00  0.00    -0.044 A 
HETATM   14  C   UNL     1       6.519  27.956  57.036  1.00  0.00     0.010 A 
HETATM   15  C   UNL     1       7.278  28.661  57.976  1.00  0.00     0.030 A 
HETATM   16  C   UNL     1       8.400  29.384  57.578  1.00  0.00     0.034 A 
HETATM   17  C   UNL     1       8.781  29.348  56.232  1.00  0.00     0.030 A 
HETATM   18  C   UNL     1       8.018  28.650  55.287  1.00  0.00     0.010 A 
BRANCH  16  19
HETATM   19  N   UNL     1       9.169  30.184  58.448  1.00  0.00    -0.328 N 
HETATM   20  C   UNL     1       8.829  31.417  58.977  1.00  0.00     0.218 C 
HETATM   21  C   UNL     1       9.945  32.002  59.806  1.00  0.00     0.117 C 
HETATM   22  O   UNL     1       7.770  32.018  58.841  1.00  0.00    -0.274 OA
HETATM   23  H   UNL     1      10.095  29.837  58.663  1.00  0.00     0.169 HD
ENDBRANCH  16  19
ENDBRANCH   7  13
BRANCH  11  24
HETATM   24  N   UNL     1       7.185  25.271  51.682  1.00  0.00    -0.282 NA
HETATM   25  H   UNL     1       7.800  25.596  50.940  1.00  0.00     0.126 HD
HETATM   26  H   UNL     1       6.492  24.598  51.365  1.00  0.00     0.126 HD
ENDBRANCH  11  24
BRANCH   1  27
HETATM   27  C   UNL     1       4.444  30.295  55.265  1.00  0.00    -0.005 A 
HETATM   28  C   UNL     1       3.453  29.758  56.092  1.00  0.00     0.014 A 
HETATM   29  C   UNL     1       3.254  30.265  57.381  1.00  0.00     0.008 A 
HETATM   30  C   UNL     1       4.035  31.322  57.865  1.00  0.00    -0.058 A 
HETATM   31  C   UNL     1       4.977  31.901  56.998  1.00  0.00     0.008 A 
HETATM   32  C   UNL     1       5.183  31.393  55.713  1.00  0.00     0.014 A 
BRANCH  30  33
HETATM   33  C   UNL     1       3.927  31.882  59.270  1.00  0.00     0.042 C 
BRANCH  33  34
HETATM   34  C   UNL     1       4.364  33.346  59.500  1.00  0.00    -0.019 C 
HETATM   35  C   UNL     1       5.016  33.531  60.874  1.00  0.00     0.010 C 
HETATM   36  C   UNL     1       3.153  34.281  59.394  1.00  0.00     0.010 C 
ENDBRANCH  33  34
ENDBRANCH  30  33
ENDBRANCH   1  27
TORSDOF 6
ENDMDL
MODEL 9
REMARK VINA RESULT:      -7.6      3.806      6.658
REMARK  6 active torsions:
REMARK  status: ('A' for Active; 'I' for Inactive)
REMARK    1  A    between atoms: C_2  and  C_3 
REMARK    2  A    between atoms: C_3  and  C_4 
REMARK    3  A    between atoms: C_7  and  C_8 
REMARK    4  A    between atoms: C_14  and  C_15 
REMARK    5  A    between atoms: C_18  and  N_19 
REMARK       I    between atoms: N_19  and  C_20 
REMARK    6  A    between atoms: C_28  and  N_29 
ROOT
HETATM    1  C   UNL     1       8.219  30.073  58.014  1.00  0.00     0.099 A 
HETATM    2  N   UNL     1       9.458  30.539  58.262  1.00  0.00    -0.172 NA
HETATM    3  N   UNL     1       9.272  31.555  59.127  1.00  0.00    -0.256 N 
HETATM    4  H   UNL     1      10.081  32.061  59.469  1.00  0.00     0.191 HD
HETATM    5  C   UNL     1       7.964  31.776  59.406  1.00  0.00     0.175 A 
HETATM    6  C   UNL     1       7.245  30.837  58.716  1.00  0.00     0.040 A 
HETATM    7  C   UNL     1       5.755  30.829  58.803  1.00  0.00     0.106 A 
HETATM    8  C   UNL     1       5.265  31.960  59.708  1.00  0.00     0.081 A 
HETATM    9  C   UNL     1       3.858  32.043  59.922  1.00  0.00     0.100 C 
HETATM   10  N   UNL     1       2.715  32.121  60.100  1.00  0.00    -0.191 NA
HETATM   11  C   UNL     1       6.110  32.821  60.341  1.00  0.00     0.140 A 
HETATM   12  O   UNL     1       7.507  32.745  60.189  1.00  0.00    -0.279 OA
ENDROOT
BRANCH   7  13
HETATM   13  C   UNL     1       5.245  30.914  57.370  1.00  0.00    -0.044 A 
HETATM   14  C   UNL     1       4.664  29.779  56.782  1.00  0.00     0.010 A 
HETATM   15  C   UNL     1       4.303  29.768  55.431  1.00  0.00     0.030 A 
HETATM   16  C   UNL     1       4.492  30.899  54.640  1.00  0.00     0.034 A 
HETATM   17  C   UNL     1       4.999  32.060  55.237  1.00  0.00     0.030 A 
HETATM   18  C   UNL     1       5.370  32.071  56.587  1.00  0.00     0.010 A 
BRANCH  16  19
HETATM   19  N   UNL     1       4.230  30.944  53.256  1.00  0.00    -0.328 N 
HETATM   20  C   UNL     1       3.208  31.622  52.615  1.00  0.00     0.218 C 
HETATM   21  C   UNL     1       3.204  31.366  51.129  1.00  0.00     0.117 C 
HETATM   22  O   UNL     1       2.375  32.365  53.124  1.00  0.00    -0.274 OA
HETATM   23  H   UNL     1       4.827  30.369  52.675  1.00  0.00     0.169 HD
ENDBRANCH  16  19
ENDBRANCH   7  13
BRANCH  11  24
HETATM   24  N   UNL     1       5.726  33.837  61.188  1.00  0.00    -0.282 NA
HETATM   25  H   UNL     1       6.069  33.770  62.143  1.00  0.00     0.126 HD
HETATM   26  H   UNL     1       4.730  34.033  61.130  1.00  0.00     0.126 HD
ENDBRANCH  11  24
BRANCH   1  27
HETATM   27  C   UNL     1       7.987  28.985  57.072  1.00  0.00    -0.005 A 
HETATM   28  C   UNL     1       7.551  27.733  57.515  1.00  0.00     0.014 A 
HETATM   29  C   UNL     1       7.171  26.748  56.597  1.00  0.00     0.008 A 
HETATM   30  C   UNL     1       7.225  26.992  55.219  1.00  0.00    -0.058 A 
HETATM   31  C   UNL     1       7.734  28.229  54.785  1.00  0.00     0.008 A 
HETATM   32  C   UNL     1       8.109  29.216  55.700  1.00  0.00     0.014 A 
BRANCH  30  33
HETATM   33  C   UNL     1       6.768  26.005  54.163  1.00  0.00     0.042 C 
BRANCH  33  34
HETATM   34  C   UNL     1       7.720  24.843  53.799  1.00  0.00    -0.019 C 
HETATM   35  C   UNL     1       7.769  24.607  52.286  1.00  0.00     0.010 C 
HETATM   36  C   UNL     1       7.265  23.552  54.490  1.00  0.00     0.010 C 
ENDBRANCH  33  34
ENDBRANCH  30  33
ENDBRANCH   1  27
TORSDOF 6
ENDMDL
MODEL 10
REMARK VINA RESULT:      -7.3     10.937     14.281
REMARK  6 active torsions:
REMARK  status: ('A' for Active; 'I' for Inactive)
REMARK    1  A    between atoms: C_2  and  C_3 
REMARK    2  A    between atoms: C_3  and  C_4 
REMARK    3  A    between atoms: C_7  and  C_8 
REMARK    4  A    between atoms: C_14  and  C_15 
REMARK    5  A    between atoms: C_18  and  N_19 
REMARK       I    between atoms: N_19  and  C_20 
REMARK    6  A    between atoms: C_28  and  N_29 
ROOT
HETATM    1  C   UNL     1       4.238  38.560  59.002  1.00  0.00     0.099 A 
HETATM    2  N   UNL     1       4.756  38.845  57.792  1.00  0.00    -0.172 NA
HETATM    3  N   UNL     1       4.002  38.142  56.925  1.00  0.00    -0.256 N 
HETATM    4  H   UNL     1       4.203  38.209  55.934  1.00  0.00     0.191 HD
HETATM    5  C   UNL     1       3.053  37.393  57.540  1.00  0.00     0.175 A 
HETATM    6  C   UNL     1       3.162  37.637  58.883  1.00  0.00     0.040 A 
HETATM    7  C   UNL     1       2.255  36.937  59.841  1.00  0.00     0.106 A 
HETATM    8  C   UNL     1       1.305  36.001  59.094  1.00  0.00     0.081 A 
HETATM    9  C   UNL     1       0.346  35.301  59.883  1.00  0.00     0.100 C 
HETATM   10  N   UNL     1      -0.436  34.724  60.516  1.00  0.00    -0.191 NA
HETATM   11  C   UNL     1       1.309  35.869  57.737  1.00  0.00     0.140 A 
HETATM   12  O   UNL     1       2.211  36.575  56.921  1.00  0.00    -0.279 OA
ENDROOT
BRANCH   7  13
HETATM   13  C   UNL     1       3.159  36.234  60.845  1.00  0.00    -0.044 A 
HETATM   14  C   UNL     1       3.144  36.647  62.187  1.00  0.00     0.010 A 
HETATM   15  C   UNL     1       4.048  36.123  63.116  1.00  0.00     0.030 A 
HETATM   16  C   UNL     1       4.975  35.158  62.732  1.00  0.00     0.034 A 
HETATM   17  C   UNL     1       4.948  34.684  61.415  1.00  0.00     0.030 A 
HETATM   18  C   UNL     1       4.049  35.212  60.480  1.00  0.00     0.010 A 
BRANCH  16  19
HETATM   19  N   UNL     1       5.971  34.640  63.586  1.00  0.00    -0.328 N 
HETATM   20  C   UNL     1       5.841  33.607  64.498  1.00  0.00     0.218 C 
HETATM   21  C   UNL     1       7.108  33.390  65.289  1.00  0.00     0.117 C 
HETATM   22  O   UNL     1       4.855  32.905  64.692  1.00  0.00    -0.274 OA
HETATM   23  H   UNL     1       6.863  35.117  63.563  1.00  0.00     0.169 HD
ENDBRANCH  16  19
ENDBRANCH   7  13
BRANCH  11  24
HETATM   24  N   UNL     1       0.459  35.065  57.012  1.00  0.00    -0.282 NA
HETATM   25  H   UNL     1      -0.481  35.427  56.871  1.00  0.00     0.126 HD
HETATM   26  H   UNL     1       0.475  34.099  57.331  1.00  0.00     0.126 HD
ENDBRANCH  11  24
BRANCH   1  27
HETATM   27  C   UNL     1       4.818  39.096  60.227  1.00  0.00    -0.005 A 
HETATM   28  C   UNL     1       4.166  40.101  60.949  1.00  0.00     0.014 A 
HETATM   29  C   UNL     1       4.640  40.493  62.205  1.00  0.00     0.008 A 
HETATM   30  C   UNL     1       5.778  39.895  62.762  1.00  0.00    -0.058 A 
HETATM   31  C   UNL     1       6.466  38.940  61.995  1.00  0.00     0.008 A 
HETATM   32  C   UNL     1       5.991  38.541  60.743  1.00  0.00     0.014 A 
BRANCH  30  33
HETATM   33  C   UNL     1       6.315  40.215  64.143  1.00  0.00     0.042 C 
BRANCH  33  34
HETATM   34  C   UNL     1       6.527  41.702  64.510  1.00  0.00    -0.019 C 
HETATM   35  C   UNL     1       7.646  42.334  63.674  1.00  0.00     0.010 C 
HETATM   36  C   UNL     1       6.881  41.833  65.996  1.00  0.00     0.010 C 
ENDBRANCH  33  34
ENDBRANCH  30  33
ENDBRANCH   1  27
TORSDOF 6
ENDMDL
