MODEL 1
REMARK VINA RESULT:      -8.8      0.000      0.000
REMARK  1 active torsions:
REMARK  status: ('A' for Active; 'I' for Inactive)
REMARK    1  A    between atoms: C_8  and  C_9 
ROOT
HETATM    1  C   UNL     1       5.198  29.317  54.249  1.00  0.00     0.073 C 
HETATM    2  C   UNL     1       5.464  29.438  55.705  1.00  0.00     0.062 C 
HETATM    3  N   UNL     1       4.466  29.822  56.509  1.00  0.00    -0.178 NA
HETATM    4  N   UNL     1       5.004  29.788  57.731  1.00  0.00    -0.262 N 
HETATM    5  H   UNL     1       4.415  30.031  58.519  1.00  0.00     0.191 HD
HETATM    6  C   UNL     1       6.349  29.548  57.725  1.00  0.00     0.134 C 
HETATM    7  C   UNL     1       6.674  29.178  56.433  1.00  0.00     0.032 C 
HETATM    8  C   UNL     1       7.935  28.569  55.883  1.00  0.00     0.120 C 
HETATM    9  S   UNL     1       9.545  29.158  56.510  1.00  0.00    -0.141 SA
HETATM   10  C   UNL     1       9.070  30.524  57.610  1.00  0.00     0.136 C 
HETATM   11  C   UNL     1      10.341  31.309  57.946  1.00  0.00     0.031 C 
HETATM   12  C   UNL     1       8.421  30.003  58.896  1.00  0.00     0.236 C 
HETATM   13  O   UNL     1       9.006  29.975  59.982  1.00  0.00    -0.272 OA
HETATM   14  N   UNL     1       7.094  29.658  58.871  1.00  0.00    -0.311 N 
HETATM   15  H   UNL     1       6.661  29.596  59.786  1.00  0.00     0.170 HD
ENDROOT
BRANCH   8  16
HETATM   16  C   UNL     1       7.776  27.051  56.073  1.00  0.00    -0.029 A 
HETATM   17  C   UNL     1       7.524  26.152  54.983  1.00  0.00    -0.018 A 
HETATM   18  C   UNL     1       7.339  24.770  55.268  1.00  0.00    -0.025 A 
HETATM   19  C   UNL     1       7.448  26.526  53.617  1.00  0.00     0.013 A 
HETATM   20  C   UNL     1       7.062  23.856  54.239  1.00  0.00     0.012 A 
HETATM   21  C   UNL     1       7.433  24.296  56.582  1.00  0.00     0.012 A 
HETATM   22  C   UNL     1       6.967  24.270  52.914  1.00  0.00     0.001 A 
HETATM   23  C   UNL     1       7.168  25.605  52.603  1.00  0.00     0.001 A 
HETATM   24  C   UNL     1       7.704  25.160  57.632  1.00  0.00     0.002 A 
HETATM   25  C   UNL     1       7.866  26.516  57.382  1.00  0.00     0.009 A 
ENDBRANCH   8  16
TORSDOF 1
ENDMDL
MODEL 2
REMARK VINA RESULT:      -8.7      2.428      5.957
REMARK  1 active torsions:
REMARK  status: ('A' for Active; 'I' for Inactive)
REMARK    1  A    between atoms: C_8  and  C_9 
ROOT
HETATM    1  C   UNL     1       4.815  30.524  57.763  1.00  0.00     0.073 C 
HETATM    2  C   UNL     1       5.341  29.883  56.530  1.00  0.00     0.062 C 
HETATM    3  N   UNL     1       4.890  30.309  55.344  1.00  0.00    -0.178 NA
HETATM    4  N   UNL     1       5.577  29.582  54.458  1.00  0.00    -0.262 N 
HETATM    5  H   UNL     1       5.408  29.747  53.473  1.00  0.00     0.191 HD
HETATM    6  C   UNL     1       6.333  28.600  55.032  1.00  0.00     0.134 C 
HETATM    7  C   UNL     1       6.319  28.841  56.394  1.00  0.00     0.032 C 
HETATM    8  C   UNL     1       7.156  28.250  57.496  1.00  0.00     0.120 C 
HETATM    9  S   UNL     1       7.553  26.470  57.445  1.00  0.00    -0.141 SA
HETATM   10  C   UNL     1       6.602  25.889  56.009  1.00  0.00     0.136 C 
HETATM   11  C   UNL     1       6.591  24.359  56.051  1.00  0.00     0.031 C 
HETATM   12  C   UNL     1       7.226  26.372  54.696  1.00  0.00     0.236 C 
HETATM   13  O   UNL     1       7.878  25.637  53.950  1.00  0.00    -0.272 OA
HETATM   14  N   UNL     1       6.957  27.647  54.268  1.00  0.00    -0.311 N 
HETATM   15  H   UNL     1       7.153  27.809  53.287  1.00  0.00     0.170 HD
ENDROOT
BRANCH   8  16
HETATM   16  C   UNL     1       8.430  29.112  57.551  1.00  0.00    -0.029 A 
HETATM   17  C   UNL     1       8.614  30.170  58.501  1.00  0.00    -0.018 A 
HETATM   18  C   UNL     1       9.806  30.945  58.437  1.00  0.00    -0.025 A 
HETATM   19  C   UNL     1       7.695  30.516  59.526  1.00  0.00     0.013 A 
HETATM   20  C   UNL     1      10.018  32.010  59.328  1.00  0.00     0.012 A 
HETATM   21  C   UNL     1      10.791  30.658  57.485  1.00  0.00     0.012 A 
HETATM   22  C   UNL     1       9.078  32.334  60.300  1.00  0.00     0.001 A 
HETATM   23  C   UNL     1       7.919  31.582  60.403  1.00  0.00     0.001 A 
HETATM   24  C   UNL     1      10.626  29.617  56.583  1.00  0.00     0.002 A 
HETATM   25  C   UNL     1       9.462  28.861  56.613  1.00  0.00     0.009 A 
ENDBRANCH   8  16
TORSDOF 1
ENDMDL
MODEL 3
REMARK VINA RESULT:      -8.6      3.358      5.115
REMARK  1 active torsions:
REMARK  status: ('A' for Active; 'I' for Inactive)
REMARK    1  A    between atoms: C_8  and  C_9 
ROOT
HETATM    1  C   UNL     1       7.601  26.361  57.730  1.00  0.00     0.073 C 
HETATM    2  C   UNL     1       7.698  27.158  56.480  1.00  0.00     0.062 C 
HETATM    3  N   UNL     1       8.581  28.162  56.428  1.00  0.00    -0.178 NA
HETATM    4  N   UNL     1       8.457  28.637  55.186  1.00  0.00    -0.262 N 
HETATM    5  H   UNL     1       9.052  29.409  54.909  1.00  0.00     0.191 HD
HETATM    6  C   UNL     1       7.420  28.080  54.493  1.00  0.00     0.134 C 
HETATM    7  C   UNL     1       6.976  27.009  55.249  1.00  0.00     0.032 C 
HETATM    8  C   UNL     1       6.037  25.889  54.892  1.00  0.00     0.120 C 
HETATM    9  S   UNL     1       4.561  26.262  53.885  1.00  0.00    -0.141 SA
HETATM   10  C   UNL     1       4.628  28.072  53.732  1.00  0.00     0.136 C 
HETATM   11  C   UNL     1       3.276  28.539  53.187  1.00  0.00     0.031 C 
HETATM   12  C   UNL     1       5.752  28.509  52.787  1.00  0.00     0.236 C 
HETATM   13  O   UNL     1       5.550  28.905  51.636  1.00  0.00    -0.272 OA
HETATM   14  N   UNL     1       7.033  28.575  53.274  1.00  0.00    -0.311 N 
HETATM   15  H   UNL     1       7.668  29.127  52.708  1.00  0.00     0.170 HD
ENDROOT
BRANCH   8  16
HETATM   16  C   UNL     1       6.914  24.812  54.232  1.00  0.00    -0.029 A 
HETATM   17  C   UNL     1       7.490  23.720  54.963  1.00  0.00    -0.018 A 
HETATM   18  C   UNL     1       8.331  22.804  54.272  1.00  0.00    -0.025 A 
HETATM   19  C   UNL     1       7.285  23.465  56.344  1.00  0.00     0.013 A 
HETATM   20  C   UNL     1       8.941  21.737  54.951  1.00  0.00     0.012 A 
HETATM   21  C   UNL     1       8.564  22.950  52.899  1.00  0.00     0.012 A 
HETATM   22  C   UNL     1       8.736  21.538  56.312  1.00  0.00     0.001 A 
HETATM   23  C   UNL     1       7.902  22.400  57.007  1.00  0.00     0.001 A 
HETATM   24  C   UNL     1       7.986  23.989  52.186  1.00  0.00     0.002 A 
HETATM   25  C   UNL     1       7.179  24.907  52.843  1.00  0.00     0.009 A 
ENDBRANCH   8  16
TORSDOF 1
ENDMDL
MODEL 4
REMARK VINA RESULT:      -8.4      2.546      4.184
REMARK  1 active torsions:
REMARK  status: ('A' for Active; 'I' for Inactive)
REMARK    1  A    between atoms: C_8  and  C_9 
ROOT
HETATM    1  C   UNL     1       8.160  25.745  57.784  1.00  0.00     0.073 C 
HETATM    2  C   UNL     1       8.046  27.096  57.177  1.00  0.00     0.062 C 
HETATM    3  N   UNL     1       9.070  27.947  57.311  1.00  0.00    -0.178 NA
HETATM    4  N   UNL     1       8.682  29.029  56.629  1.00  0.00    -0.262 N 
HETATM    5  H   UNL     1       9.319  29.815  56.580  1.00  0.00     0.191 HD
HETATM    6  C   UNL     1       7.388  28.961  56.197  1.00  0.00     0.134 C 
HETATM    7  C   UNL     1       6.971  27.660  56.412  1.00  0.00     0.032 C 
HETATM    8  C   UNL     1       5.746  26.937  55.921  1.00  0.00     0.120 C 
HETATM    9  S   UNL     1       4.154  27.827  55.875  1.00  0.00    -0.141 SA
HETATM   10  C   UNL     1       4.567  29.423  56.642  1.00  0.00     0.136 C 
HETATM   11  C   UNL     1       3.250  30.137  56.958  1.00  0.00     0.031 C 
HETATM   12  C   UNL     1       5.419  30.287  55.707  1.00  0.00     0.236 C 
HETATM   13  O   UNL     1       4.969  31.252  55.085  1.00  0.00    -0.272 OA
HETATM   14  N   UNL     1       6.768  30.052  55.641  1.00  0.00    -0.311 N 
HETATM   15  H   UNL     1       7.306  30.812  55.240  1.00  0.00     0.170 HD
ENDROOT
BRANCH   8  16
HETATM   16  C   UNL     1       6.124  26.383  54.536  1.00  0.00    -0.029 A 
HETATM   17  C   UNL     1       6.654  25.064  54.343  1.00  0.00    -0.018 A 
HETATM   18  C   UNL     1       7.022  24.663  53.028  1.00  0.00    -0.025 A 
HETATM   19  C   UNL     1       6.841  24.101  55.368  1.00  0.00     0.013 A 
HETATM   20  C   UNL     1       7.572  23.392  52.793  1.00  0.00     0.012 A 
HETATM   21  C   UNL     1       6.841  25.529  51.943  1.00  0.00     0.012 A 
HETATM   22  C   UNL     1       7.765  22.487  53.832  1.00  0.00     0.001 A 
HETATM   23  C   UNL     1       7.393  22.841  55.119  1.00  0.00     0.001 A 
HETATM   24  C   UNL     1       6.303  26.794  52.125  1.00  0.00     0.002 A 
HETATM   25  C   UNL     1       5.956  27.215  53.402  1.00  0.00     0.009 A 
ENDBRANCH   8  16
TORSDOF 1
ENDMDL
MODEL 5
REMARK VINA RESULT:      -8.1      2.238      3.864
REMARK  1 active torsions:
REMARK  status: ('A' for Active; 'I' for Inactive)
REMARK    1  A    between atoms: C_8  and  C_9 
ROOT
HETATM    1  C   UNL     1       5.643  28.150  50.701  1.00  0.00     0.073 C 
HETATM    2  C   UNL     1       5.028  27.929  52.036  1.00  0.00     0.062 C 
HETATM    3  N   UNL     1       3.695  27.846  52.121  1.00  0.00    -0.178 NA
HETATM    4  N   UNL     1       3.469  27.605  53.415  1.00  0.00    -0.262 N 
HETATM    5  H   UNL     1       2.510  27.486  53.718  1.00  0.00     0.191 HD
HETATM    6  C   UNL     1       4.594  27.686  54.186  1.00  0.00     0.134 C 
HETATM    7  C   UNL     1       5.663  27.763  53.312  1.00  0.00     0.032 C 
HETATM    8  C   UNL     1       7.140  27.627  53.566  1.00  0.00     0.120 C 
HETATM    9  S   UNL     1       7.848  28.373  55.074  1.00  0.00    -0.141 SA
HETATM   10  C   UNL     1       6.426  29.247  55.793  1.00  0.00     0.136 C 
HETATM   11  C   UNL     1       6.961  30.177  56.885  1.00  0.00     0.031 C 
HETATM   12  C   UNL     1       5.414  28.265  56.393  1.00  0.00     0.236 C 
HETATM   13  O   UNL     1       5.295  28.076  57.606  1.00  0.00    -0.272 OA
HETATM   14  N   UNL     1       4.520  27.648  55.556  1.00  0.00    -0.311 N 
HETATM   15  H   UNL     1       3.717  27.245  56.025  1.00  0.00     0.170 HD
ENDROOT
BRANCH   8  16
HETATM   16  C   UNL     1       7.433  26.119  53.490  1.00  0.00    -0.029 A 
HETATM   17  C   UNL     1       7.618  25.302  54.655  1.00  0.00    -0.018 A 
HETATM   18  C   UNL     1       7.939  23.927  54.479  1.00  0.00    -0.025 A 
HETATM   19  C   UNL     1       7.501  25.753  55.995  1.00  0.00     0.013 A 
HETATM   20  C   UNL     1       8.158  23.094  55.588  1.00  0.00     0.012 A 
HETATM   21  C   UNL     1       8.040  23.379  53.195  1.00  0.00     0.012 A 
HETATM   22  C   UNL     1       8.060  23.583  56.887  1.00  0.00     0.001 A 
HETATM   23  C   UNL     1       7.725  24.912  57.090  1.00  0.00     0.001 A 
HETATM   24  C   UNL     1       7.834  24.161  52.069  1.00  0.00     0.002 A 
HETATM   25  C   UNL     1       7.542  25.511  52.215  1.00  0.00     0.009 A 
ENDBRANCH   8  16
TORSDOF 1
ENDMDL
MODEL 6
REMARK VINA RESULT:      -8.1      2.993      4.285
REMARK  1 active torsions:
REMARK  status: ('A' for Active; 'I' for Inactive)
REMARK    1  A    between atoms: C_8  and  C_9 
ROOT
HETATM    1  C   UNL     1       8.209  28.969  58.194  1.00  0.00     0.073 C 
HETATM    2  C   UNL     1       8.256  28.879  56.711  1.00  0.00     0.062 C 
HETATM    3  N   UNL     1       9.150  29.627  56.053  1.00  0.00    -0.178 NA
HETATM    4  N   UNL     1       8.972  29.289  54.773  1.00  0.00    -0.262 N 
HETATM    5  H   UNL     1       9.563  29.728  54.077  1.00  0.00     0.191 HD
HETATM    6  C   UNL     1       7.895  28.472  54.572  1.00  0.00     0.134 C 
HETATM    7  C   UNL     1       7.474  28.065  55.825  1.00  0.00     0.032 C 
HETATM    8  C   UNL     1       6.504  26.986  56.223  1.00  0.00     0.120 C 
HETATM    9  S   UNL     1       4.986  26.756  55.236  1.00  0.00    -0.141 SA
HETATM   10  C   UNL     1       5.071  28.129  54.047  1.00  0.00     0.136 C 
HETATM   11  C   UNL     1       3.700  28.241  53.374  1.00  0.00     0.031 C 
HETATM   12  C   UNL     1       6.154  27.886  52.992  1.00  0.00     0.236 C 
HETATM   13  O   UNL     1       5.901  27.540  51.835  1.00  0.00    -0.272 OA
HETATM   14  N   UNL     1       7.457  28.174  53.307  1.00  0.00    -0.311 N 
HETATM   15  H   UNL     1       8.071  28.264  52.505  1.00  0.00     0.170 HD
ENDROOT
BRANCH   8  16
HETATM   16  C   UNL     1       7.334  25.693  56.293  1.00  0.00    -0.029 A 
HETATM   17  C   UNL     1       7.400  24.750  55.214  1.00  0.00    -0.018 A 
HETATM   18  C   UNL     1       8.153  23.557  55.396  1.00  0.00    -0.025 A 
HETATM   19  C   UNL     1       6.771  24.909  53.952  1.00  0.00     0.013 A 
HETATM   20  C   UNL     1       8.223  22.590  54.380  1.00  0.00     0.012 A 
HETATM   21  C   UNL     1       8.840  23.325  56.594  1.00  0.00     0.012 A 
HETATM   22  C   UNL     1       7.568  22.772  53.166  1.00  0.00     0.001 A 
HETATM   23  C   UNL     1       6.848  23.936  52.950  1.00  0.00     0.001 A 
HETATM   24  C   UNL     1       8.799  24.249  57.627  1.00  0.00     0.002 A 
HETATM   25  C   UNL     1       8.053  25.410  57.481  1.00  0.00     0.009 A 
ENDBRANCH   8  16
TORSDOF 1
ENDMDL
MODEL 7
REMARK VINA RESULT:      -7.8      7.078      9.417
REMARK  1 active torsions:
REMARK  status: ('A' for Active; 'I' for Inactive)
REMARK    1  A    between atoms: C_8  and  C_9 
ROOT
HETATM    1  C   UNL     1       2.798  33.023  61.059  1.00  0.00     0.073 C 
HETATM    2  C   UNL     1       3.014  33.758  62.332  1.00  0.00     0.062 C 
HETATM    3  N   UNL     1       2.149  33.568  63.336  1.00  0.00    -0.178 NA
HETATM    4  N   UNL     1       2.637  34.317  64.329  1.00  0.00    -0.262 N 
HETATM    5  H   UNL     1       2.143  34.317  65.213  1.00  0.00     0.191 HD
HETATM    6  C   UNL     1       3.691  35.099  63.949  1.00  0.00     0.134 C 
HETATM    7  C   UNL     1       4.063  34.671  62.688  1.00  0.00     0.032 C 
HETATM    8  C   UNL     1       5.291  34.983  61.877  1.00  0.00     0.120 C 
HETATM    9  S   UNL     1       5.950  36.685  61.892  1.00  0.00    -0.141 SA
HETATM   10  C   UNL     1       4.711  37.584  62.873  1.00  0.00     0.136 C 
HETATM   11  C   UNL     1       4.975  39.080  62.689  1.00  0.00     0.031 C 
HETATM   12  C   UNL     1       4.801  37.215  64.357  1.00  0.00     0.236 C 
HETATM   13  O   UNL     1       5.302  37.956  65.206  1.00  0.00    -0.272 OA
HETATM   14  N   UNL     1       4.198  36.061  64.786  1.00  0.00    -0.311 N 
HETATM   15  H   UNL     1       4.047  36.015  65.788  1.00  0.00     0.170 HD
ENDROOT
BRANCH   8  16
HETATM   16  C   UNL     1       6.351  33.963  62.326  1.00  0.00    -0.029 A 
HETATM   17  C   UNL     1       6.871  32.946  61.457  1.00  0.00    -0.018 A 
HETATM   18  C   UNL     1       7.810  32.015  61.982  1.00  0.00    -0.025 A 
HETATM   19  C   UNL     1       6.528  32.787  60.090  1.00  0.00     0.013 A 
HETATM   20  C   UNL     1       8.325  30.985  61.179  1.00  0.00     0.012 A 
HETATM   21  C   UNL     1       8.240  32.111  63.311  1.00  0.00     0.012 A 
HETATM   22  C   UNL     1       7.941  30.847  59.849  1.00  0.00     0.001 A 
HETATM   23  C   UNL     1       7.046  31.754  59.303  1.00  0.00     0.001 A 
HETATM   24  C   UNL     1       7.759  33.111  64.144  1.00  0.00     0.002 A 
HETATM   25  C   UNL     1       6.825  34.017  63.660  1.00  0.00     0.009 A 
ENDBRANCH   8  16
TORSDOF 1
ENDMDL
MODEL 8
REMARK VINA RESULT:      -7.8      2.820      5.807
REMARK  1 active torsions:
REMARK  status: ('A' for Active; 'I' for Inactive)
REMARK    1  A    between atoms: C_8  and  C_9 
ROOT
HETATM    1  C   UNL     1       7.966  25.217  57.668  1.00  0.00     0.073 C 
HETATM    2  C   UNL     1       6.681  25.754  57.150  1.00  0.00     0.062 C 
HETATM    3  N   UNL     1       5.537  25.224  57.599  1.00  0.00    -0.178 NA
HETATM    4  N   UNL     1       4.588  25.941  56.991  1.00  0.00    -0.262 N 
HETATM    5  H   UNL     1       3.621  25.723  57.196  1.00  0.00     0.191 HD
HETATM    6  C   UNL     1       5.079  26.803  56.052  1.00  0.00     0.134 C 
HETATM    7  C   UNL     1       6.453  26.817  56.213  1.00  0.00     0.032 C 
HETATM    8  C   UNL     1       7.490  27.744  55.641  1.00  0.00     0.120 C 
HETATM    9  S   UNL     1       7.321  28.299  53.910  1.00  0.00    -0.141 SA
HETATM   10  C   UNL     1       5.882  27.353  53.327  1.00  0.00     0.136 C 
HETATM   11  C   UNL     1       5.833  27.482  51.802  1.00  0.00     0.031 C 
HETATM   12  C   UNL     1       4.582  27.883  53.939  1.00  0.00     0.236 C 
HETATM   13  O   UNL     1       3.773  28.572  53.312  1.00  0.00    -0.272 OA
HETATM   14  N   UNL     1       4.240  27.484  55.206  1.00  0.00    -0.311 N 
HETATM   15  H   UNL     1       3.265  27.629  55.441  1.00  0.00     0.170 HD
ENDROOT
BRANCH   8  16
HETATM   16  C   UNL     1       7.558  28.935  56.612  1.00  0.00    -0.029 A 
HETATM   17  C   UNL     1       8.795  29.525  57.035  1.00  0.00    -0.018 A 
HETATM   18  C   UNL     1       8.755  30.591  57.978  1.00  0.00    -0.025 A 
HETATM   19  C   UNL     1      10.082  29.136  56.583  1.00  0.00     0.013 A 
HETATM   20  C   UNL     1       9.940  31.181  58.445  1.00  0.00     0.012 A 
HETATM   21  C   UNL     1       7.530  31.071  58.457  1.00  0.00     0.012 A 
HETATM   22  C   UNL     1      11.185  30.750  57.996  1.00  0.00     0.001 A 
HETATM   23  C   UNL     1      11.254  29.732  57.059  1.00  0.00     0.001 A 
HETATM   24  C   UNL     1       6.333  30.519  58.027  1.00  0.00     0.002 A 
HETATM   25  C   UNL     1       6.348  29.465  57.124  1.00  0.00     0.009 A 
ENDBRANCH   8  16
TORSDOF 1
ENDMDL
MODEL 9
REMARK VINA RESULT:      -7.8      4.315      7.426
REMARK  1 active torsions:
REMARK  status: ('A' for Active; 'I' for Inactive)
REMARK    1  A    between atoms: C_8  and  C_9 
ROOT
HETATM    1  C   UNL     1       8.300  29.735  58.114  1.00  0.00     0.073 C 
HETATM    2  C   UNL     1       6.856  29.540  57.821  1.00  0.00     0.062 C 
HETATM    3  N   UNL     1       6.400  28.293  57.652  1.00  0.00    -0.178 NA
HETATM    4  N   UNL     1       5.088  28.454  57.455  1.00  0.00    -0.262 N 
HETATM    5  H   UNL     1       4.522  27.625  57.316  1.00  0.00     0.191 HD
HETATM    6  C   UNL     1       4.714  29.762  57.335  1.00  0.00     0.134 C 
HETATM    7  C   UNL     1       5.813  30.518  57.702  1.00  0.00     0.032 C 
HETATM    8  C   UNL     1       5.927  31.989  57.999  1.00  0.00     0.120 C 
HETATM    9  S   UNL     1       4.999  33.173  56.966  1.00  0.00    -0.141 SA
HETATM   10  C   UNL     1       4.265  32.102  55.694  1.00  0.00     0.136 C 
HETATM   11  C   UNL     1       3.729  33.008  54.582  1.00  0.00     0.031 C 
HETATM   12  C   UNL     1       3.127  31.252  56.270  1.00  0.00     0.236 C 
HETATM   13  O   UNL     1       1.935  31.494  56.064  1.00  0.00    -0.272 OA
HETATM   14  N   UNL     1       3.443  30.104  56.950  1.00  0.00    -0.311 N 
HETATM   15  H   UNL     1       2.672  29.455  57.055  1.00  0.00     0.170 HD
ENDROOT
BRANCH   8  16
HETATM   16  C   UNL     1       5.570  32.136  59.488  1.00  0.00    -0.029 A 
HETATM   17  C   UNL     1       6.560  32.197  60.525  1.00  0.00    -0.018 A 
HETATM   18  C   UNL     1       6.127  32.281  61.877  1.00  0.00    -0.025 A 
HETATM   19  C   UNL     1       7.963  32.187  60.315  1.00  0.00     0.013 A 
HETATM   20  C   UNL     1       7.058  32.314  62.928  1.00  0.00     0.012 A 
HETATM   21  C   UNL     1       4.762  32.334  62.185  1.00  0.00     0.012 A 
HETATM   22  C   UNL     1       8.426  32.274  62.680  1.00  0.00     0.001 A 
HETATM   23  C   UNL     1       8.878  32.217  61.372  1.00  0.00     0.001 A 
HETATM   24  C   UNL     1       3.805  32.303  61.182  1.00  0.00     0.002 A 
HETATM   25  C   UNL     1       4.203  32.200  59.856  1.00  0.00     0.009 A 
ENDBRANCH   8  16
TORSDOF 1
ENDMDL
MODEL 10
REMARK VINA RESULT:      -7.0      8.492     11.427
REMARK  1 active torsions:
REMARK  status: ('A' for Active; 'I' for Inactive)
REMARK    1  A    between atoms: C_8  and  C_9 
ROOT
HETATM    1  C   UNL     1       5.215  32.722  61.279  1.00  0.00     0.073 C 
HETATM    2  C   UNL     1       6.062  33.036  62.459  1.00  0.00     0.062 C 
HETATM    3  N   UNL     1       7.275  32.476  62.544  1.00  0.00    -0.178 NA
HETATM    4  N   UNL     1       7.786  32.986  63.668  1.00  0.00    -0.262 N 
HETATM    5  H   UNL     1       8.724  32.709  63.933  1.00  0.00     0.191 HD
HETATM    6  C   UNL     1       6.890  33.726  64.385  1.00  0.00     0.134 C 
HETATM    7  C   UNL     1       5.787  33.902  63.570  1.00  0.00     0.032 C 
HETATM    8  C   UNL     1       4.604  34.820  63.717  1.00  0.00     0.120 C 
HETATM    9  S   UNL     1       3.875  35.063  65.372  1.00  0.00    -0.141 SA
HETATM   10  C   UNL     1       4.819  33.895  66.399  1.00  0.00     0.136 C 
HETATM   11  C   UNL     1       4.090  33.766  67.738  1.00  0.00     0.031 C 
HETATM   12  C   UNL     1       6.251  34.387  66.628  1.00  0.00     0.236 C 
HETATM   13  O   UNL     1       6.632  34.880  67.693  1.00  0.00    -0.272 OA
HETATM   14  N   UNL     1       7.186  34.170  65.649  1.00  0.00    -0.311 N 
HETATM   15  H   UNL     1       8.147  34.255  65.962  1.00  0.00     0.170 HD
ENDROOT
BRANCH   8  16
HETATM   16  C   UNL     1       5.040  36.156  63.091  1.00  0.00    -0.029 A 
HETATM   17  C   UNL     1       4.680  36.546  61.758  1.00  0.00    -0.018 A 
HETATM   18  C   UNL     1       5.177  37.778  61.250  1.00  0.00    -0.025 A 
HETATM   19  C   UNL     1       3.849  35.797  60.885  1.00  0.00     0.013 A 
HETATM   20  C   UNL     1       4.876  38.189  59.941  1.00  0.00     0.012 A 
HETATM   21  C   UNL     1       5.976  38.606  62.048  1.00  0.00     0.012 A 
HETATM   22  C   UNL     1       4.080  37.411  59.107  1.00  0.00     0.001 A 
HETATM   23  C   UNL     1       3.561  36.217  59.583  1.00  0.00     0.001 A 
HETATM   24  C   UNL     1       6.302  38.243  63.346  1.00  0.00     0.002 A 
HETATM   25  C   UNL     1       5.846  37.035  63.856  1.00  0.00     0.009 A 
ENDBRANCH   8  16
TORSDOF 1
ENDMDL
