MODEL 1
REMARK VINA RESULT:      -9.6      0.000      0.000
REMARK  6 active torsions:
REMARK  status: ('A' for Active; 'I' for Inactive)
REMARK    1  A    between atoms: O_2  and  C_3 
REMARK    2  A    between atoms: C_5  and  C_6 
REMARK    3  A    between atoms: C_12  and  C_13 
REMARK       I    between atoms: C_13  and  N_14 
REMARK    4  A    between atoms: N_14  and  C_15 
REMARK    5  A    between atoms: C_15  and  C_16 
REMARK    6  A    between atoms: C_23  and  C_24 
ROOT
HETATM    1  C   UNL     1       5.208  25.209  53.883  1.00  0.00     0.118 C 
HETATM    2  N   UNL     1       4.801  25.532  52.514  1.00  0.00    -0.365 N 
HETATM    3  C   UNL     1       5.143  26.699  51.909  1.00  0.00     0.138 A 
HETATM    4  N   UNL     1       5.808  27.682  52.604  1.00  0.00    -0.240 N 
HETATM    5  N   UNL     1       5.962  28.825  51.920  1.00  0.00    -0.181 NA
HETATM    6  C   UNL     1       5.458  28.530  50.719  1.00  0.00     0.160 A 
HETATM    7  C   UNL     1       4.942  27.211  50.639  1.00  0.00     0.096 A 
HETATM    8  C   UNL     1       6.184  27.597  54.001  1.00  0.00     0.221 C 
HETATM    9  C   UNL     1       5.365  26.502  54.705  1.00  0.00     0.066 C 
HETATM   10  H   UNL     1       4.081  24.919  52.133  1.00  0.00     0.161 HD
ENDROOT
BRANCH   7  11
HETATM   11  C   UNL     1       4.336  26.615  49.463  1.00  0.00     0.257 C 
HETATM   12  N   UNL     1       4.120  27.477  48.413  1.00  0.00    -0.352 N 
HETATM   13  H   UNL     1       4.173  28.467  48.606  1.00  0.00     0.163 HD
HETATM   14  O   UNL     1       4.014  25.431  49.432  1.00  0.00    -0.267 OA
BRANCH  12  15
HETATM   15  C   UNL     1       3.428  27.047  47.222  1.00  0.00     0.161 C 
BRANCH  15  16
HETATM   16  C   UNL     1       2.161  27.833  46.996  1.00  0.00    -0.041 A 
HETATM   17  C   UNL     1       2.187  29.235  46.947  1.00  0.00     0.009 A 
HETATM   18  C   UNL     1       1.024  29.959  46.678  1.00  0.00     0.001 A 
HETATM   19  C   UNL     1      -0.175  29.291  46.443  1.00  0.00     0.000 A 
HETATM   20  C   UNL     1      -0.213  27.897  46.477  1.00  0.00     0.001 A 
HETATM   21  C   UNL     1       0.949  27.172  46.751  1.00  0.00     0.009 A 
ENDBRANCH  15  16
ENDBRANCH  12  15
ENDBRANCH   7  11
BRANCH   1  22
HETATM   22  C   UNL     1       6.399  24.266  53.926  1.00  0.00    -0.033 A 
HETATM   23  C   UNL     1       6.875  23.805  55.168  1.00  0.00     0.046 A 
HETATM   24  C   UNL     1       7.972  22.941  55.261  1.00  0.00     0.068 A 
HETATM   25  C   UNL     1       8.601  22.506  54.097  1.00  0.00     0.037 A 
HETATM   26  C   UNL     1       8.132  22.931  52.854  1.00  0.00     0.003 A 
HETATM   27  C   UNL     1       7.041  23.798  52.769  1.00  0.00     0.009 A 
BRANCH  24  28
HETATM   28  O   UNL     1       8.322  22.599  56.539  1.00  0.00    -0.356 OA
HETATM   29  C   UNL     1       8.370  21.209  56.839  1.00  0.00     0.210 C 
ENDBRANCH  24  28
ENDBRANCH   1  22
BRANCH   8  30
HETATM   30  C   UNL     1       7.683  27.439  54.131  1.00  0.00     0.409 C 
HETATM   31  F   UNL     1       8.246  26.720  53.142  1.00  0.00    -0.169 F 
HETATM   32  F   UNL     1       8.315  28.635  54.169  1.00  0.00    -0.169 F 
HETATM   33  F   UNL     1       7.985  26.817  55.301  1.00  0.00    -0.169 F 
ENDBRANCH   8  30
TORSDOF 6
ENDMDL
MODEL 2
REMARK VINA RESULT:      -9.4      5.151      9.100
REMARK  6 active torsions:
REMARK  status: ('A' for Active; 'I' for Inactive)
REMARK    1  A    between atoms: O_2  and  C_3 
REMARK    2  A    between atoms: C_5  and  C_6 
REMARK    3  A    between atoms: C_12  and  C_13 
REMARK       I    between atoms: C_13  and  N_14 
REMARK    4  A    between atoms: N_14  and  C_15 
REMARK    5  A    between atoms: C_15  and  C_16 
REMARK    6  A    between atoms: C_23  and  C_24 
ROOT
HETATM    1  C   UNL     1       7.776  27.646  53.653  1.00  0.00     0.118 C 
HETATM    2  N   UNL     1       7.929  28.173  55.011  1.00  0.00    -0.365 N 
HETATM    3  C   UNL     1       6.900  28.743  55.690  1.00  0.00     0.138 A 
HETATM    4  N   UNL     1       5.683  28.945  55.082  1.00  0.00    -0.240 N 
HETATM    5  N   UNL     1       4.808  29.635  55.828  1.00  0.00    -0.181 NA
HETATM    6  C   UNL     1       5.458  29.800  56.982  1.00  0.00     0.160 A 
HETATM    7  C   UNL     1       6.766  29.253  56.970  1.00  0.00     0.096 A 
HETATM    8  C   UNL     1       5.381  28.607  53.706  1.00  0.00     0.221 C 
HETATM    9  C   UNL     1       6.681  28.428  52.905  1.00  0.00     0.066 C 
HETATM   10  H   UNL     1       8.895  28.266  55.322  1.00  0.00     0.161 HD
ENDROOT
BRANCH   7  11
HETATM   11  C   UNL     1       7.700  29.282  58.080  1.00  0.00     0.257 C 
HETATM   12  N   UNL     1       7.514  30.306  58.978  1.00  0.00    -0.352 N 
HETATM   13  H   UNL     1       6.921  31.073  58.692  1.00  0.00     0.163 HD
HETATM   14  O   UNL     1       8.608  28.462  58.182  1.00  0.00    -0.267 OA
BRANCH  12  15
HETATM   15  C   UNL     1       8.433  30.521  60.070  1.00  0.00     0.161 C 
BRANCH  15  16
HETATM   16  C   UNL     1       7.916  31.553  61.041  1.00  0.00    -0.041 A 
HETATM   17  C   UNL     1       6.779  32.317  60.738  1.00  0.00     0.009 A 
HETATM   18  C   UNL     1       6.267  33.229  61.663  1.00  0.00     0.001 A 
HETATM   19  C   UNL     1       6.877  33.378  62.906  1.00  0.00     0.000 A 
HETATM   20  C   UNL     1       8.000  32.617  63.225  1.00  0.00     0.001 A 
HETATM   21  C   UNL     1       8.517  31.707  62.299  1.00  0.00     0.009 A 
ENDBRANCH  15  16
ENDBRANCH  12  15
ENDBRANCH   7  11
BRANCH   1  22
HETATM   22  C   UNL     1       7.623  26.134  53.632  1.00  0.00    -0.033 A 
HETATM   23  C   UNL     1       7.472  25.435  54.844  1.00  0.00     0.046 A 
HETATM   24  C   UNL     1       7.334  24.042  54.878  1.00  0.00     0.068 A 
HETATM   25  C   UNL     1       7.325  23.327  53.683  1.00  0.00     0.037 A 
HETATM   26  C   UNL     1       7.450  24.001  52.469  1.00  0.00     0.003 A 
HETATM   27  C   UNL     1       7.593  25.389  52.443  1.00  0.00     0.009 A 
BRANCH  24  28
HETATM   28  O   UNL     1       7.215  23.511  56.133  1.00  0.00    -0.356 OA
HETATM   29  C   UNL     1       8.355  23.608  56.980  1.00  0.00     0.210 C 
ENDBRANCH  24  28
ENDBRANCH   1  22
BRANCH   8  30
HETATM   30  C   UNL     1       4.444  27.419  53.653  1.00  0.00     0.409 C 
HETATM   31  F   UNL     1       4.578  26.570  54.689  1.00  0.00    -0.169 F 
HETATM   32  F   UNL     1       3.147  27.801  53.611  1.00  0.00    -0.169 F 
HETATM   33  F   UNL     1       4.663  26.705  52.518  1.00  0.00    -0.169 F 
ENDBRANCH   8  30
TORSDOF 6
ENDMDL
MODEL 3
REMARK VINA RESULT:      -9.3      4.385      7.964
REMARK  6 active torsions:
REMARK  status: ('A' for Active; 'I' for Inactive)
REMARK    1  A    between atoms: O_2  and  C_3 
REMARK    2  A    between atoms: C_5  and  C_6 
REMARK    3  A    between atoms: C_12  and  C_13 
REMARK       I    between atoms: C_13  and  N_14 
REMARK    4  A    between atoms: N_14  and  C_15 
REMARK    5  A    between atoms: C_15  and  C_16 
REMARK    6  A    between atoms: C_23  and  C_24 
ROOT
HETATM    1  C   UNL     1       6.916  27.455  57.332  1.00  0.00     0.118 C 
HETATM    2  N   UNL     1       7.056  26.651  56.116  1.00  0.00    -0.365 N 
HETATM    3  C   UNL     1       6.342  26.907  54.989  1.00  0.00     0.138 A 
HETATM    4  N   UNL     1       5.370  27.880  54.978  1.00  0.00    -0.240 N 
HETATM    5  N   UNL     1       4.660  27.931  53.842  1.00  0.00    -0.181 NA
HETATM    6  C   UNL     1       5.258  27.020  53.070  1.00  0.00     0.160 A 
HETATM    7  C   UNL     1       6.328  26.353  53.721  1.00  0.00     0.096 A 
HETATM    8  C   UNL     1       5.001  28.692  56.121  1.00  0.00     0.221 C 
HETATM    9  C   UNL     1       5.492  28.033  57.421  1.00  0.00     0.066 C 
HETATM   10  H   UNL     1       7.564  25.777  56.243  1.00  0.00     0.161 HD
ENDROOT
BRANCH   7  11
HETATM   11  C   UNL     1       7.156  25.319  53.130  1.00  0.00     0.257 C 
HETATM   12  N   UNL     1       6.763  24.028  53.395  1.00  0.00    -0.352 N 
HETATM   13  H   UNL     1       6.099  23.888  54.143  1.00  0.00     0.163 HD
HETATM   14  O   UNL     1       8.154  25.590  52.468  1.00  0.00    -0.267 OA
BRANCH  12  15
HETATM   15  C   UNL     1       7.554  22.900  52.961  1.00  0.00     0.161 C 
BRANCH  15  16
HETATM   16  C   UNL     1       8.008  22.055  54.125  1.00  0.00    -0.041 A 
HETATM   17  C   UNL     1       8.033  22.580  55.426  1.00  0.00     0.009 A 
HETATM   18  C   UNL     1       8.395  21.779  56.510  1.00  0.00     0.001 A 
HETATM   19  C   UNL     1       8.723  20.441  56.308  1.00  0.00     0.000 A 
HETATM   20  C   UNL     1       8.690  19.902  55.023  1.00  0.00     0.001 A 
HETATM   21  C   UNL     1       8.333  20.704  53.937  1.00  0.00     0.009 A 
ENDBRANCH  15  16
ENDBRANCH  12  15
ENDBRANCH   7  11
BRANCH   1  22
HETATM   22  C   UNL     1       8.038  28.468  57.489  1.00  0.00    -0.033 A 
HETATM   23  C   UNL     1       7.999  29.387  58.554  1.00  0.00     0.046 A 
HETATM   24  C   UNL     1       9.004  30.343  58.739  1.00  0.00     0.068 A 
HETATM   25  C   UNL     1      10.084  30.378  57.860  1.00  0.00     0.037 A 
HETATM   26  C   UNL     1      10.156  29.462  56.811  1.00  0.00     0.003 A 
HETATM   27  C   UNL     1       9.147  28.515  56.630  1.00  0.00     0.009 A 
BRANCH  24  28
HETATM   28  O   UNL     1       8.812  31.174  59.808  1.00  0.00    -0.356 OA
HETATM   29  C   UNL     1       9.051  30.623  61.098  1.00  0.00     0.210 C 
ENDBRANCH  24  28
ENDBRANCH   1  22
BRANCH   8  30
HETATM   30  C   UNL     1       5.471  30.116  55.924  1.00  0.00     0.409 C 
HETATM   31  F   UNL     1       4.664  30.856  55.141  1.00  0.00    -0.169 F 
HETATM   32  F   UNL     1       5.601  30.772  57.101  1.00  0.00    -0.169 F 
HETATM   33  F   UNL     1       6.703  30.124  55.351  1.00  0.00    -0.169 F 
ENDBRANCH   8  30
TORSDOF 6
ENDMDL
MODEL 4
REMARK VINA RESULT:      -9.3      2.665      3.667
REMARK  6 active torsions:
REMARK  status: ('A' for Active; 'I' for Inactive)
REMARK    1  A    between atoms: O_2  and  C_3 
REMARK    2  A    between atoms: C_5  and  C_6 
REMARK    3  A    between atoms: C_12  and  C_13 
REMARK       I    between atoms: C_13  and  N_14 
REMARK    4  A    between atoms: N_14  and  C_15 
REMARK    5  A    between atoms: C_15  and  C_16 
REMARK    6  A    between atoms: C_23  and  C_24 
ROOT
HETATM    1  C   UNL     1       5.380  25.047  55.380  1.00  0.00     0.118 C 
HETATM    2  N   UNL     1       5.028  26.263  54.644  1.00  0.00    -0.365 N 
HETATM    3  C   UNL     1       5.448  27.495  55.032  1.00  0.00     0.138 A 
HETATM    4  N   UNL     1       6.144  27.664  56.205  1.00  0.00    -0.240 N 
HETATM    5  N   UNL     1       6.377  28.946  56.523  1.00  0.00    -0.181 NA
HETATM    6  C   UNL     1       5.891  29.611  55.472  1.00  0.00     0.160 A 
HETATM    7  C   UNL     1       5.309  28.763  54.495  1.00  0.00     0.096 A 
HETATM    8  C   UNL     1       6.476  26.598  57.129  1.00  0.00     0.221 C 
HETATM    9  C   UNL     1       5.582  25.374  56.872  1.00  0.00     0.066 C 
HETATM   10  H   UNL     1       4.287  26.139  53.954  1.00  0.00     0.161 HD
ENDROOT
BRANCH   7  11
HETATM   11  C   UNL     1       4.705  29.205  53.252  1.00  0.00     0.257 C 
HETATM   12  N   UNL     1       5.533  29.180  52.155  1.00  0.00    -0.352 N 
HETATM   13  H   UNL     1       6.525  29.090  52.322  1.00  0.00     0.163 HD
HETATM   14  O   UNL     1       3.544  29.601  53.203  1.00  0.00    -0.267 OA
BRANCH  12  15
HETATM   15  C   UNL     1       5.099  29.693  50.877  1.00  0.00     0.161 C 
BRANCH  15  16
HETATM   16  C   UNL     1       5.018  28.605  49.836  1.00  0.00    -0.041 A 
HETATM   17  C   UNL     1       4.517  27.336  50.162  1.00  0.00     0.009 A 
HETATM   18  C   UNL     1       4.387  26.349  49.183  1.00  0.00     0.001 A 
HETATM   19  C   UNL     1       4.744  26.623  47.866  1.00  0.00     0.000 A 
HETATM   20  C   UNL     1       5.232  27.883  47.524  1.00  0.00     0.001 A 
HETATM   21  C   UNL     1       5.367  28.870  48.503  1.00  0.00     0.009 A 
ENDBRANCH  15  16
ENDBRANCH  12  15
ENDBRANCH   7  11
BRANCH   1  22
HETATM   22  C   UNL     1       6.518  24.282  54.725  1.00  0.00    -0.033 A 
HETATM   23  C   UNL     1       7.149  23.240  55.428  1.00  0.00     0.046 A 
HETATM   24  C   UNL     1       8.205  22.509  54.871  1.00  0.00     0.068 A 
HETATM   25  C   UNL     1       8.634  22.804  53.579  1.00  0.00     0.037 A 
HETATM   26  C   UNL     1       8.008  23.818  52.854  1.00  0.00     0.003 A 
HETATM   27  C   UNL     1       6.959  24.546  53.419  1.00  0.00     0.009 A 
BRANCH  24  28
HETATM   28  O   UNL     1       8.724  21.542  55.688  1.00  0.00    -0.356 OA
HETATM   29  C   UNL     1       7.835  20.510  56.102  1.00  0.00     0.210 C 
ENDBRANCH  24  28
ENDBRANCH   1  22
BRANCH   8  30
HETATM   30  C   UNL     1       7.961  26.310  57.084  1.00  0.00     0.409 C 
HETATM   31  F   UNL     1       8.314  25.158  57.684  1.00  0.00    -0.169 F 
HETATM   32  F   UNL     1       8.427  26.261  55.814  1.00  0.00    -0.169 F 
HETATM   33  F   UNL     1       8.647  27.309  57.698  1.00  0.00    -0.169 F 
ENDBRANCH   8  30
TORSDOF 6
ENDMDL
MODEL 5
REMARK VINA RESULT:      -9.2      4.698      8.279
REMARK  6 active torsions:
REMARK  status: ('A' for Active; 'I' for Inactive)
REMARK    1  A    between atoms: O_2  and  C_3 
REMARK    2  A    between atoms: C_5  and  C_6 
REMARK    3  A    between atoms: C_12  and  C_13 
REMARK       I    between atoms: C_13  and  N_14 
REMARK    4  A    between atoms: N_14  and  C_15 
REMARK    5  A    between atoms: C_15  and  C_16 
REMARK    6  A    between atoms: C_23  and  C_24 
ROOT
HETATM    1  C   UNL     1       7.969  25.849  53.313  1.00  0.00     0.118 C 
HETATM    2  N   UNL     1       8.004  26.652  54.537  1.00  0.00    -0.365 N 
HETATM    3  C   UNL     1       6.888  27.216  55.067  1.00  0.00     0.138 A 
HETATM    4  N   UNL     1       5.682  27.142  54.411  1.00  0.00    -0.240 N 
HETATM    5  N   UNL     1       4.702  27.854  54.986  1.00  0.00    -0.181 NA
HETATM    6  C   UNL     1       5.280  28.326  56.093  1.00  0.00     0.160 A 
HETATM    7  C   UNL     1       6.643  27.951  56.214  1.00  0.00     0.096 A 
HETATM    8  C   UNL     1       5.478  26.499  53.128  1.00  0.00     0.221 C 
HETATM    9  C   UNL     1       6.822  26.324  52.402  1.00  0.00     0.066 C 
HETATM   10  H   UNL     1       8.939  26.923  54.838  1.00  0.00     0.161 HD
ENDROOT
BRANCH   7  11
HETATM   11  C   UNL     1       7.521  28.317  57.310  1.00  0.00     0.257 C 
HETATM   12  N   UNL     1       8.035  29.591  57.252  1.00  0.00    -0.352 N 
HETATM   13  H   UNL     1       7.964  30.081  56.372  1.00  0.00     0.163 HD
HETATM   14  O   UNL     1       7.802  27.524  58.204  1.00  0.00    -0.267 OA
BRANCH  12  15
HETATM   15  C   UNL     1       9.005  30.052  58.217  1.00  0.00     0.161 C 
BRANCH  15  16
HETATM   16  C   UNL     1       8.350  30.775  59.367  1.00  0.00    -0.041 A 
HETATM   17  C   UNL     1       8.886  30.696  60.661  1.00  0.00     0.009 A 
HETATM   18  C   UNL     1       8.315  31.415  61.713  1.00  0.00     0.001 A 
HETATM   19  C   UNL     1       7.209  32.229  61.481  1.00  0.00     0.000 A 
HETATM   20  C   UNL     1       6.674  32.326  60.197  1.00  0.00     0.001 A 
HETATM   21  C   UNL     1       7.242  31.605  59.145  1.00  0.00     0.009 A 
ENDBRANCH  15  16
ENDBRANCH  12  15
ENDBRANCH   7  11
BRANCH   1  22
HETATM   22  C   UNL     1       7.994  24.356  53.598  1.00  0.00    -0.033 A 
HETATM   23  C   UNL     1       8.160  23.905  54.920  1.00  0.00     0.046 A 
HETATM   24  C   UNL     1       8.196  22.541  55.234  1.00  0.00     0.068 A 
HETATM   25  C   UNL     1       8.044  21.601  54.217  1.00  0.00     0.037 A 
HETATM   26  C   UNL     1       7.856  22.026  52.902  1.00  0.00     0.003 A 
HETATM   27  C   UNL     1       7.827  23.387  52.596  1.00  0.00     0.009 A 
BRANCH  24  28
HETATM   28  O   UNL     1       8.381  22.265  56.561  1.00  0.00    -0.356 OA
HETATM   29  C   UNL     1       8.411  20.892  56.931  1.00  0.00     0.210 C 
ENDBRANCH  24  28
ENDBRANCH   1  22
BRANCH   8  30
HETATM   30  C   UNL     1       4.689  25.220  53.303  1.00  0.00     0.409 C 
HETATM   31  F   UNL     1       3.357  25.403  53.370  1.00  0.00    -0.169 F 
HETATM   32  F   UNL     1       4.924  24.341  52.302  1.00  0.00    -0.169 F 
HETATM   33  F   UNL     1       5.067  24.595  54.449  1.00  0.00    -0.169 F 
ENDBRANCH   8  30
TORSDOF 6
ENDMDL
MODEL 6
REMARK VINA RESULT:      -9.1      4.372      7.616
REMARK  6 active torsions:
REMARK  status: ('A' for Active; 'I' for Inactive)
REMARK    1  A    between atoms: O_2  and  C_3 
REMARK    2  A    between atoms: C_5  and  C_6 
REMARK    3  A    between atoms: C_12  and  C_13 
REMARK       I    between atoms: C_13  and  N_14 
REMARK    4  A    between atoms: N_14  and  C_15 
REMARK    5  A    between atoms: C_15  and  C_16 
REMARK    6  A    between atoms: C_23  and  C_24 
ROOT
HETATM    1  C   UNL     1       7.949  25.774  53.385  1.00  0.00     0.118 C 
HETATM    2  N   UNL     1       7.438  26.945  54.101  1.00  0.00    -0.365 N 
HETATM    3  C   UNL     1       6.191  27.439  53.888  1.00  0.00     0.138 A 
HETATM    4  N   UNL     1       5.385  26.916  52.905  1.00  0.00    -0.240 N 
HETATM    5  N   UNL     1       4.238  27.587  52.723  1.00  0.00    -0.181 NA
HETATM    6  C   UNL     1       4.275  28.515  53.683  1.00  0.00     0.160 A 
HETATM    7  C   UNL     1       5.462  28.468  54.459  1.00  0.00     0.096 A 
HETATM    8  C   UNL     1       5.765  25.840  52.011  1.00  0.00     0.221 C 
HETATM    9  C   UNL     1       7.294  25.678  51.995  1.00  0.00     0.066 C 
HETATM   10  H   UNL     1       8.148  27.474  54.606  1.00  0.00     0.161 HD
ENDROOT
BRANCH   7  11
HETATM   11  C   UNL     1       5.776  29.351  55.567  1.00  0.00     0.257 C 
HETATM   12  N   UNL     1       6.496  28.777  56.589  1.00  0.00    -0.352 N 
HETATM   13  H   UNL     1       6.548  27.768  56.612  1.00  0.00     0.163 HD
HETATM   14  O   UNL     1       5.394  30.517  55.592  1.00  0.00    -0.267 OA
BRANCH  12  15
HETATM   15  C   UNL     1       6.786  29.506  57.801  1.00  0.00     0.161 C 
BRANCH  15  16
HETATM   16  C   UNL     1       8.225  29.954  57.854  1.00  0.00    -0.041 A 
HETATM   17  C   UNL     1       9.207  29.303  57.091  1.00  0.00     0.009 A 
HETATM   18  C   UNL     1      10.526  29.758  57.093  1.00  0.00     0.001 A 
HETATM   19  C   UNL     1      10.878  30.874  57.848  1.00  0.00     0.000 A 
HETATM   20  C   UNL     1       9.910  31.537  58.601  1.00  0.00     0.001 A 
HETATM   21  C   UNL     1       8.590  31.081  58.603  1.00  0.00     0.009 A 
ENDBRANCH  15  16
ENDBRANCH  12  15
ENDBRANCH   7  11
BRANCH   1  22
HETATM   22  C   UNL     1       7.881  24.507  54.222  1.00  0.00    -0.033 A 
HETATM   23  C   UNL     1       8.467  23.323  53.739  1.00  0.00     0.046 A 
HETATM   24  C   UNL     1       8.427  22.130  54.469  1.00  0.00     0.068 A 
HETATM   25  C   UNL     1       7.808  22.112  55.717  1.00  0.00     0.037 A 
HETATM   26  C   UNL     1       7.240  23.280  56.226  1.00  0.00     0.003 A 
HETATM   27  C   UNL     1       7.280  24.465  55.490  1.00  0.00     0.009 A 
BRANCH  24  28
HETATM   28  O   UNL     1       9.025  21.064  53.855  1.00  0.00    -0.356 OA
HETATM   29  C   UNL     1       8.315  20.464  52.777  1.00  0.00     0.210 C 
ENDBRANCH  24  28
ENDBRANCH   1  22
BRANCH   8  30
HETATM   30  C   UNL     1       5.005  24.579  52.358  1.00  0.00     0.409 C 
HETATM   31  F   UNL     1       5.785  23.492  52.507  1.00  0.00    -0.169 F 
HETATM   32  F   UNL     1       4.287  24.718  53.496  1.00  0.00    -0.169 F 
HETATM   33  F   UNL     1       4.105  24.294  51.379  1.00  0.00    -0.169 F 
ENDBRANCH   8  30
TORSDOF 6
ENDMDL
MODEL 7
REMARK VINA RESULT:      -8.8      9.462     12.426
REMARK  6 active torsions:
REMARK  status: ('A' for Active; 'I' for Inactive)
REMARK    1  A    between atoms: O_2  and  C_3 
REMARK    2  A    between atoms: C_5  and  C_6 
REMARK    3  A    between atoms: C_12  and  C_13 
REMARK       I    between atoms: C_13  and  N_14 
REMARK    4  A    between atoms: N_14  and  C_15 
REMARK    5  A    between atoms: C_15  and  C_16 
REMARK    6  A    between atoms: C_23  and  C_24 
ROOT
HETATM    1  C   UNL     1       4.007  32.306  62.445  1.00  0.00     0.118 C 
HETATM    2  N   UNL     1       4.276  31.726  61.127  1.00  0.00    -0.365 N 
HETATM    3  C   UNL     1       4.174  32.447  59.981  1.00  0.00     0.138 A 
HETATM    4  N   UNL     1       3.706  33.740  60.003  1.00  0.00    -0.240 N 
HETATM    5  N   UNL     1       3.535  34.280  58.787  1.00  0.00    -0.181 NA
HETATM    6  C   UNL     1       3.993  33.332  57.967  1.00  0.00     0.160 A 
HETATM    7  C   UNL     1       4.423  32.164  58.649  1.00  0.00     0.096 A 
HETATM    8  C   UNL     1       3.270  34.441  61.194  1.00  0.00     0.221 C 
HETATM    9  C   UNL     1       2.970  33.437  62.320  1.00  0.00     0.066 C 
HETATM   10  H   UNL     1       4.342  30.709  61.119  1.00  0.00     0.161 HD
ENDROOT
BRANCH   7  11
HETATM   11  C   UNL     1       4.967  30.976  58.019  1.00  0.00     0.257 C 
HETATM   12  N   UNL     1       6.217  30.600  58.454  1.00  0.00    -0.352 N 
HETATM   13  H   UNL     1       6.749  31.277  58.983  1.00  0.00     0.163 HD
HETATM   14  O   UNL     1       4.359  30.375  57.139  1.00  0.00    -0.267 OA
BRANCH  12  15
HETATM   15  C   UNL     1       6.924  29.501  57.840  1.00  0.00     0.161 C 
BRANCH  15  16
HETATM   16  C   UNL     1       8.403  29.777  57.735  1.00  0.00    -0.041 A 
HETATM   17  C   UNL     1       9.227  28.971  56.936  1.00  0.00     0.009 A 
HETATM   18  C   UNL     1      10.585  29.264  56.791  1.00  0.00     0.001 A 
HETATM   19  C   UNL     1      11.130  30.373  57.433  1.00  0.00     0.000 A 
HETATM   20  C   UNL     1      10.321  31.189  58.221  1.00  0.00     0.001 A 
HETATM   21  C   UNL     1       8.963  30.895  58.370  1.00  0.00     0.009 A 
ENDBRANCH  15  16
ENDBRANCH  12  15
ENDBRANCH   7  11
BRANCH   1  22
HETATM   22  C   UNL     1       5.281  32.672  63.189  1.00  0.00    -0.033 A 
HETATM   23  C   UNL     1       5.195  33.241  64.472  1.00  0.00     0.046 A 
HETATM   24  C   UNL     1       6.338  33.602  65.196  1.00  0.00     0.068 A 
HETATM   25  C   UNL     1       7.596  33.375  64.643  1.00  0.00     0.037 A 
HETATM   26  C   UNL     1       7.706  32.790  63.382  1.00  0.00     0.003 A 
HETATM   27  C   UNL     1       6.561  32.439  62.664  1.00  0.00     0.009 A 
BRANCH  24  28
HETATM   28  O   UNL     1       6.087  34.159  66.419  1.00  0.00    -0.356 OA
HETATM   29  C   UNL     1       4.741  34.114  66.879  1.00  0.00     0.210 C 
ENDBRANCH  24  28
ENDBRANCH   1  22
BRANCH   8  30
HETATM   30  C   UNL     1       4.268  35.516  61.563  1.00  0.00     0.409 C 
HETATM   31  F   UNL     1       5.551  35.171  61.345  1.00  0.00    -0.169 F 
HETATM   32  F   UNL     1       4.042  36.668  60.890  1.00  0.00    -0.169 F 
HETATM   33  F   UNL     1       4.154  35.823  62.882  1.00  0.00    -0.169 F 
ENDBRANCH   8  30
TORSDOF 6
ENDMDL
MODEL 8
REMARK VINA RESULT:      -8.7      9.141     12.127
REMARK  6 active torsions:
REMARK  status: ('A' for Active; 'I' for Inactive)
REMARK    1  A    between atoms: O_2  and  C_3 
REMARK    2  A    between atoms: C_5  and  C_6 
REMARK    3  A    between atoms: C_12  and  C_13 
REMARK       I    between atoms: C_13  and  N_14 
REMARK    4  A    between atoms: N_14  and  C_15 
REMARK    5  A    between atoms: C_15  and  C_16 
REMARK    6  A    between atoms: C_23  and  C_24 
ROOT
HETATM    1  C   UNL     1       3.858  32.385  62.579  1.00  0.00     0.118 C 
HETATM    2  N   UNL     1       4.110  31.800  61.260  1.00  0.00    -0.365 N 
HETATM    3  C   UNL     1       4.022  32.524  60.114  1.00  0.00     0.138 A 
HETATM    4  N   UNL     1       3.586  33.827  60.139  1.00  0.00    -0.240 N 
HETATM    5  N   UNL     1       3.424  34.372  58.924  1.00  0.00    -0.181 NA
HETATM    6  C   UNL     1       3.857  33.413  58.102  1.00  0.00     0.160 A 
HETATM    7  C   UNL     1       4.261  32.235  58.782  1.00  0.00     0.096 A 
HETATM    8  C   UNL     1       3.170  34.538  61.332  1.00  0.00     0.221 C 
HETATM    9  C   UNL     1       2.849  33.542  62.458  1.00  0.00     0.066 C 
HETATM   10  H   UNL     1       4.151  30.781  61.251  1.00  0.00     0.161 HD
ENDROOT
BRANCH   7  11
HETATM   11  C   UNL     1       4.774  31.034  58.150  1.00  0.00     0.257 C 
HETATM   12  N   UNL     1       6.088  30.739  58.429  1.00  0.00    -0.352 N 
HETATM   13  H   UNL     1       6.651  31.469  58.841  1.00  0.00     0.163 HD
HETATM   14  O   UNL     1       4.083  30.355  57.397  1.00  0.00    -0.267 OA
BRANCH  12  15
HETATM   15  C   UNL     1       6.760  29.635  57.786  1.00  0.00     0.161 C 
BRANCH  15  16
HETATM   16  C   UNL     1       8.233  29.905  57.607  1.00  0.00    -0.041 A 
HETATM   17  C   UNL     1       8.878  30.892  58.368  1.00  0.00     0.009 A 
HETATM   18  C   UNL     1      10.253  31.099  58.245  1.00  0.00     0.001 A 
HETATM   19  C   UNL     1      11.001  30.314  57.371  1.00  0.00     0.000 A 
HETATM   20  C   UNL     1      10.375  29.322  56.617  1.00  0.00     0.001 A 
HETATM   21  C   UNL     1       8.999  29.117  56.736  1.00  0.00     0.009 A 
ENDBRANCH  15  16
ENDBRANCH  12  15
ENDBRANCH   7  11
BRANCH   1  22
HETATM   22  C   UNL     1       5.142  32.719  63.319  1.00  0.00    -0.033 A 
HETATM   23  C   UNL     1       6.382  32.383  62.745  1.00  0.00     0.046 A 
HETATM   24  C   UNL     1       7.592  32.664  63.390  1.00  0.00     0.068 A 
HETATM   25  C   UNL     1       7.576  33.312  64.623  1.00  0.00     0.037 A 
HETATM   26  C   UNL     1       6.360  33.675  65.200  1.00  0.00     0.003 A 
HETATM   27  C   UNL     1       5.157  33.387  64.554  1.00  0.00     0.009 A 
BRANCH  24  28
HETATM   28  O   UNL     1       8.708  32.258  62.711  1.00  0.00    -0.356 OA
HETATM   29  C   UNL     1       8.674  30.953  62.145  1.00  0.00     0.210 C 
ENDBRANCH  24  28
ENDBRANCH   1  22
BRANCH   8  30
HETATM   30  C   UNL     1       4.195  35.589  61.698  1.00  0.00     0.409 C 
HETATM   31  F   UNL     1       5.470  35.204  61.499  1.00  0.00    -0.169 F 
HETATM   32  F   UNL     1       4.010  36.738  61.008  1.00  0.00    -0.169 F 
HETATM   33  F   UNL     1       4.076  35.916  63.012  1.00  0.00    -0.169 F 
ENDBRANCH   8  30
TORSDOF 6
ENDMDL
MODEL 9
REMARK VINA RESULT:      -8.6      9.547     12.353
REMARK  6 active torsions:
REMARK  status: ('A' for Active; 'I' for Inactive)
REMARK    1  A    between atoms: O_2  and  C_3 
REMARK    2  A    between atoms: C_5  and  C_6 
REMARK    3  A    between atoms: C_12  and  C_13 
REMARK       I    between atoms: C_13  and  N_14 
REMARK    4  A    between atoms: N_14  and  C_15 
REMARK    5  A    between atoms: C_15  and  C_16 
REMARK    6  A    between atoms: C_23  and  C_24 
ROOT
HETATM    1  C   UNL     1       4.682  32.055  62.635  1.00  0.00     0.118 C 
HETATM    2  N   UNL     1       5.455  31.682  61.448  1.00  0.00    -0.365 N 
HETATM    3  C   UNL     1       5.411  32.403  60.297  1.00  0.00     0.138 A 
HETATM    4  N   UNL     1       4.549  33.465  60.165  1.00  0.00    -0.240 N 
HETATM    5  N   UNL     1       4.522  33.997  58.934  1.00  0.00    -0.181 NA
HETATM    6  C   UNL     1       5.463  33.306  58.285  1.00  0.00     0.160 A 
HETATM    7  C   UNL     1       6.070  32.304  59.084  1.00  0.00     0.096 A 
HETATM    8  C   UNL     1       3.617  33.905  61.184  1.00  0.00     0.221 C 
HETATM    9  C   UNL     1       3.395  32.789  62.217  1.00  0.00     0.066 C 
HETATM   10  H   UNL     1       5.856  30.746  61.482  1.00  0.00     0.161 HD
ENDROOT
BRANCH   7  11
HETATM   11  C   UNL     1       7.121  31.403  58.647  1.00  0.00     0.257 C 
HETATM   12  N   UNL     1       6.699  30.154  58.255  1.00  0.00    -0.352 N 
HETATM   13  H   UNL     1       5.762  29.878  58.511  1.00  0.00     0.163 HD
HETATM   14  O   UNL     1       8.302  31.734  58.661  1.00  0.00    -0.267 OA
BRANCH  12  15
HETATM   15  C   UNL     1       7.644  29.122  57.899  1.00  0.00     0.161 C 
BRANCH  15  16
HETATM   16  C   UNL     1       6.954  27.826  57.558  1.00  0.00    -0.041 A 
HETATM   17  C   UNL     1       5.635  27.819  57.081  1.00  0.00     0.009 A 
HETATM   18  C   UNL     1       5.019  26.623  56.709  1.00  0.00     0.001 A 
HETATM   19  C   UNL     1       5.717  25.422  56.797  1.00  0.00     0.000 A 
HETATM   20  C   UNL     1       7.033  25.415  57.259  1.00  0.00     0.001 A 
HETATM   21  C   UNL     1       7.649  26.610  57.636  1.00  0.00     0.009 A 
ENDBRANCH  15  16
ENDBRANCH  12  15
ENDBRANCH   7  11
BRANCH   1  22
HETATM   22  C   UNL     1       5.527  32.770  63.676  1.00  0.00    -0.033 A 
HETATM   23  C   UNL     1       4.910  33.311  64.819  1.00  0.00     0.046 A 
HETATM   24  C   UNL     1       5.643  33.984  65.803  1.00  0.00     0.068 A 
HETATM   25  C   UNL     1       7.024  34.108  65.662  1.00  0.00     0.037 A 
HETATM   26  C   UNL     1       7.660  33.560  64.548  1.00  0.00     0.003 A 
HETATM   27  C   UNL     1       6.921  32.895  63.569  1.00  0.00     0.009 A 
BRANCH  24  28
HETATM   28  O   UNL     1       4.896  34.466  66.842  1.00  0.00    -0.356 OA
HETATM   29  C   UNL     1       3.777  35.277  66.503  1.00  0.00     0.210 C 
ENDBRANCH  24  28
ENDBRANCH   1  22
BRANCH   8  30
HETATM   30  C   UNL     1       4.071  35.223  61.773  1.00  0.00     0.409 C 
HETATM   31  F   UNL     1       3.684  36.301  61.066  1.00  0.00    -0.169 F 
HETATM   32  F   UNL     1       3.624  35.391  63.039  1.00  0.00    -0.169 F 
HETATM   33  F   UNL     1       5.427  35.257  61.846  1.00  0.00    -0.169 F 
ENDBRANCH   8  30
TORSDOF 6
ENDMDL
MODEL 10
REMARK VINA RESULT:      -8.4      3.357      5.173
REMARK  6 active torsions:
REMARK  status: ('A' for Active; 'I' for Inactive)
REMARK    1  A    between atoms: O_2  and  C_3 
REMARK    2  A    between atoms: C_5  and  C_6 
REMARK    3  A    between atoms: C_12  and  C_13 
REMARK       I    between atoms: C_13  and  N_14 
REMARK    4  A    between atoms: N_14  and  C_15 
REMARK    5  A    between atoms: C_15  and  C_16 
REMARK    6  A    between atoms: C_23  and  C_24 
ROOT
HETATM    1  C   UNL     1       8.045  28.305  55.296  1.00  0.00     0.118 C 
HETATM    2  N   UNL     1       7.183  28.361  54.114  1.00  0.00    -0.365 N 
HETATM    3  C   UNL     1       6.252  27.409  53.847  1.00  0.00     0.138 A 
HETATM    4  N   UNL     1       6.151  26.285  54.631  1.00  0.00    -0.240 N 
HETATM    5  N   UNL     1       5.281  25.374  54.172  1.00  0.00    -0.181 NA
HETATM    6  C   UNL     1       4.744  25.977  53.109  1.00  0.00     0.160 A 
HETATM    7  C   UNL     1       5.296  27.260  52.857  1.00  0.00     0.096 A 
HETATM    8  C   UNL     1       7.001  25.992  55.769  1.00  0.00     0.221 C 
HETATM    9  C   UNL     1       8.282  26.840  55.706  1.00  0.00     0.066 C 
HETATM   10  H   UNL     1       7.471  29.043  53.413  1.00  0.00     0.161 HD
ENDROOT
BRANCH   7  11
HETATM   11  C   UNL     1       4.908  28.143  51.774  1.00  0.00     0.257 C 
HETATM   12  N   UNL     1       3.633  27.957  51.292  1.00  0.00    -0.352 N 
HETATM   13  H   UNL     1       3.160  27.102  51.546  1.00  0.00     0.163 HD
HETATM   14  O   UNL     1       5.683  28.973  51.308  1.00  0.00    -0.267 OA
BRANCH  12  15
HETATM   15  C   UNL     1       3.152  28.692  50.145  1.00  0.00     0.161 C 
BRANCH  15  16
HETATM   16  C   UNL     1       2.905  27.787  48.965  1.00  0.00    -0.041 A 
HETATM   17  C   UNL     1       3.840  26.804  48.607  1.00  0.00     0.009 A 
HETATM   18  C   UNL     1       3.583  25.927  47.552  1.00  0.00     0.001 A 
HETATM   19  C   UNL     1       2.383  26.014  46.850  1.00  0.00     0.000 A 
HETATM   20  C   UNL     1       1.439  26.978  47.202  1.00  0.00     0.001 A 
HETATM   21  C   UNL     1       1.697  27.859  48.255  1.00  0.00     0.009 A 
ENDBRANCH  15  16
ENDBRANCH  12  15
ENDBRANCH   7  11
BRANCH   1  22
HETATM   22  C   UNL     1       7.562  29.220  56.409  1.00  0.00    -0.033 A 
HETATM   23  C   UNL     1       8.297  29.303  57.607  1.00  0.00     0.046 A 
HETATM   24  C   UNL     1       7.891  30.126  58.664  1.00  0.00     0.068 A 
HETATM   25  C   UNL     1       6.742  30.900  58.525  1.00  0.00     0.037 A 
HETATM   26  C   UNL     1       6.010  30.851  57.339  1.00  0.00     0.003 A 
HETATM   27  C   UNL     1       6.418  30.024  56.291  1.00  0.00     0.009 A 
BRANCH  24  28
HETATM   28  O   UNL     1       8.702  30.082  59.765  1.00  0.00    -0.356 OA
HETATM   29  C   UNL     1       8.359  30.941  60.847  1.00  0.00     0.210 C 
ENDBRANCH  24  28
ENDBRANCH   1  22
BRANCH   8  30
HETATM   30  C   UNL     1       6.219  26.132  57.056  1.00  0.00     0.409 C 
HETATM   31  F   UNL     1       5.261  27.077  57.015  1.00  0.00    -0.169 F 
HETATM   32  F   UNL     1       5.623  24.971  57.415  1.00  0.00    -0.169 F 
HETATM   33  F   UNL     1       7.057  26.455  58.076  1.00  0.00    -0.169 F 
ENDBRANCH   8  30
TORSDOF 6
ENDMDL
