MODEL 1
REMARK VINA RESULT:      -9.2      0.000      0.000
REMARK  7 active torsions:
REMARK  status: ('A' for Active; 'I' for Inactive)
REMARK    1  A    between atoms: C_3  and  O_4 
REMARK    2  A    between atoms: O_4  and  C_5 
REMARK    3  A    between atoms: C_5  and  C_6 
REMARK       I    between atoms: C_6  and  N_7 
REMARK    4  A    between atoms: N_7  and  C_8 
REMARK    5  A    between atoms: C_9  and  C_10 
REMARK       I    between atoms: C_10  and  N_11 
REMARK    6  A    between atoms: N_11  and  C_12 
REMARK    7  A    between atoms: C_12  and  C_13 
ROOT
HETATM    1  C   UNL     1       5.894  27.946  56.207  1.00  0.00     0.050 A 
HETATM    2  C   UNL     1       6.245  29.014  57.064  1.00  0.00     0.058 A 
HETATM    3  C   UNL     1       5.372  30.109  57.215  1.00  0.00     0.019 A 
HETATM    4  C   UNL     1       4.183  30.171  56.491  1.00  0.00     0.001 A 
HETATM    5  C   UNL     1       3.852  29.140  55.620  1.00  0.00     0.002 A 
HETATM    6  C   UNL     1       4.697  28.036  55.484  1.00  0.00     0.030 A 
ENDROOT
BRANCH   1   7
HETATM    7  N   UNL     1       6.723  26.796  56.141  1.00  0.00    -0.324 N 
HETATM    8  C   UNL     1       6.508  25.567  56.740  1.00  0.00     0.246 C 
HETATM    9  O   UNL     1       5.451  25.204  57.252  1.00  0.00    -0.271 OA
HETATM   10  H   UNL     1       7.571  26.916  55.583  1.00  0.00     0.169 HD
BRANCH   8  11
HETATM   11  C   UNL     1       7.735  24.653  56.714  1.00  0.00     0.278 C 
BRANCH  11  12
HETATM   12  O   UNL     1       8.010  24.378  55.345  1.00  0.00    -0.342 OA
BRANCH  12  13
HETATM   13  C   UNL     1       7.966  23.081  54.919  1.00  0.00     0.075 A 
HETATM   14  C   UNL     1       7.915  22.900  53.525  1.00  0.00    -0.029 A 
HETATM   15  C   UNL     1       7.961  24.075  52.585  1.00  0.00     0.051 C 
HETATM   16  C   UNL     1       7.889  21.601  52.998  1.00  0.00     0.009 A 
HETATM   17  C   UNL     1       7.883  20.494  53.843  1.00  0.00     0.001 A 
HETATM   18  C   UNL     1       7.909  20.677  55.223  1.00  0.00     0.003 A 
HETATM   19  C   UNL     1       7.951  21.965  55.762  1.00  0.00     0.037 A 
ENDBRANCH  12  13
ENDBRANCH  11  12
ENDBRANCH   8  11
ENDBRANCH   1   7
BRANCH   2  20
HETATM   20  C   UNL     1       7.541  28.994  57.811  1.00  0.00     0.254 C 
HETATM   21  N   UNL     1       8.254  30.169  57.834  1.00  0.00    -0.351 N 
HETATM   22  H   UNL     1       7.934  30.991  57.339  1.00  0.00     0.163 HD
HETATM   23  O   UNL     1       7.947  27.956  58.330  1.00  0.00    -0.268 OA
BRANCH  21  24
HETATM   24  C   UNL     1       9.494  30.301  58.565  1.00  0.00     0.187 C 
BRANCH  24  25
HETATM   25  C   UNL     1       9.206  30.919  59.884  1.00  0.00     0.070 A 
HETATM   26  O   UNL     1       9.118  30.073  60.956  1.00  0.00    -0.325 OA
HETATM   27  C   UNL     1       8.840  30.837  62.043  1.00  0.00     0.142 A 
HETATM   28  C   UNL     1       8.747  32.162  61.690  1.00  0.00     0.027 A 
HETATM   29  C   UNL     1       8.984  32.217  60.295  1.00  0.00     0.036 A 
ENDBRANCH  24  25
ENDBRANCH  21  24
ENDBRANCH   2  20
TORSDOF 7
ENDMDL
MODEL 2
REMARK VINA RESULT:      -9.2      2.150      3.854
REMARK  7 active torsions:
REMARK  status: ('A' for Active; 'I' for Inactive)
REMARK    1  A    between atoms: C_3  and  O_4 
REMARK    2  A    between atoms: O_4  and  C_5 
REMARK    3  A    between atoms: C_5  and  C_6 
REMARK       I    between atoms: C_6  and  N_7 
REMARK    4  A    between atoms: N_7  and  C_8 
REMARK    5  A    between atoms: C_9  and  C_10 
REMARK       I    between atoms: C_10  and  N_11 
REMARK    6  A    between atoms: N_11  and  C_12 
REMARK    7  A    between atoms: C_12  and  C_13 
ROOT
HETATM    1  C   UNL     1       8.635  29.316  57.455  1.00  0.00     0.050 A 
HETATM    2  C   UNL     1       8.599  30.512  58.210  1.00  0.00     0.058 A 
HETATM    3  C   UNL     1       9.763  31.292  58.344  1.00  0.00     0.019 A 
HETATM    4  C   UNL     1      10.965  30.874  57.776  1.00  0.00     0.001 A 
HETATM    5  C   UNL     1      11.013  29.682  57.065  1.00  0.00     0.002 A 
HETATM    6  C   UNL     1       9.857  28.914  56.901  1.00  0.00     0.030 A 
ENDROOT
BRANCH   1   7
HETATM    7  N   UNL     1       7.437  28.590  57.231  1.00  0.00    -0.324 N 
HETATM    8  C   UNL     1       7.175  27.273  57.563  1.00  0.00     0.246 C 
HETATM    9  O   UNL     1       7.869  26.578  58.304  1.00  0.00    -0.271 OA
HETATM   10  H   UNL     1       6.698  29.124  56.768  1.00  0.00     0.169 HD
BRANCH   8  11
HETATM   11  C   UNL     1       5.904  26.721  56.916  1.00  0.00     0.278 C 
BRANCH  11  12
HETATM   12  O   UNL     1       6.088  25.315  56.788  1.00  0.00    -0.342 OA
BRANCH  12  13
HETATM   13  C   UNL     1       6.375  24.806  55.553  1.00  0.00     0.075 A 
HETATM   14  C   UNL     1       7.442  23.889  55.507  1.00  0.00    -0.029 A 
HETATM   15  C   UNL     1       8.166  23.473  56.759  1.00  0.00     0.051 C 
HETATM   16  C   UNL     1       7.792  23.299  54.284  1.00  0.00     0.009 A 
HETATM   17  C   UNL     1       7.115  23.638  53.115  1.00  0.00     0.001 A 
HETATM   18  C   UNL     1       6.076  24.564  53.160  1.00  0.00     0.003 A 
HETATM   19  C   UNL     1       5.706  25.148  54.374  1.00  0.00     0.037 A 
ENDBRANCH  12  13
ENDBRANCH  11  12
ENDBRANCH   8  11
ENDBRANCH   1   7
BRANCH   2  20
HETATM   20  C   UNL     1       7.332  30.953  58.873  1.00  0.00     0.254 C 
HETATM   21  N   UNL     1       7.431  31.343  60.187  1.00  0.00    -0.351 N 
HETATM   22  H   UNL     1       8.309  31.296  60.687  1.00  0.00     0.163 HD
HETATM   23  O   UNL     1       6.264  30.916  58.265  1.00  0.00    -0.268 OA
BRANCH  21  24
HETATM   24  C   UNL     1       6.296  31.842  60.928  1.00  0.00     0.187 C 
BRANCH  24  25
HETATM   25  C   UNL     1       6.772  32.369  62.232  1.00  0.00     0.070 A 
HETATM   26  O   UNL     1       5.874  33.088  62.973  1.00  0.00    -0.325 OA
HETATM   27  C   UNL     1       6.516  33.479  64.104  1.00  0.00     0.142 A 
HETATM   28  C   UNL     1       7.813  33.025  64.103  1.00  0.00     0.027 A 
HETATM   29  C   UNL     1       7.981  32.308  62.895  1.00  0.00     0.036 A 
ENDBRANCH  24  25
ENDBRANCH  21  24
ENDBRANCH   2  20
TORSDOF 7
ENDMDL
MODEL 3
REMARK VINA RESULT:      -9.1      3.588      6.962
REMARK  7 active torsions:
REMARK  status: ('A' for Active; 'I' for Inactive)
REMARK    1  A    between atoms: C_3  and  O_4 
REMARK    2  A    between atoms: O_4  and  C_5 
REMARK    3  A    between atoms: C_5  and  C_6 
REMARK       I    between atoms: C_6  and  N_7 
REMARK    4  A    between atoms: N_7  and  C_8 
REMARK    5  A    between atoms: C_9  and  C_10 
REMARK       I    between atoms: C_10  and  N_11 
REMARK    6  A    between atoms: N_11  and  C_12 
REMARK    7  A    between atoms: C_12  and  C_13 
ROOT
HETATM    1  C   UNL     1       5.184  27.460  55.219  1.00  0.00     0.050 A 
HETATM    2  C   UNL     1       4.584  27.626  53.949  1.00  0.00     0.058 A 
HETATM    3  C   UNL     1       3.868  28.803  53.660  1.00  0.00     0.019 A 
HETATM    4  C   UNL     1       3.704  29.789  54.631  1.00  0.00     0.001 A 
HETATM    5  C   UNL     1       4.260  29.613  55.892  1.00  0.00     0.002 A 
HETATM    6  C   UNL     1       4.998  28.462  56.181  1.00  0.00     0.030 A 
ENDROOT
BRANCH   1   7
HETATM    7  N   UNL     1       5.996  26.324  55.470  1.00  0.00    -0.324 N 
HETATM    8  C   UNL     1       5.835  25.376  56.465  1.00  0.00     0.246 C 
HETATM    9  O   UNL     1       4.833  25.247  57.164  1.00  0.00    -0.271 OA
HETATM   10  H   UNL     1       6.785  26.217  54.828  1.00  0.00     0.169 HD
BRANCH   8  11
HETATM   11  C   UNL     1       7.048  24.459  56.637  1.00  0.00     0.278 C 
BRANCH  11  12
HETATM   12  O   UNL     1       7.614  24.285  55.343  1.00  0.00    -0.342 OA
BRANCH  12  13
HETATM   13  C   UNL     1       7.737  23.017  54.850  1.00  0.00     0.075 A 
HETATM   14  C   UNL     1       7.825  22.915  53.450  1.00  0.00    -0.029 A 
HETATM   15  C   UNL     1       7.835  24.141  52.578  1.00  0.00     0.051 C 
HETATM   16  C   UNL     1       7.974  21.652  52.858  1.00  0.00     0.009 A 
HETATM   17  C   UNL     1       8.005  20.502  53.643  1.00  0.00     0.001 A 
HETATM   18  C   UNL     1       7.893  20.605  55.027  1.00  0.00     0.003 A 
HETATM   19  C   UNL     1       7.759  21.858  55.631  1.00  0.00     0.037 A 
ENDBRANCH  12  13
ENDBRANCH  11  12
ENDBRANCH   8  11
ENDBRANCH   1   7
BRANCH   2  20
HETATM   20  C   UNL     1       4.702  26.558  52.908  1.00  0.00     0.254 C 
HETATM   21  N   UNL     1       4.844  26.981  51.608  1.00  0.00    -0.351 N 
HETATM   22  H   UNL     1       4.830  27.964  51.368  1.00  0.00     0.163 HD
HETATM   23  O   UNL     1       4.627  25.371  53.220  1.00  0.00    -0.268 OA
BRANCH  21  24
HETATM   24  C   UNL     1       5.022  26.055  50.514  1.00  0.00     0.187 C 
BRANCH  24  25
HETATM   25  C   UNL     1       4.329  26.593  49.316  1.00  0.00     0.070 A 
HETATM   26  O   UNL     1       3.568  27.717  49.495  1.00  0.00    -0.325 OA
HETATM   27  C   UNL     1       3.022  28.022  48.290  1.00  0.00     0.142 A 
HETATM   28  C   UNL     1       3.418  27.114  47.337  1.00  0.00     0.027 A 
HETATM   29  C   UNL     1       4.262  26.190  47.998  1.00  0.00     0.036 A 
ENDBRANCH  24  25
ENDBRANCH  21  24
ENDBRANCH   2  20
TORSDOF 7
ENDMDL
MODEL 4
REMARK VINA RESULT:      -9.1      2.043      2.620
REMARK  7 active torsions:
REMARK  status: ('A' for Active; 'I' for Inactive)
REMARK    1  A    between atoms: C_3  and  O_4 
REMARK    2  A    between atoms: O_4  and  C_5 
REMARK    3  A    between atoms: C_5  and  C_6 
REMARK       I    between atoms: C_6  and  N_7 
REMARK    4  A    between atoms: N_7  and  C_8 
REMARK    5  A    between atoms: C_9  and  C_10 
REMARK       I    between atoms: C_10  and  N_11 
REMARK    6  A    between atoms: N_11  and  C_12 
REMARK    7  A    between atoms: C_12  and  C_13 
ROOT
HETATM    1  C   UNL     1       4.496  28.107  54.608  1.00  0.00     0.050 A 
HETATM    2  C   UNL     1       4.688  29.293  55.353  1.00  0.00     0.058 A 
HETATM    3  C   UNL     1       4.160  30.510  54.883  1.00  0.00     0.019 A 
HETATM    4  C   UNL     1       3.486  30.566  53.664  1.00  0.00     0.001 A 
HETATM    5  C   UNL     1       3.327  29.409  52.912  1.00  0.00     0.002 A 
HETATM    6  C   UNL     1       3.822  28.190  53.383  1.00  0.00     0.030 A 
ENDROOT
BRANCH   1   7
HETATM    7  N   UNL     1       4.934  26.865  55.138  1.00  0.00    -0.324 N 
HETATM    8  C   UNL     1       6.160  26.253  54.947  1.00  0.00     0.246 C 
HETATM    9  O   UNL     1       7.151  26.791  54.458  1.00  0.00    -0.271 OA
HETATM   10  H   UNL     1       4.245  26.388  55.724  1.00  0.00     0.169 HD
BRANCH   8  11
HETATM   11  C   UNL     1       6.193  24.795  55.410  1.00  0.00     0.278 C 
BRANCH  11  12
HETATM   12  O   UNL     1       7.519  24.327  55.188  1.00  0.00    -0.342 OA
BRANCH  12  13
HETATM   13  C   UNL     1       7.694  23.031  54.791  1.00  0.00     0.075 A 
HETATM   14  C   UNL     1       7.874  22.838  53.409  1.00  0.00    -0.029 A 
HETATM   15  C   UNL     1       7.921  24.004  52.459  1.00  0.00     0.051 C 
HETATM   16  C   UNL     1       8.082  21.542  52.915  1.00  0.00     0.009 A 
HETATM   17  C   UNL     1       8.081  20.448  53.776  1.00  0.00     0.001 A 
HETATM   18  C   UNL     1       7.877  20.640  55.140  1.00  0.00     0.003 A 
HETATM   19  C   UNL     1       7.684  21.927  55.649  1.00  0.00     0.037 A 
ENDBRANCH  12  13
ENDBRANCH  11  12
ENDBRANCH   8  11
ENDBRANCH   1   7
BRANCH   2  20
HETATM   20  C   UNL     1       5.454  29.267  56.638  1.00  0.00     0.254 C 
HETATM   21  N   UNL     1       6.526  30.122  56.731  1.00  0.00    -0.351 N 
HETATM   22  H   UNL     1       6.803  30.709  55.954  1.00  0.00     0.163 HD
HETATM   23  O   UNL     1       5.148  28.480  57.532  1.00  0.00    -0.268 OA
BRANCH  21  24
HETATM   24  C   UNL     1       7.317  30.235  57.934  1.00  0.00     0.187 C 
BRANCH  24  25
HETATM   25  C   UNL     1       8.746  30.034  57.587  1.00  0.00     0.070 A 
HETATM   26  O   UNL     1       9.620  31.016  57.970  1.00  0.00    -0.325 OA
HETATM   27  C   UNL     1      10.853  30.638  57.545  1.00  0.00     0.142 A 
HETATM   28  C   UNL     1      10.789  29.429  56.893  1.00  0.00     0.027 A 
HETATM   29  C   UNL     1       9.429  29.037  56.920  1.00  0.00     0.036 A 
ENDBRANCH  24  25
ENDBRANCH  21  24
ENDBRANCH   2  20
TORSDOF 7
ENDMDL
MODEL 5
REMARK VINA RESULT:      -8.8      3.946      6.911
REMARK  7 active torsions:
REMARK  status: ('A' for Active; 'I' for Inactive)
REMARK    1  A    between atoms: C_3  and  O_4 
REMARK    2  A    between atoms: O_4  and  C_5 
REMARK    3  A    between atoms: C_5  and  C_6 
REMARK       I    between atoms: C_6  and  N_7 
REMARK    4  A    between atoms: N_7  and  C_8 
REMARK    5  A    between atoms: C_9  and  C_10 
REMARK       I    between atoms: C_10  and  N_11 
REMARK    6  A    between atoms: N_11  and  C_12 
REMARK    7  A    between atoms: C_12  and  C_13 
ROOT
HETATM    1  C   UNL     1       7.247  23.560  53.700  1.00  0.00     0.050 A 
HETATM    2  C   UNL     1       7.269  23.422  55.107  1.00  0.00     0.058 A 
HETATM    3  C   UNL     1       7.746  22.231  55.687  1.00  0.00     0.019 A 
HETATM    4  C   UNL     1       8.155  21.167  54.887  1.00  0.00     0.001 A 
HETATM    5  C   UNL     1       8.099  21.285  53.503  1.00  0.00     0.002 A 
HETATM    6  C   UNL     1       7.655  22.473  52.916  1.00  0.00     0.030 A 
ENDROOT
BRANCH   1   7
HETATM    7  N   UNL     1       6.869  24.799  53.121  1.00  0.00    -0.324 N 
HETATM    8  C   UNL     1       5.642  25.137  52.579  1.00  0.00     0.246 C 
HETATM    9  O   UNL     1       4.608  24.484  52.706  1.00  0.00    -0.271 OA
HETATM   10  H   UNL     1       7.608  25.507  53.115  1.00  0.00     0.169 HD
BRANCH   8  11
HETATM   11  C   UNL     1       5.666  26.440  51.778  1.00  0.00     0.278 C 
BRANCH  11  12
HETATM   12  O   UNL     1       4.943  26.194  50.577  1.00  0.00    -0.342 OA
BRANCH  12  13
HETATM   13  C   UNL     1       4.840  27.202  49.660  1.00  0.00     0.075 A 
HETATM   14  C   UNL     1       4.089  26.902  48.509  1.00  0.00    -0.029 A 
HETATM   15  C   UNL     1       3.408  25.570  48.348  1.00  0.00     0.051 C 
HETATM   16  C   UNL     1       3.914  27.885  47.524  1.00  0.00     0.009 A 
HETATM   17  C   UNL     1       4.501  29.140  47.664  1.00  0.00     0.001 A 
HETATM   18  C   UNL     1       5.265  29.425  48.793  1.00  0.00     0.003 A 
HETATM   19  C   UNL     1       5.435  28.461  49.790  1.00  0.00     0.037 A 
ENDBRANCH  12  13
ENDBRANCH  11  12
ENDBRANCH   8  11
ENDBRANCH   1   7
BRANCH   2  20
HETATM   20  C   UNL     1       6.786  24.532  55.986  1.00  0.00     0.254 C 
HETATM   21  N   UNL     1       7.703  25.066  56.859  1.00  0.00    -0.351 N 
HETATM   22  H   UNL     1       8.644  24.700  56.927  1.00  0.00     0.163 HD
HETATM   23  O   UNL     1       5.613  24.898  55.943  1.00  0.00    -0.268 OA
BRANCH  21  24
HETATM   24  C   UNL     1       7.383  26.177  57.725  1.00  0.00     0.187 C 
BRANCH  24  25
HETATM   25  C   UNL     1       7.904  27.425  57.112  1.00  0.00     0.070 A 
HETATM   26  O   UNL     1       8.402  28.372  57.965  1.00  0.00    -0.325 OA
HETATM   27  C   UNL     1       8.806  29.421  57.203  1.00  0.00     0.142 A 
HETATM   28  C   UNL     1       8.575  29.166  55.872  1.00  0.00     0.027 A 
HETATM   29  C   UNL     1       7.993  27.877  55.811  1.00  0.00     0.036 A 
ENDBRANCH  24  25
ENDBRANCH  21  24
ENDBRANCH   2  20
TORSDOF 7
ENDMDL
MODEL 6
REMARK VINA RESULT:      -8.7      3.901      5.782
REMARK  7 active torsions:
REMARK  status: ('A' for Active; 'I' for Inactive)
REMARK    1  A    between atoms: C_3  and  O_4 
REMARK    2  A    between atoms: O_4  and  C_5 
REMARK    3  A    between atoms: C_5  and  C_6 
REMARK       I    between atoms: C_6  and  N_7 
REMARK    4  A    between atoms: N_7  and  C_8 
REMARK    5  A    between atoms: C_9  and  C_10 
REMARK       I    between atoms: C_10  and  N_11 
REMARK    6  A    between atoms: N_11  and  C_12 
REMARK    7  A    between atoms: C_12  and  C_13 
ROOT
HETATM    1  C   UNL     1       4.891  26.625  50.186  1.00  0.00     0.050 A 
HETATM    2  C   UNL     1       4.370  27.888  50.549  1.00  0.00     0.058 A 
HETATM    3  C   UNL     1       3.267  28.418  49.852  1.00  0.00     0.019 A 
HETATM    4  C   UNL     1       2.711  27.729  48.777  1.00  0.00     0.001 A 
HETATM    5  C   UNL     1       3.243  26.504  48.395  1.00  0.00     0.002 A 
HETATM    6  C   UNL     1       4.319  25.954  49.097  1.00  0.00     0.030 A 
ENDROOT
BRANCH   1   7
HETATM    7  N   UNL     1       5.931  26.045  50.959  1.00  0.00    -0.324 N 
HETATM    8  C   UNL     1       5.804  25.297  52.116  1.00  0.00     0.246 C 
HETATM    9  O   UNL     1       4.751  24.831  52.546  1.00  0.00    -0.271 OA
HETATM   10  H   UNL     1       6.872  26.216  50.598  1.00  0.00     0.169 HD
BRANCH   8  11
HETATM   11  C   UNL     1       7.128  25.083  52.852  1.00  0.00     0.278 C 
BRANCH  11  12
HETATM   12  O   UNL     1       6.842  24.256  53.975  1.00  0.00    -0.342 OA
BRANCH  12  13
HETATM   13  C   UNL     1       7.440  23.030  54.050  1.00  0.00     0.075 A 
HETATM   14  C   UNL     1       7.925  22.668  55.320  1.00  0.00    -0.029 A 
HETATM   15  C   UNL     1       7.736  23.567  56.512  1.00  0.00     0.051 C 
HETATM   16  C   UNL     1       8.536  21.417  55.495  1.00  0.00     0.009 A 
HETATM   17  C   UNL     1       8.691  20.549  54.418  1.00  0.00     0.001 A 
HETATM   18  C   UNL     1       8.232  20.921  53.157  1.00  0.00     0.003 A 
HETATM   19  C   UNL     1       7.608  22.157  52.971  1.00  0.00     0.037 A 
ENDBRANCH  12  13
ENDBRANCH  11  12
ENDBRANCH   8  11
ENDBRANCH   1   7
BRANCH   2  20
HETATM   20  C   UNL     1       4.985  28.671  51.666  1.00  0.00     0.254 C 
HETATM   21  N   UNL     1       4.273  28.724  52.841  1.00  0.00    -0.351 N 
HETATM   22  H   UNL     1       3.365  28.288  52.929  1.00  0.00     0.163 HD
HETATM   23  O   UNL     1       6.049  29.264  51.502  1.00  0.00    -0.268 OA
BRANCH  21  24
HETATM   24  C   UNL     1       4.777  29.400  54.014  1.00  0.00     0.187 C 
BRANCH  24  25
HETATM   25  C   UNL     1       5.571  28.435  54.816  1.00  0.00     0.070 A 
HETATM   26  O   UNL     1       4.870  27.533  55.571  1.00  0.00    -0.325 OA
HETATM   27  C   UNL     1       5.781  26.767  56.224  1.00  0.00     0.142 A 
HETATM   28  C   UNL     1       7.059  27.161  55.904  1.00  0.00     0.027 A 
HETATM   29  C   UNL     1       6.926  28.237  54.994  1.00  0.00     0.036 A 
ENDBRANCH  24  25
ENDBRANCH  21  24
ENDBRANCH   2  20
TORSDOF 7
ENDMDL
MODEL 7
REMARK VINA RESULT:      -8.7      3.525      7.574
REMARK  7 active torsions:
REMARK  status: ('A' for Active; 'I' for Inactive)
REMARK    1  A    between atoms: C_3  and  O_4 
REMARK    2  A    between atoms: O_4  and  C_5 
REMARK    3  A    between atoms: C_5  and  C_6 
REMARK       I    between atoms: C_6  and  N_7 
REMARK    4  A    between atoms: N_7  and  C_8 
REMARK    5  A    between atoms: C_9  and  C_10 
REMARK       I    between atoms: C_10  and  N_11 
REMARK    6  A    between atoms: N_11  and  C_12 
REMARK    7  A    between atoms: C_12  and  C_13 
ROOT
HETATM    1  C   UNL     1       7.193  27.043  54.994  1.00  0.00     0.050 A 
HETATM    2  C   UNL     1       7.632  26.393  56.170  1.00  0.00     0.058 A 
HETATM    3  C   UNL     1       8.365  27.110  57.136  1.00  0.00     0.019 A 
HETATM    4  C   UNL     1       8.702  28.444  56.922  1.00  0.00     0.001 A 
HETATM    5  C   UNL     1       8.304  29.076  55.751  1.00  0.00     0.002 A 
HETATM    6  C   UNL     1       7.552  28.384  54.798  1.00  0.00     0.030 A 
ENDROOT
BRANCH   1   7
HETATM    7  N   UNL     1       6.363  26.349  54.075  1.00  0.00    -0.324 N 
HETATM    8  C   UNL     1       6.731  25.786  52.866  1.00  0.00     0.246 C 
HETATM    9  O   UNL     1       7.888  25.608  52.491  1.00  0.00    -0.271 OA
HETATM   10  H   UNL     1       5.385  26.272  54.363  1.00  0.00     0.169 HD
BRANCH   8  11
HETATM   11  C   UNL     1       5.541  25.381  51.994  1.00  0.00     0.278 C 
BRANCH  11  12
HETATM   12  O   UNL     1       4.869  26.583  51.636  1.00  0.00    -0.342 OA
BRANCH  12  13
HETATM   13  C   UNL     1       4.920  26.995  50.334  1.00  0.00     0.075 A 
HETATM   14  C   UNL     1       5.268  28.344  50.138  1.00  0.00    -0.029 A 
HETATM   15  C   UNL     1       5.610  29.238  51.299  1.00  0.00     0.051 C 
HETATM   16  C   UNL     1       5.366  28.848  48.832  1.00  0.00     0.009 A 
HETATM   17  C   UNL     1       5.091  28.033  47.737  1.00  0.00     0.001 A 
HETATM   18  C   UNL     1       4.722  26.706  47.937  1.00  0.00     0.003 A 
HETATM   19  C   UNL     1       4.637  26.186  49.231  1.00  0.00     0.037 A 
ENDBRANCH  12  13
ENDBRANCH  11  12
ENDBRANCH   8  11
ENDBRANCH   1   7
BRANCH   2  20
HETATM   20  C   UNL     1       7.327  24.946  56.397  1.00  0.00     0.254 C 
HETATM   21  N   UNL     1       8.364  24.064  56.205  1.00  0.00    -0.351 N 
HETATM   22  H   UNL     1       9.273  24.377  55.891  1.00  0.00     0.163 HD
HETATM   23  O   UNL     1       6.190  24.586  56.693  1.00  0.00    -0.268 OA
BRANCH  21  24
HETATM   24  C   UNL     1       8.220  22.646  56.442  1.00  0.00     0.187 C 
BRANCH  24  25
HETATM   25  C   UNL     1       8.200  21.943  55.134  1.00  0.00     0.070 A 
HETATM   26  O   UNL     1       8.791  20.710  55.085  1.00  0.00    -0.325 OA
HETATM   27  C   UNL     1       8.670  20.262  53.809  1.00  0.00     0.142 A 
HETATM   28  C   UNL     1       8.012  21.187  53.034  1.00  0.00     0.027 A 
HETATM   29  C   UNL     1       7.707  22.273  53.888  1.00  0.00     0.036 A 
ENDBRANCH  24  25
ENDBRANCH  21  24
ENDBRANCH   2  20
TORSDOF 7
ENDMDL
MODEL 8
REMARK VINA RESULT:      -8.7      3.846      6.441
REMARK  7 active torsions:
REMARK  status: ('A' for Active; 'I' for Inactive)
REMARK    1  A    between atoms: C_3  and  O_4 
REMARK    2  A    between atoms: O_4  and  C_5 
REMARK    3  A    between atoms: C_5  and  C_6 
REMARK       I    between atoms: C_6  and  N_7 
REMARK    4  A    between atoms: N_7  and  C_8 
REMARK    5  A    between atoms: C_9  and  C_10 
REMARK       I    between atoms: C_10  and  N_11 
REMARK    6  A    between atoms: N_11  and  C_12 
REMARK    7  A    between atoms: C_12  and  C_13 
ROOT
HETATM    1  C   UNL     1       7.105  24.218  53.674  1.00  0.00     0.050 A 
HETATM    2  C   UNL     1       7.281  24.000  55.060  1.00  0.00     0.058 A 
HETATM    3  C   UNL     1       7.980  22.862  55.507  1.00  0.00     0.019 A 
HETATM    4  C   UNL     1       8.462  21.923  54.597  1.00  0.00     0.001 A 
HETATM    5  C   UNL     1       8.258  22.116  53.236  1.00  0.00     0.002 A 
HETATM    6  C   UNL     1       7.591  23.255  52.779  1.00  0.00     0.030 A 
ENDROOT
BRANCH   1   7
HETATM    7  N   UNL     1       6.496  25.418  53.223  1.00  0.00    -0.324 N 
HETATM    8  C   UNL     1       5.198  25.588  52.775  1.00  0.00     0.246 C 
HETATM    9  O   UNL     1       4.293  24.765  52.897  1.00  0.00    -0.271 OA
HETATM   10  H   UNL     1       7.109  26.236  53.241  1.00  0.00     0.169 HD
BRANCH   8  11
HETATM   11  C   UNL     1       4.962  26.935  52.088  1.00  0.00     0.278 C 
BRANCH  11  12
HETATM   12  O   UNL     1       5.620  26.872  50.828  1.00  0.00    -0.342 OA
BRANCH  12  13
HETATM   13  C   UNL     1       4.856  26.840  49.695  1.00  0.00     0.075 A 
HETATM   14  C   UNL     1       4.880  28.011  48.914  1.00  0.00    -0.029 A 
HETATM   15  C   UNL     1       5.741  29.185  49.296  1.00  0.00     0.051 C 
HETATM   16  C   UNL     1       4.142  28.060  47.722  1.00  0.00     0.009 A 
HETATM   17  C   UNL     1       3.366  26.974  47.325  1.00  0.00     0.001 A 
HETATM   18  C   UNL     1       3.325  25.827  48.113  1.00  0.00     0.003 A 
HETATM   19  C   UNL     1       4.067  25.758  49.295  1.00  0.00     0.037 A 
ENDBRANCH  12  13
ENDBRANCH  11  12
ENDBRANCH   8  11
ENDBRANCH   1   7
BRANCH   2  20
HETATM   20  C   UNL     1       6.727  24.968  56.057  1.00  0.00     0.254 C 
HETATM   21  N   UNL     1       7.642  25.654  56.819  1.00  0.00    -0.351 N 
HETATM   22  H   UNL     1       8.636  25.483  56.734  1.00  0.00     0.163 HD
HETATM   23  O   UNL     1       5.512  25.091  56.200  1.00  0.00    -0.268 OA
BRANCH  21  24
HETATM   24  C   UNL     1       7.244  26.656  57.781  1.00  0.00     0.187 C 
BRANCH  24  25
HETATM   25  C   UNL     1       8.021  27.895  57.527  1.00  0.00     0.070 A 
HETATM   26  O   UNL     1       8.094  28.800  58.551  1.00  0.00    -0.325 OA
HETATM   27  C   UNL     1       8.831  29.849  58.103  1.00  0.00     0.142 A 
HETATM   28  C   UNL     1       9.233  29.636  56.806  1.00  0.00     0.027 A 
HETATM   29  C   UNL     1       8.711  28.375  56.432  1.00  0.00     0.036 A 
ENDBRANCH  24  25
ENDBRANCH  21  24
ENDBRANCH   2  20
TORSDOF 7
ENDMDL
MODEL 9
REMARK VINA RESULT:      -8.7      2.010      3.034
REMARK  7 active torsions:
REMARK  status: ('A' for Active; 'I' for Inactive)
REMARK    1  A    between atoms: C_3  and  O_4 
REMARK    2  A    between atoms: O_4  and  C_5 
REMARK    3  A    between atoms: C_5  and  C_6 
REMARK       I    between atoms: C_6  and  N_7 
REMARK    4  A    between atoms: N_7  and  C_8 
REMARK    5  A    between atoms: C_9  and  C_10 
REMARK       I    between atoms: C_10  and  N_11 
REMARK    6  A    between atoms: N_11  and  C_12 
REMARK    7  A    between atoms: C_12  and  C_13 
ROOT
HETATM    1  C   UNL     1       5.496  27.899  53.197  1.00  0.00     0.050 A 
HETATM    2  C   UNL     1       5.928  28.567  54.366  1.00  0.00     0.058 A 
HETATM    3  C   UNL     1       5.076  29.490  55.001  1.00  0.00     0.019 A 
HETATM    4  C   UNL     1       3.826  29.788  54.463  1.00  0.00     0.001 A 
HETATM    5  C   UNL     1       3.413  29.161  53.293  1.00  0.00     0.002 A 
HETATM    6  C   UNL     1       4.238  28.221  52.670  1.00  0.00     0.030 A 
ENDROOT
BRANCH   1   7
HETATM    7  N   UNL     1       6.312  26.890  52.621  1.00  0.00    -0.324 N 
HETATM    8  C   UNL     1       6.187  25.520  52.768  1.00  0.00     0.246 C 
HETATM    9  O   UNL     1       5.212  24.946  53.250  1.00  0.00    -0.271 OA
HETATM   10  H   UNL     1       7.074  27.243  52.037  1.00  0.00     0.169 HD
BRANCH   8  11
HETATM   11  C   UNL     1       7.400  24.739  52.262  1.00  0.00     0.278 C 
BRANCH  11  12
HETATM   12  O   UNL     1       8.140  24.344  53.412  1.00  0.00    -0.342 OA
BRANCH  12  13
HETATM   13  C   UNL     1       8.127  23.026  53.773  1.00  0.00     0.075 A 
HETATM   14  C   UNL     1       8.417  22.764  55.125  1.00  0.00    -0.029 A 
HETATM   15  C   UNL     1       8.666  23.884  56.100  1.00  0.00     0.051 C 
HETATM   16  C   UNL     1       8.405  21.441  55.589  1.00  0.00     0.009 A 
HETATM   17  C   UNL     1       8.141  20.387  54.718  1.00  0.00     0.001 A 
HETATM   18  C   UNL     1       7.880  20.648  53.375  1.00  0.00     0.003 A 
HETATM   19  C   UNL     1       7.873  21.963  52.902  1.00  0.00     0.037 A 
ENDBRANCH  12  13
ENDBRANCH  11  12
ENDBRANCH   8  11
ENDBRANCH   1   7
BRANCH   2  20
HETATM   20  C   UNL     1       7.287  28.303  54.933  1.00  0.00     0.254 C 
HETATM   21  N   UNL     1       7.386  28.283  56.304  1.00  0.00    -0.351 N 
HETATM   22  H   UNL     1       6.587  28.474  56.894  1.00  0.00     0.163 HD
HETATM   23  O   UNL     1       8.257  28.160  54.191  1.00  0.00    -0.268 OA
BRANCH  21  24
HETATM   24  C   UNL     1       8.628  27.986  56.980  1.00  0.00     0.187 C 
BRANCH  24  25
HETATM   25  C   UNL     1       9.211  29.254  57.484  1.00  0.00     0.070 A 
HETATM   26  O   UNL     1       8.401  30.046  58.252  1.00  0.00    -0.325 OA
HETATM   27  C   UNL     1       9.124  31.145  58.589  1.00  0.00     0.142 A 
HETATM   28  C   UNL     1      10.386  31.076  58.050  1.00  0.00     0.027 A 
HETATM   29  C   UNL     1      10.445  29.856  57.336  1.00  0.00     0.036 A 
ENDBRANCH  24  25
ENDBRANCH  21  24
ENDBRANCH   2  20
TORSDOF 7
ENDMDL
MODEL 10
REMARK VINA RESULT:      -8.6      2.502      9.520
REMARK  7 active torsions:
REMARK  status: ('A' for Active; 'I' for Inactive)
REMARK    1  A    between atoms: C_3  and  O_4 
REMARK    2  A    between atoms: O_4  and  C_5 
REMARK    3  A    between atoms: C_5  and  C_6 
REMARK       I    between atoms: C_6  and  N_7 
REMARK    4  A    between atoms: N_7  and  C_8 
REMARK    5  A    between atoms: C_9  and  C_10 
REMARK       I    between atoms: C_10  and  N_11 
REMARK    6  A    between atoms: N_11  and  C_12 
REMARK    7  A    between atoms: C_12  and  C_13 
ROOT
HETATM    1  C   UNL     1       8.452  30.541  58.453  1.00  0.00     0.050 A 
HETATM    2  C   UNL     1       8.441  29.371  57.661  1.00  0.00     0.058 A 
HETATM    3  C   UNL     1       9.597  28.992  56.952  1.00  0.00     0.019 A 
HETATM    4  C   UNL     1      10.742  29.786  56.989  1.00  0.00     0.001 A 
HETATM    5  C   UNL     1      10.744  30.956  57.737  1.00  0.00     0.002 A 
HETATM    6  C   UNL     1       9.612  31.327  58.468  1.00  0.00     0.030 A 
ENDROOT
BRANCH   1   7
HETATM    7  N   UNL     1       7.323  30.861  59.252  1.00  0.00    -0.324 N 
HETATM    8  C   UNL     1       6.395  31.865  59.035  1.00  0.00     0.246 C 
HETATM    9  O   UNL     1       6.278  32.509  57.995  1.00  0.00    -0.271 OA
HETATM   10  H   UNL     1       7.204  30.267  60.075  1.00  0.00     0.169 HD
BRANCH   8  11
HETATM   11  C   UNL     1       5.485  32.123  60.237  1.00  0.00     0.278 C 
BRANCH  11  12
HETATM   12  O   UNL     1       6.164  31.616  61.380  1.00  0.00    -0.342 OA
BRANCH  12  13
HETATM   13  C   UNL     1       6.299  32.428  62.471  1.00  0.00     0.075 A 
HETATM   14  C   UNL     1       7.556  32.390  63.104  1.00  0.00    -0.029 A 
HETATM   15  C   UNL     1       8.676  31.545  62.562  1.00  0.00     0.051 C 
HETATM   16  C   UNL     1       7.791  33.207  64.219  1.00  0.00     0.009 A 
HETATM   17  C   UNL     1       6.783  34.028  64.720  1.00  0.00     0.001 A 
HETATM   18  C   UNL     1       5.533  34.043  64.107  1.00  0.00     0.003 A 
HETATM   19  C   UNL     1       5.290  33.246  62.986  1.00  0.00     0.037 A 
ENDBRANCH  12  13
ENDBRANCH  11  12
ENDBRANCH   8  11
ENDBRANCH   1   7
BRANCH   2  20
HETATM   20  C   UNL     1       7.206  28.531  57.564  1.00  0.00     0.254 C 
HETATM   21  N   UNL     1       7.394  27.172  57.478  1.00  0.00    -0.351 N 
HETATM   22  H   UNL     1       8.321  26.768  57.444  1.00  0.00     0.163 HD
HETATM   23  O   UNL     1       6.095  29.056  57.520  1.00  0.00    -0.268 OA
BRANCH  21  24
HETATM   24  C   UNL     1       6.287  26.245  57.435  1.00  0.00     0.187 C 
BRANCH  24  25
HETATM   25  C   UNL     1       6.320  25.524  56.137  1.00  0.00     0.070 A 
HETATM   26  O   UNL     1       5.360  25.858  55.220  1.00  0.00    -0.325 OA
HETATM   27  C   UNL     1       5.566  25.078  54.128  1.00  0.00     0.142 A 
HETATM   28  C   UNL     1       6.643  24.247  54.325  1.00  0.00     0.027 A 
HETATM   29  C   UNL     1       7.131  24.533  55.622  1.00  0.00     0.036 A 
ENDBRANCH  24  25
ENDBRANCH  21  24
ENDBRANCH   2  20
TORSDOF 7
ENDMDL
