MODEL 1
REMARK VINA RESULT:      -8.8      0.000      0.000
REMARK  10 active torsions:
REMARK  status: ('A' for Active; 'I' for Inactive)
REMARK    1  A    between atoms: C_2  and  C_3 
REMARK    2  A    between atoms: C_3  and  N_4 
REMARK    3  A    between atoms: C_10  and  C_11 
REMARK    4  A    between atoms: C_11  and  C_12 
REMARK    5  A    between atoms: C_12  and  S_13 
REMARK    6  A    between atoms: S_13  and  C_14 
REMARK    7  A    between atoms: N_15  and  C_16 
REMARK    8  A    between atoms: C_23  and  C_24 
REMARK    9  A    between atoms: C_24  and  N_25 
REMARK   10  A    between atoms: C_33  and  N_34 
ROOT
HETATM    1  S   UNL     1       7.548  27.466  56.153  1.00  0.00    -0.082 SA
ENDROOT
BRANCH   1   2
HETATM    2  C   UNL     1       7.821  27.900  57.903  1.00  0.00     0.166 C 
BRANCH   2   3
HETATM    3  C   UNL     1       8.375  29.316  57.986  1.00  0.00     0.177 C 
HETATM    4  O   UNL     1       9.479  29.589  57.490  1.00  0.00    -0.291 OA
BRANCH   3   5
HETATM    5  C   UNL     1       7.588  30.377  58.703  1.00  0.00     0.117 C 
HETATM    6  C   UNL     1       6.298  30.851  58.163  1.00  0.00     0.266 C 
HETATM    7  N   UNL     1       5.542  31.622  58.981  1.00  0.00    -0.274 N 
HETATM    8  O   UNL     1       5.943  30.595  57.016  1.00  0.00    -0.267 OA
HETATM    9  C   UNL     1       6.045  32.329  60.026  1.00  0.00     0.330 C 
HETATM   10  H   UNL     1       4.672  31.976  58.606  1.00  0.00     0.173 HD
HETATM   11  N   UNL     1       7.317  31.962  60.453  1.00  0.00    -0.289 N 
HETATM   12  O   UNL     1       5.387  33.247  60.507  1.00  0.00    -0.246 OA
HETATM   13  C   UNL     1       8.077  30.970  59.822  1.00  0.00     0.103 C 
BRANCH  11  14
HETATM   14  C   UNL     1       7.849  32.714  61.598  1.00  0.00     0.135 C 
BRANCH  14  15
HETATM   15  C   UNL     1       7.458  32.053  62.924  1.00  0.00     0.016 C 
HETATM   16  C   UNL     1       7.681  32.984  64.104  1.00  0.00     0.006 C 
ENDBRANCH  14  15
ENDBRANCH  11  14
BRANCH  13  17
HETATM   17  N   UNL     1       9.315  30.621  60.350  1.00  0.00    -0.287 NA
HETATM   18  H   UNL     1      10.088  30.811  59.704  1.00  0.00     0.125 HD
HETATM   19  H   UNL     1       9.499  31.058  61.248  1.00  0.00     0.125 HD
ENDBRANCH  13  17
ENDBRANCH   3   5
ENDBRANCH   2   3
ENDBRANCH   1   2
BRANCH   1  20
HETATM   20  C   UNL     1       7.775  25.749  56.229  1.00  0.00     0.196 A 
HETATM   21  N   UNL     1       7.260  24.819  55.340  1.00  0.00    -0.274 N 
HETATM   22  C   UNL     1       7.567  23.599  55.941  1.00  0.00     0.166 A 
HETATM   23  N   UNL     1       8.207  23.803  57.076  1.00  0.00    -0.131 NA
HETATM   24  N   UNL     1       8.339  25.145  57.250  1.00  0.00    -0.122 NA
BRANCH  21  25
HETATM   25  C   UNL     1       6.660  25.022  54.065  1.00  0.00     0.043 A 
HETATM   26  C   UNL     1       5.265  25.021  53.933  1.00  0.00     0.032 A 
HETATM   27  C   UNL     1       4.672  25.260  52.689  1.00  0.00     0.026 A 
HETATM   28  C   UNL     1       5.468  25.498  51.573  1.00  0.00     0.034 A 
HETATM   29 CL   UNL     1       4.738  25.805  50.048  1.00  0.00    -0.084 Cl
HETATM   30  C   UNL     1       6.855  25.490  51.690  1.00  0.00     0.026 A 
HETATM   31  C   UNL     1       7.454  25.252  52.933  1.00  0.00     0.032 A 
ENDBRANCH  21  25
BRANCH  22  32
HETATM   32  C   UNL     1       7.430  22.227  55.353  1.00  0.00     0.254 C 
HETATM   33  C   UNL     1       7.811  21.192  56.419  1.00  0.00     0.049 C 
BRANCH  32  34
HETATM   34  N   UNL     1       8.383  22.088  54.142  1.00  0.00    -0.068 N 
HETATM   35  H   UNL     1       8.314  23.000  53.659  1.00  0.00     0.279 HD
HETATM   36  C   UNL     1       9.825  21.848  54.475  1.00  0.00     0.270 C 
HETATM   37  C   UNL     1       7.891  21.069  53.143  1.00  0.00     0.270 C 
ENDBRANCH  32  34
ENDBRANCH  22  32
ENDBRANCH   1  20
TORSDOF 10
ENDMDL
MODEL 2
REMARK VINA RESULT:      -8.5      5.024      9.588
REMARK  10 active torsions:
REMARK  status: ('A' for Active; 'I' for Inactive)
REMARK    1  A    between atoms: C_2  and  C_3 
REMARK    2  A    between atoms: C_3  and  N_4 
REMARK    3  A    between atoms: C_10  and  C_11 
REMARK    4  A    between atoms: C_11  and  C_12 
REMARK    5  A    between atoms: C_12  and  S_13 
REMARK    6  A    between atoms: S_13  and  C_14 
REMARK    7  A    between atoms: N_15  and  C_16 
REMARK    8  A    between atoms: C_23  and  C_24 
REMARK    9  A    between atoms: C_24  and  N_25 
REMARK   10  A    between atoms: C_33  and  N_34 
ROOT
HETATM    1  S   UNL     1       4.021  27.894  53.284  1.00  0.00    -0.082 SA
ENDROOT
BRANCH   1   2
HETATM    2  C   UNL     1       3.963  29.304  52.129  1.00  0.00     0.166 C 
BRANCH   2   3
HETATM    3  C   UNL     1       4.746  28.954  50.872  1.00  0.00     0.177 C 
HETATM    4  O   UNL     1       5.823  29.518  50.624  1.00  0.00    -0.291 OA
BRANCH   3   5
HETATM    5  C   UNL     1       4.190  27.939  49.913  1.00  0.00     0.117 C 
HETATM    6  C   UNL     1       4.624  26.528  49.974  1.00  0.00     0.266 C 
HETATM    7  N   UNL     1       3.907  25.639  49.246  1.00  0.00    -0.274 N 
HETATM    8  O   UNL     1       5.609  26.182  50.618  1.00  0.00    -0.267 OA
HETATM    9  C   UNL     1       3.148  25.982  48.173  1.00  0.00     0.330 C 
HETATM   10  H   UNL     1       4.218  24.677  49.259  1.00  0.00     0.173 HD
HETATM   11  N   UNL     1       2.845  27.334  48.048  1.00  0.00    -0.289 N 
HETATM   12  O   UNL     1       2.804  25.115  47.375  1.00  0.00    -0.246 OA
HETATM   13  C   UNL     1       3.331  28.308  48.928  1.00  0.00     0.103 C 
BRANCH  11  14
HETATM   14  C   UNL     1       2.005  27.699  46.899  1.00  0.00     0.135 C 
BRANCH  14  15
HETATM   15  C   UNL     1       0.522  27.465  47.201  1.00  0.00     0.016 C 
HETATM   16  C   UNL     1      -0.352  27.766  45.995  1.00  0.00     0.006 C 
ENDBRANCH  14  15
ENDBRANCH  11  14
BRANCH  13  17
HETATM   17  N   UNL     1       2.930  29.631  48.769  1.00  0.00    -0.287 NA
HETATM   18  H   UNL     1       3.181  30.012  47.851  1.00  0.00     0.125 HD
HETATM   19  H   UNL     1       1.939  29.766  48.942  1.00  0.00     0.125 HD
ENDBRANCH  13  17
ENDBRANCH   3   5
ENDBRANCH   2   3
ENDBRANCH   1   2
BRANCH   1  20
HETATM   20  C   UNL     1       5.298  28.417  54.334  1.00  0.00     0.196 A 
HETATM   21  N   UNL     1       6.347  27.634  54.791  1.00  0.00    -0.274 N 
HETATM   22  C   UNL     1       6.971  28.455  55.730  1.00  0.00     0.166 A 
HETATM   23  N   UNL     1       6.341  29.612  55.807  1.00  0.00    -0.131 NA
HETATM   24  N   UNL     1       5.302  29.586  54.932  1.00  0.00    -0.122 NA
BRANCH  21  25
HETATM   25  C   UNL     1       6.777  26.350  54.352  1.00  0.00     0.043 A 
HETATM   26  C   UNL     1       6.359  25.196  55.028  1.00  0.00     0.032 A 
HETATM   27  C   UNL     1       6.746  23.931  54.575  1.00  0.00     0.026 A 
HETATM   28  C   UNL     1       7.556  23.813  53.449  1.00  0.00     0.034 A 
HETATM   29 CL   UNL     1       8.021  22.259  52.885  1.00  0.00    -0.084 Cl
HETATM   30  C   UNL     1       7.986  24.954  52.776  1.00  0.00     0.026 A 
HETATM   31  C   UNL     1       7.600  26.222  53.226  1.00  0.00     0.032 A 
ENDBRANCH  21  25
BRANCH  22  32
HETATM   32  C   UNL     1       8.281  28.227  56.421  1.00  0.00     0.254 C 
HETATM   33  C   UNL     1       8.030  27.417  57.700  1.00  0.00     0.049 C 
BRANCH  32  34
HETATM   34  N   UNL     1       8.911  29.590  56.794  1.00  0.00    -0.068 N 
HETATM   35  H   UNL     1       8.328  30.284  56.296  1.00  0.00     0.279 HD
HETATM   36  C   UNL     1       8.896  29.935  58.253  1.00  0.00     0.270 C 
HETATM   37  C   UNL     1      10.300  29.751  56.224  1.00  0.00     0.270 C 
ENDBRANCH  32  34
ENDBRANCH  22  32
ENDBRANCH   1  20
TORSDOF 10
ENDMDL
MODEL 3
REMARK VINA RESULT:      -8.5      4.884      9.186
REMARK  10 active torsions:
REMARK  status: ('A' for Active; 'I' for Inactive)
REMARK    1  A    between atoms: C_2  and  C_3 
REMARK    2  A    between atoms: C_3  and  N_4 
REMARK    3  A    between atoms: C_10  and  C_11 
REMARK    4  A    between atoms: C_11  and  C_12 
REMARK    5  A    between atoms: C_12  and  S_13 
REMARK    6  A    between atoms: S_13  and  C_14 
REMARK    7  A    between atoms: N_15  and  C_16 
REMARK    8  A    between atoms: C_23  and  C_24 
REMARK    9  A    between atoms: C_24  and  N_25 
REMARK   10  A    between atoms: C_33  and  N_34 
ROOT
HETATM    1  S   UNL     1       4.358  28.486  54.414  1.00  0.00    -0.082 SA
ENDROOT
BRANCH   1   2
HETATM    2  C   UNL     1       3.148  28.350  53.056  1.00  0.00     0.166 C 
BRANCH   2   3
HETATM    3  C   UNL     1       3.666  29.116  51.847  1.00  0.00     0.177 C 
HETATM    4  O   UNL     1       3.866  30.339  51.916  1.00  0.00    -0.291 OA
BRANCH   3   5
HETATM    5  C   UNL     1       3.903  28.386  50.555  1.00  0.00     0.117 C 
HETATM    6  C   UNL     1       5.119  27.568  50.366  1.00  0.00     0.266 C 
HETATM    7  N   UNL     1       5.143  26.757  49.281  1.00  0.00    -0.274 N 
HETATM    8  O   UNL     1       6.077  27.648  51.127  1.00  0.00    -0.267 OA
HETATM    9  C   UNL     1       4.381  26.956  48.174  1.00  0.00     0.330 C 
HETATM   10  H   UNL     1       5.985  26.218  49.128  1.00  0.00     0.173 HD
HETATM   11  N   UNL     1       3.307  27.828  48.323  1.00  0.00    -0.289 N 
HETATM   12  O   UNL     1       4.686  26.399  47.123  1.00  0.00    -0.246 OA
HETATM   13  C   UNL     1       3.044  28.516  49.512  1.00  0.00     0.103 C 
BRANCH  11  14
HETATM   14  C   UNL     1       2.472  28.023  47.130  1.00  0.00     0.135 C 
BRANCH  14  15
HETATM   15  C   UNL     1       1.291  27.048  47.114  1.00  0.00     0.016 C 
HETATM   16  C   UNL     1       0.043  27.685  46.528  1.00  0.00     0.006 C 
ENDBRANCH  14  15
ENDBRANCH  11  14
BRANCH  13  17
HETATM   17  N   UNL     1       1.913  29.322  49.597  1.00  0.00    -0.287 NA
HETATM   18  H   UNL     1       2.002  30.186  49.051  1.00  0.00     0.125 HD
HETATM   19  H   UNL     1       1.061  28.835  49.338  1.00  0.00     0.125 HD
ENDBRANCH  13  17
ENDBRANCH   3   5
ENDBRANCH   2   3
ENDBRANCH   1   2
BRANCH   1  20
HETATM   20  C   UNL     1       5.179  26.969  54.238  1.00  0.00     0.196 A 
HETATM   21  N   UNL     1       6.499  26.714  54.577  1.00  0.00    -0.274 N 
HETATM   22  C   UNL     1       6.715  25.431  54.075  1.00  0.00     0.166 A 
HETATM   23  N   UNL     1       5.616  24.982  53.498  1.00  0.00    -0.131 NA
HETATM   24  N   UNL     1       4.660  25.941  53.607  1.00  0.00    -0.122 NA
BRANCH  21  25
HETATM   25  C   UNL     1       7.404  27.499  55.346  1.00  0.00     0.043 A 
HETATM   26  C   UNL     1       8.265  28.407  54.714  1.00  0.00     0.032 A 
HETATM   27  C   UNL     1       9.126  29.209  55.469  1.00  0.00     0.026 A 
HETATM   28  C   UNL     1       9.135  29.104  56.857  1.00  0.00     0.034 A 
HETATM   29 CL   UNL     1      10.184  30.099  57.785  1.00  0.00    -0.084 Cl
HETATM   30  C   UNL     1       8.293  28.198  57.495  1.00  0.00     0.026 A 
HETATM   31  C   UNL     1       7.428  27.393  56.743  1.00  0.00     0.032 A 
ENDBRANCH  21  25
BRANCH  22  32
HETATM   32  C   UNL     1       7.900  24.544  54.304  1.00  0.00     0.254 C 
HETATM   33  C   UNL     1       8.068  23.619  53.092  1.00  0.00     0.049 C 
BRANCH  32  34
HETATM   34  N   UNL     1       7.666  23.689  55.572  1.00  0.00    -0.068 N 
HETATM   35  H   UNL     1       6.758  24.022  55.939  1.00  0.00     0.279 HD
HETATM   36  C   UNL     1       7.558  22.210  55.347  1.00  0.00     0.270 C 
HETATM   37  C   UNL     1       8.671  23.989  56.657  1.00  0.00     0.270 C 
ENDBRANCH  32  34
ENDBRANCH  22  32
ENDBRANCH   1  20
TORSDOF 10
ENDMDL
MODEL 4
REMARK VINA RESULT:      -8.4      3.593      9.398
REMARK  10 active torsions:
REMARK  status: ('A' for Active; 'I' for Inactive)
REMARK    1  A    between atoms: C_2  and  C_3 
REMARK    2  A    between atoms: C_3  and  N_4 
REMARK    3  A    between atoms: C_10  and  C_11 
REMARK    4  A    between atoms: C_11  and  C_12 
REMARK    5  A    between atoms: C_12  and  S_13 
REMARK    6  A    between atoms: S_13  and  C_14 
REMARK    7  A    between atoms: N_15  and  C_16 
REMARK    8  A    between atoms: C_23  and  C_24 
REMARK    9  A    between atoms: C_24  and  N_25 
REMARK   10  A    between atoms: C_33  and  N_34 
ROOT
HETATM    1  S   UNL     1       5.058  28.867  56.263  1.00  0.00    -0.082 SA
ENDROOT
BRANCH   1   2
HETATM    2  C   UNL     1       6.052  27.703  55.272  1.00  0.00     0.166 C 
BRANCH   2   3
HETATM    3  C   UNL     1       5.738  26.279  55.709  1.00  0.00     0.177 C 
HETATM    4  O   UNL     1       4.986  26.068  56.673  1.00  0.00    -0.291 OA
BRANCH   3   5
HETATM    5  C   UNL     1       6.372  25.126  54.984  1.00  0.00     0.117 C 
HETATM    6  C   UNL     1       5.840  24.671  53.682  1.00  0.00     0.266 C 
HETATM    7  N   UNL     1       6.603  23.796  52.985  1.00  0.00    -0.274 N 
HETATM    8  O   UNL     1       4.743  25.034  53.270  1.00  0.00    -0.267 OA
HETATM    9  C   UNL     1       7.546  23.000  53.553  1.00  0.00     0.330 C 
HETATM   10  H   UNL     1       6.230  23.457  52.108  1.00  0.00     0.173 HD
HETATM   11  N   UNL     1       7.955  23.359  54.833  1.00  0.00    -0.289 N 
HETATM   12  O   UNL     1       7.955  22.018  52.941  1.00  0.00    -0.246 OA
HETATM   13  C   UNL     1       7.400  24.434  55.537  1.00  0.00     0.103 C 
BRANCH  11  14
HETATM   14  C   UNL     1       8.991  22.509  55.435  1.00  0.00     0.135 C 
BRANCH  14  15
HETATM   15  C   UNL     1       8.384  21.515  56.430  1.00  0.00     0.016 C 
HETATM   16  C   UNL     1       8.354  20.104  55.868  1.00  0.00     0.006 C 
ENDBRANCH  14  15
ENDBRANCH  11  14
BRANCH  13  17
HETATM   17  N   UNL     1       7.910  24.764  56.789  1.00  0.00    -0.287 NA
HETATM   18  H   UNL     1       7.257  24.549  57.550  1.00  0.00     0.125 HD
HETATM   19  H   UNL     1       8.811  24.335  56.974  1.00  0.00     0.125 HD
ENDBRANCH  13  17
ENDBRANCH   3   5
ENDBRANCH   2   3
ENDBRANCH   1   2
BRANCH   1  20
HETATM   20  C   UNL     1       6.231  29.330  57.452  1.00  0.00     0.196 A 
HETATM   21  N   UNL     1       6.309  30.563  58.081  1.00  0.00    -0.274 N 
HETATM   22  C   UNL     1       7.510  30.485  58.786  1.00  0.00     0.166 A 
HETATM   23  N   UNL     1       8.075  29.310  58.585  1.00  0.00    -0.131 NA
HETATM   24  N   UNL     1       7.273  28.591  57.758  1.00  0.00    -0.122 NA
BRANCH  21  25
HETATM   25  C   UNL     1       5.361  31.624  58.113  1.00  0.00     0.043 A 
HETATM   26  C   UNL     1       4.511  31.779  59.216  1.00  0.00     0.032 A 
HETATM   27  C   UNL     1       3.607  32.845  59.268  1.00  0.00     0.026 A 
HETATM   28  C   UNL     1       3.545  33.757  58.219  1.00  0.00     0.034 A 
HETATM   29 CL   UNL     1       2.444  35.073  58.290  1.00  0.00    -0.084 Cl
HETATM   30  C   UNL     1       4.377  33.606  57.113  1.00  0.00     0.026 A 
HETATM   31  C   UNL     1       5.284  32.541  57.056  1.00  0.00     0.032 A 
ENDBRANCH  21  25
BRANCH  22  32
HETATM   32  C   UNL     1       8.036  31.446  59.808  1.00  0.00     0.254 C 
HETATM   33  C   UNL     1       9.505  31.754  59.486  1.00  0.00     0.049 C 
BRANCH  32  34
HETATM   34  N   UNL     1       7.945  30.805  61.213  1.00  0.00    -0.068 N 
HETATM   35  H   UNL     1       7.425  29.925  61.057  1.00  0.00     0.279 HD
HETATM   36  C   UNL     1       9.255  30.462  61.857  1.00  0.00     0.270 C 
HETATM   37  C   UNL     1       7.086  31.615  62.155  1.00  0.00     0.270 C 
ENDBRANCH  32  34
ENDBRANCH  22  32
ENDBRANCH   1  20
TORSDOF 10
ENDMDL
MODEL 5
REMARK VINA RESULT:      -8.4      3.214      5.163
REMARK  10 active torsions:
REMARK  status: ('A' for Active; 'I' for Inactive)
REMARK    1  A    between atoms: C_2  and  C_3 
REMARK    2  A    between atoms: C_3  and  N_4 
REMARK    3  A    between atoms: C_10  and  C_11 
REMARK    4  A    between atoms: C_11  and  C_12 
REMARK    5  A    between atoms: C_12  and  S_13 
REMARK    6  A    between atoms: S_13  and  C_14 
REMARK    7  A    between atoms: N_15  and  C_16 
REMARK    8  A    between atoms: C_23  and  C_24 
REMARK    9  A    between atoms: C_24  and  N_25 
REMARK   10  A    between atoms: C_33  and  N_34 
ROOT
HETATM    1  S   UNL     1       4.690  28.347  55.322  1.00  0.00    -0.082 SA
ENDROOT
BRANCH   1   2
HETATM    2  C   UNL     1       6.405  28.949  55.477  1.00  0.00     0.166 C 
BRANCH   2   3
HETATM    3  C   UNL     1       6.924  28.625  56.870  1.00  0.00     0.177 C 
HETATM    4  O   UNL     1       6.638  27.547  57.413  1.00  0.00    -0.291 OA
BRANCH   3   5
HETATM    5  C   UNL     1       7.763  29.636  57.600  1.00  0.00     0.117 C 
HETATM    6  C   UNL     1       9.236  29.614  57.488  1.00  0.00     0.266 C 
HETATM    7  N   UNL     1       9.900  30.691  57.973  1.00  0.00    -0.274 N 
HETATM    8  O   UNL     1       9.834  28.653  57.016  1.00  0.00    -0.267 OA
HETATM    9  C   UNL     1       9.387  31.534  58.907  1.00  0.00     0.330 C 
HETATM   10  H   UNL     1      10.910  30.668  57.927  1.00  0.00     0.173 HD
HETATM   11  N   UNL     1       8.011  31.462  59.101  1.00  0.00    -0.289 N 
HETATM   12  O   UNL     1      10.142  32.270  59.535  1.00  0.00    -0.246 OA
HETATM   13  C   UNL     1       7.193  30.545  58.432  1.00  0.00     0.103 C 
BRANCH  11  14
HETATM   14  C   UNL     1       7.457  32.391  60.096  1.00  0.00     0.135 C 
BRANCH  14  15
HETATM   15  C   UNL     1       7.341  31.725  61.471  1.00  0.00     0.016 C 
HETATM   16  C   UNL     1       8.232  32.400  62.500  1.00  0.00     0.006 C 
ENDBRANCH  14  15
ENDBRANCH  11  14
BRANCH  13  17
HETATM   17  N   UNL     1       5.817  30.582  58.637  1.00  0.00    -0.287 NA
HETATM   18  H   UNL     1       5.562  30.461  59.623  1.00  0.00     0.125 HD
HETATM   19  H   UNL     1       5.385  31.423  58.268  1.00  0.00     0.125 HD
ENDBRANCH  13  17
ENDBRANCH   3   5
ENDBRANCH   2   3
ENDBRANCH   1   2
BRANCH   1  20
HETATM   20  C   UNL     1       4.458  28.533  53.614  1.00  0.00     0.196 A 
HETATM   21  N   UNL     1       5.052  27.765  52.624  1.00  0.00    -0.274 N 
HETATM   22  C   UNL     1       4.693  28.427  51.450  1.00  0.00     0.166 A 
HETATM   23  N   UNL     1       3.955  29.482  51.735  1.00  0.00    -0.131 NA
HETATM   24  N   UNL     1       3.806  29.542  53.084  1.00  0.00    -0.122 NA
BRANCH  21  25
HETATM   25  C   UNL     1       5.762  26.537  52.735  1.00  0.00     0.043 A 
HETATM   26  C   UNL     1       5.066  25.327  52.865  1.00  0.00     0.032 A 
HETATM   27  C   UNL     1       5.760  24.115  52.934  1.00  0.00     0.026 A 
HETATM   28  C   UNL     1       7.151  24.106  52.878  1.00  0.00     0.034 A 
HETATM   29 CL   UNL     1       8.002  22.615  52.948  1.00  0.00    -0.084 Cl
HETATM   30  C   UNL     1       7.853  25.302  52.760  1.00  0.00     0.026 A 
HETATM   31  C   UNL     1       7.163  26.518  52.691  1.00  0.00     0.032 A 
ENDBRANCH  21  25
BRANCH  22  32
HETATM   32  C   UNL     1       4.883  27.958  50.039  1.00  0.00     0.254 C 
HETATM   33  C   UNL     1       5.160  29.176  49.148  1.00  0.00     0.049 C 
BRANCH  32  34
HETATM   34  N   UNL     1       3.596  27.251  49.553  1.00  0.00    -0.068 N 
HETATM   35  H   UNL     1       3.129  26.946  50.425  1.00  0.00     0.279 HD
HETATM   36  C   UNL     1       2.633  28.109  48.788  1.00  0.00     0.270 C 
HETATM   37  C   UNL     1       3.895  25.981  48.794  1.00  0.00     0.270 C 
ENDBRANCH  32  34
ENDBRANCH  22  32
ENDBRANCH   1  20
TORSDOF 10
ENDMDL
MODEL 6
REMARK VINA RESULT:      -7.9      3.033      4.818
REMARK  10 active torsions:
REMARK  status: ('A' for Active; 'I' for Inactive)
REMARK    1  A    between atoms: C_2  and  C_3 
REMARK    2  A    between atoms: C_3  and  N_4 
REMARK    3  A    between atoms: C_10  and  C_11 
REMARK    4  A    between atoms: C_11  and  C_12 
REMARK    5  A    between atoms: C_12  and  S_13 
REMARK    6  A    between atoms: S_13  and  C_14 
REMARK    7  A    between atoms: N_15  and  C_16 
REMARK    8  A    between atoms: C_23  and  C_24 
REMARK    9  A    between atoms: C_24  and  N_25 
REMARK   10  A    between atoms: C_33  and  N_34 
ROOT
HETATM    1  S   UNL     1       5.021  30.775  55.596  1.00  0.00    -0.082 SA
ENDROOT
BRANCH   1   2
HETATM    2  C   UNL     1       4.642  30.712  57.379  1.00  0.00     0.166 C 
BRANCH   2   3
HETATM    3  C   UNL     1       5.124  31.996  58.039  1.00  0.00     0.177 C 
HETATM    4  O   UNL     1       5.500  32.956  57.347  1.00  0.00    -0.291 OA
BRANCH   3   5
HETATM    5  C   UNL     1       5.172  32.084  59.538  1.00  0.00     0.117 C 
HETATM    6  C   UNL     1       3.935  31.973  60.339  1.00  0.00     0.266 C 
HETATM    7  N   UNL     1       4.088  31.821  61.676  1.00  0.00    -0.274 N 
HETATM    8  O   UNL     1       2.824  32.055  59.827  1.00  0.00    -0.267 OA
HETATM    9  C   UNL     1       5.205  32.194  62.354  1.00  0.00     0.330 C 
HETATM   10  H   UNL     1       3.246  31.775  62.234  1.00  0.00     0.173 HD
HETATM   11  N   UNL     1       6.339  32.423  61.581  1.00  0.00    -0.289 N 
HETATM   12  O   UNL     1       5.151  32.339  63.572  1.00  0.00    -0.246 OA
HETATM   13  C   UNL     1       6.339  32.337  60.184  1.00  0.00     0.103 C 
BRANCH  11  14
HETATM   14  C   UNL     1       7.550  32.805  62.320  1.00  0.00     0.135 C 
BRANCH  14  15
HETATM   15  C   UNL     1       8.712  31.857  62.008  1.00  0.00     0.016 C 
HETATM   16  C   UNL     1       8.509  30.490  62.638  1.00  0.00     0.006 C 
ENDBRANCH  14  15
ENDBRANCH  11  14
BRANCH  13  17
HETATM   17  N   UNL     1       7.531  32.519  59.490  1.00  0.00    -0.287 NA
HETATM   18  H   UNL     1       8.330  32.075  59.955  1.00  0.00     0.125 HD
HETATM   19  H   UNL     1       7.477  32.209  58.525  1.00  0.00     0.125 HD
ENDBRANCH  13  17
ENDBRANCH   3   5
ENDBRANCH   2   3
ENDBRANCH   1   2
BRANCH   1  20
HETATM   20  C   UNL     1       5.317  29.094  55.291  1.00  0.00     0.196 A 
HETATM   21  N   UNL     1       6.546  28.458  55.368  1.00  0.00    -0.274 N 
HETATM   22  C   UNL     1       6.279  27.187  54.858  1.00  0.00     0.166 A 
HETATM   23  N   UNL     1       5.007  27.096  54.518  1.00  0.00    -0.131 NA
HETATM   24  N   UNL     1       4.410  28.285  54.795  1.00  0.00    -0.122 NA
BRANCH  21  25
HETATM   25  C   UNL     1       7.771  28.919  55.928  1.00  0.00     0.043 A 
HETATM   26  C   UNL     1       7.882  29.125  57.309  1.00  0.00     0.032 A 
HETATM   27  C   UNL     1       9.096  29.539  57.867  1.00  0.00     0.026 A 
HETATM   28  C   UNL     1      10.201  29.752  57.049  1.00  0.00     0.034 A 
HETATM   29 CL   UNL     1      11.695  30.247  57.737  1.00  0.00    -0.084 Cl
HETATM   30  C   UNL     1      10.099  29.561  55.674  1.00  0.00     0.026 A 
HETATM   31  C   UNL     1       8.886  29.146  55.110  1.00  0.00     0.032 A 
ENDBRANCH  21  25
BRANCH  22  32
HETATM   32  C   UNL     1       7.178  25.989  54.866  1.00  0.00     0.254 C 
HETATM   33  C   UNL     1       7.360  25.497  53.424  1.00  0.00     0.049 C 
BRANCH  32  34
HETATM   34  N   UNL     1       6.531  24.866  55.711  1.00  0.00    -0.068 N 
HETATM   35  H   UNL     1       5.556  24.819  55.368  1.00  0.00     0.279 HD
HETATM   36  C   UNL     1       7.140  23.504  55.557  1.00  0.00     0.270 C 
HETATM   37  C   UNL     1       6.423  25.239  57.170  1.00  0.00     0.270 C 
ENDBRANCH  32  34
ENDBRANCH  22  32
ENDBRANCH   1  20
TORSDOF 10
ENDMDL
MODEL 7
REMARK VINA RESULT:      -7.8      5.555      9.718
REMARK  10 active torsions:
REMARK  status: ('A' for Active; 'I' for Inactive)
REMARK    1  A    between atoms: C_2  and  C_3 
REMARK    2  A    between atoms: C_3  and  N_4 
REMARK    3  A    between atoms: C_10  and  C_11 
REMARK    4  A    between atoms: C_11  and  C_12 
REMARK    5  A    between atoms: C_12  and  S_13 
REMARK    6  A    between atoms: S_13  and  C_14 
REMARK    7  A    between atoms: N_15  and  C_16 
REMARK    8  A    between atoms: C_23  and  C_24 
REMARK    9  A    between atoms: C_24  and  N_25 
REMARK   10  A    between atoms: C_33  and  N_34 
ROOT
HETATM    1  S   UNL     1       3.918  27.837  53.314  1.00  0.00    -0.082 SA
ENDROOT
BRANCH   1   2
HETATM    2  C   UNL     1       4.144  28.977  51.909  1.00  0.00     0.166 C 
BRANCH   2   3
HETATM    3  C   UNL     1       4.206  28.174  50.618  1.00  0.00     0.177 C 
HETATM    4  O   UNL     1       4.598  26.996  50.628  1.00  0.00    -0.291 OA
BRANCH   3   5
HETATM    5  C   UNL     1       3.819  28.827  49.321  1.00  0.00     0.117 C 
HETATM    6  C   UNL     1       4.791  29.653  48.575  1.00  0.00     0.266 C 
HETATM    7  N   UNL     1       4.449  30.003  47.312  1.00  0.00    -0.274 N 
HETATM    8  O   UNL     1       5.838  30.039  49.085  1.00  0.00    -0.267 OA
HETATM    9  C   UNL     1       3.168  30.038  46.861  1.00  0.00     0.330 C 
HETATM   10  H   UNL     1       5.095  30.595  46.807  1.00  0.00     0.173 HD
HETATM   11  N   UNL     1       2.231  29.362  47.636  1.00  0.00    -0.289 N 
HETATM   12  O   UNL     1       2.904  30.669  45.842  1.00  0.00    -0.246 OA
HETATM   13  C   UNL     1       2.553  28.730  48.842  1.00  0.00     0.103 C 
BRANCH  11  14
HETATM   14  C   UNL     1       0.850  29.383  47.133  1.00  0.00     0.135 C 
BRANCH  14  15
HETATM   15  C   UNL     1       0.563  28.163  46.252  1.00  0.00     0.016 C 
HETATM   16  C   UNL     1      -0.926  27.875  46.157  1.00  0.00     0.006 C 
ENDBRANCH  14  15
ENDBRANCH  11  14
BRANCH  13  17
HETATM   17  N   UNL     1       1.568  28.023  49.525  1.00  0.00    -0.287 NA
HETATM   18  H   UNL     1       0.685  27.974  49.006  1.00  0.00     0.125 HD
HETATM   19  H   UNL     1       1.865  27.089  49.791  1.00  0.00     0.125 HD
ENDBRANCH  13  17
ENDBRANCH   3   5
ENDBRANCH   2   3
ENDBRANCH   1   2
BRANCH   1  20
HETATM   20  C   UNL     1       5.219  28.355  54.336  1.00  0.00     0.196 A 
HETATM   21  N   UNL     1       6.279  27.571  54.765  1.00  0.00    -0.274 N 
HETATM   22  C   UNL     1       6.925  28.388  55.692  1.00  0.00     0.166 A 
HETATM   23  N   UNL     1       6.296  29.544  55.789  1.00  0.00    -0.131 NA
HETATM   24  N   UNL     1       5.237  29.521  54.939  1.00  0.00    -0.122 NA
BRANCH  21  25
HETATM   25  C   UNL     1       6.699  26.290  54.309  1.00  0.00     0.043 A 
HETATM   26  C   UNL     1       7.440  26.169  53.126  1.00  0.00     0.032 A 
HETATM   27  C   UNL     1       7.889  24.915  52.698  1.00  0.00     0.026 A 
HETATM   28  C   UNL     1       7.596  23.778  53.445  1.00  0.00     0.034 A 
HETATM   29 CL   UNL     1       8.160  22.241  52.924  1.00  0.00    -0.084 Cl
HETATM   30  C   UNL     1       6.850  23.885  54.615  1.00  0.00     0.026 A 
HETATM   31  C   UNL     1       6.399  25.138  55.049  1.00  0.00     0.032 A 
ENDBRANCH  21  25
BRANCH  22  32
HETATM   32  C   UNL     1       8.251  28.157  56.350  1.00  0.00     0.254 C 
HETATM   33  C   UNL     1       8.034  27.317  57.616  1.00  0.00     0.049 C 
BRANCH  32  34
HETATM   34  N   UNL     1       8.876  29.517  56.740  1.00  0.00    -0.068 N 
HETATM   35  H   UNL     1       8.286  30.216  56.257  1.00  0.00     0.279 HD
HETATM   36  C   UNL     1       8.872  29.839  58.204  1.00  0.00     0.270 C 
HETATM   37  C   UNL     1      10.260  29.695  56.161  1.00  0.00     0.270 C 
ENDBRANCH  32  34
ENDBRANCH  22  32
ENDBRANCH   1  20
TORSDOF 10
ENDMDL
MODEL 8
REMARK VINA RESULT:      -7.7      5.118      8.595
REMARK  10 active torsions:
REMARK  status: ('A' for Active; 'I' for Inactive)
REMARK    1  A    between atoms: C_2  and  C_3 
REMARK    2  A    between atoms: C_3  and  N_4 
REMARK    3  A    between atoms: C_10  and  C_11 
REMARK    4  A    between atoms: C_11  and  C_12 
REMARK    5  A    between atoms: C_12  and  S_13 
REMARK    6  A    between atoms: S_13  and  C_14 
REMARK    7  A    between atoms: N_15  and  C_16 
REMARK    8  A    between atoms: C_23  and  C_24 
REMARK    9  A    between atoms: C_24  and  N_25 
REMARK   10  A    between atoms: C_33  and  N_34 
ROOT
HETATM    1  S   UNL     1       5.338  28.600  53.395  1.00  0.00    -0.082 SA
ENDROOT
BRANCH   1   2
HETATM    2  C   UNL     1       5.482  27.268  54.633  1.00  0.00     0.166 C 
BRANCH   2   3
HETATM    3  C   UNL     1       6.955  27.010  54.920  1.00  0.00     0.177 C 
HETATM    4  O   UNL     1       7.792  27.914  54.773  1.00  0.00    -0.291 OA
BRANCH   3   5
HETATM    5  C   UNL     1       7.394  25.640  55.352  1.00  0.00     0.117 C 
HETATM    6  C   UNL     1       7.386  25.263  56.781  1.00  0.00     0.266 C 
HETATM    7  N   UNL     1       7.562  23.950  57.065  1.00  0.00    -0.274 N 
HETATM    8  O   UNL     1       7.267  26.100  57.670  1.00  0.00    -0.267 OA
HETATM    9  C   UNL     1       8.162  23.071  56.221  1.00  0.00     0.330 C 
HETATM   10  H   UNL     1       7.589  23.690  58.042  1.00  0.00     0.173 HD
HETATM   11  N   UNL     1       8.283  23.482  54.897  1.00  0.00    -0.289 N 
HETATM   12  O   UNL     1       8.584  22.005  56.660  1.00  0.00    -0.246 OA
HETATM   13  C   UNL     1       7.873  24.744  54.451  1.00  0.00     0.103 C 
BRANCH  11  14
HETATM   14  C   UNL     1       8.913  22.520  53.983  1.00  0.00     0.135 C 
BRANCH  14  15
HETATM   15  C   UNL     1       7.859  21.716  53.214  1.00  0.00     0.016 C 
HETATM   16  C   UNL     1       8.357  20.323  52.867  1.00  0.00     0.006 C 
ENDBRANCH  14  15
ENDBRANCH  11  14
BRANCH  13  17
HETATM   17  N   UNL     1       7.972  25.054  53.098  1.00  0.00    -0.287 NA
HETATM   18  H   UNL     1       7.319  25.793  52.814  1.00  0.00     0.125 HD
HETATM   19  H   UNL     1       8.916  25.299  52.818  1.00  0.00     0.125 HD
ENDBRANCH  13  17
ENDBRANCH   3   5
ENDBRANCH   2   3
ENDBRANCH   1   2
BRANCH   1  20
HETATM   20  C   UNL     1       5.242  27.655  51.945  1.00  0.00     0.196 A 
HETATM   21  N   UNL     1       4.850  28.116  50.698  1.00  0.00    -0.274 N 
HETATM   22  C   UNL     1       4.766  26.949  49.939  1.00  0.00     0.166 A 
HETATM   23  N   UNL     1       5.083  25.905  50.680  1.00  0.00    -0.131 NA
HETATM   24  N   UNL     1       5.385  26.350  51.929  1.00  0.00    -0.122 NA
BRANCH  21  25
HETATM   25  C   UNL     1       4.678  29.453  50.240  1.00  0.00     0.043 A 
HETATM   26  C   UNL     1       3.396  30.013  50.163  1.00  0.00     0.032 A 
HETATM   27  C   UNL     1       3.227  31.339  49.752  1.00  0.00     0.026 A 
HETATM   28  C   UNL     1       4.335  32.109  49.413  1.00  0.00     0.034 A 
HETATM   29 CL   UNL     1       4.127  33.742  48.921  1.00  0.00    -0.084 Cl
HETATM   30  C   UNL     1       5.612  31.559  49.474  1.00  0.00     0.026 A 
HETATM   31  C   UNL     1       5.787  30.232  49.885  1.00  0.00     0.032 A 
ENDBRANCH  21  25
BRANCH  22  32
HETATM   32  C   UNL     1       4.572  26.830  48.458  1.00  0.00     0.254 C 
HETATM   33  C   UNL     1       5.432  27.893  47.761  1.00  0.00     0.049 C 
BRANCH  32  34
HETATM   34  N   UNL     1       3.083  27.070  48.113  1.00  0.00    -0.068 N 
HETATM   35  H   UNL     1       2.636  27.252  49.027  1.00  0.00     0.279 HD
HETATM   36  C   UNL     1       2.804  28.243  47.220  1.00  0.00     0.270 C 
HETATM   37  C   UNL     1       2.413  25.826  47.580  1.00  0.00     0.270 C 
ENDBRANCH  32  34
ENDBRANCH  22  32
ENDBRANCH   1  20
TORSDOF 10
ENDMDL
MODEL 9
REMARK VINA RESULT:      -7.6      4.632      7.111
REMARK  10 active torsions:
REMARK  status: ('A' for Active; 'I' for Inactive)
REMARK    1  A    between atoms: C_2  and  C_3 
REMARK    2  A    between atoms: C_3  and  N_4 
REMARK    3  A    between atoms: C_10  and  C_11 
REMARK    4  A    between atoms: C_11  and  C_12 
REMARK    5  A    between atoms: C_12  and  S_13 
REMARK    6  A    between atoms: S_13  and  C_14 
REMARK    7  A    between atoms: N_15  and  C_16 
REMARK    8  A    between atoms: C_23  and  C_24 
REMARK    9  A    between atoms: C_24  and  N_25 
REMARK   10  A    between atoms: C_33  and  N_34 
ROOT
HETATM    1  S   UNL     1       4.577  26.775  52.239  1.00  0.00    -0.082 SA
ENDROOT
BRANCH   1   2
HETATM    2  C   UNL     1       5.317  27.644  50.816  1.00  0.00     0.166 C 
BRANCH   2   3
HETATM    3  C   UNL     1       4.360  28.727  50.339  1.00  0.00     0.177 C 
HETATM    4  O   UNL     1       3.490  28.469  49.493  1.00  0.00    -0.291 OA
BRANCH   3   5
HETATM    5  C   UNL     1       4.497  30.124  50.877  1.00  0.00     0.117 C 
HETATM    6  C   UNL     1       5.576  31.012  50.399  1.00  0.00     0.266 C 
HETATM    7  N   UNL     1       5.488  32.319  50.746  1.00  0.00    -0.274 N 
HETATM    8  O   UNL     1       6.528  30.584  49.754  1.00  0.00    -0.267 OA
HETATM    9  C   UNL     1       4.776  32.768  51.812  1.00  0.00     0.330 C 
HETATM   10  H   UNL     1       6.240  32.926  50.449  1.00  0.00     0.173 HD
HETATM   11  N   UNL     1       3.846  31.879  52.342  1.00  0.00    -0.289 N 
HETATM   12  O   UNL     1       5.004  33.887  52.261  1.00  0.00    -0.246 OA
HETATM   13  C   UNL     1       3.678  30.576  51.861  1.00  0.00     0.103 C 
BRANCH  11  14
HETATM   14  C   UNL     1       3.062  32.376  53.480  1.00  0.00     0.135 C 
BRANCH  14  15
HETATM   15  C   UNL     1       3.709  31.983  54.812  1.00  0.00     0.016 C 
HETATM   16  C   UNL     1       2.668  31.728  55.890  1.00  0.00     0.006 C 
ENDBRANCH  14  15
ENDBRANCH  11  14
BRANCH  13  17
HETATM   17  N   UNL     1       2.681  29.771  52.405  1.00  0.00    -0.287 NA
HETATM   18  H   UNL     1       1.867  29.680  51.789  1.00  0.00     0.125 HD
HETATM   19  H   UNL     1       3.019  28.852  52.671  1.00  0.00     0.125 HD
ENDBRANCH  13  17
ENDBRANCH   3   5
ENDBRANCH   2   3
ENDBRANCH   1   2
BRANCH   1  20
HETATM   20  C   UNL     1       5.518  27.452  53.528  1.00  0.00     0.196 A 
HETATM   21  N   UNL     1       6.425  26.766  54.321  1.00  0.00    -0.274 N 
HETATM   22  C   UNL     1       6.760  27.699  55.302  1.00  0.00     0.166 A 
HETATM   23  N   UNL     1       6.107  28.826  55.095  1.00  0.00    -0.131 NA
HETATM   24  N   UNL     1       5.338  28.670  53.985  1.00  0.00    -0.122 NA
BRANCH  21  25
HETATM   25  C   UNL     1       6.984  25.469  54.141  1.00  0.00     0.043 A 
HETATM   26  C   UNL     1       7.811  25.203  53.042  1.00  0.00     0.032 A 
HETATM   27  C   UNL     1       8.395  23.942  52.884  1.00  0.00     0.026 A 
HETATM   28  C   UNL     1       8.152  22.941  53.821  1.00  0.00     0.034 A 
HETATM   29 CL   UNL     1       8.881  21.397  53.634  1.00  0.00    -0.084 Cl
HETATM   30  C   UNL     1       7.324  23.191  54.911  1.00  0.00     0.026 A 
HETATM   31  C   UNL     1       6.737  24.452  55.074  1.00  0.00     0.032 A 
ENDBRANCH  21  25
BRANCH  22  32
HETATM   32  C   UNL     1       7.844  27.597  56.331  1.00  0.00     0.254 C 
HETATM   33  C   UNL     1       7.276  26.914  57.582  1.00  0.00     0.049 C 
BRANCH  32  34
HETATM   34  N   UNL     1       8.336  29.016  56.702  1.00  0.00    -0.068 N 
HETATM   35  H   UNL     1       7.696  29.649  56.193  1.00  0.00     0.279 HD
HETATM   36  C   UNL     1       8.271  29.366  58.159  1.00  0.00     0.270 C 
HETATM   37  C   UNL     1       9.710  29.307  56.147  1.00  0.00     0.270 C 
ENDBRANCH  32  34
ENDBRANCH  22  32
ENDBRANCH   1  20
TORSDOF 10
ENDMDL
MODEL 10
REMARK VINA RESULT:      -7.6      2.917      4.202
REMARK  10 active torsions:
REMARK  status: ('A' for Active; 'I' for Inactive)
REMARK    1  A    between atoms: C_2  and  C_3 
REMARK    2  A    between atoms: C_3  and  N_4 
REMARK    3  A    between atoms: C_10  and  C_11 
REMARK    4  A    between atoms: C_11  and  C_12 
REMARK    5  A    between atoms: C_12  and  S_13 
REMARK    6  A    between atoms: S_13  and  C_14 
REMARK    7  A    between atoms: N_15  and  C_16 
REMARK    8  A    between atoms: C_23  and  C_24 
REMARK    9  A    between atoms: C_24  and  N_25 
REMARK   10  A    between atoms: C_33  and  N_34 
ROOT
HETATM    1  S   UNL     1       4.997  31.374  55.929  1.00  0.00    -0.082 SA
ENDROOT
BRANCH   1   2
HETATM    2  C   UNL     1       3.961  31.722  57.389  1.00  0.00     0.166 C 
BRANCH   2   3
HETATM    3  C   UNL     1       4.678  32.722  58.285  1.00  0.00     0.177 C 
HETATM    4  O   UNL     1       5.642  33.374  57.853  1.00  0.00    -0.291 OA
BRANCH   3   5
HETATM    5  C   UNL     1       4.231  32.893  59.709  1.00  0.00     0.117 C 
HETATM    6  C   UNL     1       2.958  33.574  60.021  1.00  0.00     0.266 C 
HETATM    7  N   UNL     1       2.512  33.476  61.297  1.00  0.00    -0.274 N 
HETATM    8  O   UNL     1       2.352  34.231  59.181  1.00  0.00    -0.267 OA
HETATM    9  C   UNL     1       3.317  33.203  62.357  1.00  0.00     0.330 C 
HETATM   10  H   UNL     1       1.658  33.966  61.525  1.00  0.00     0.173 HD
HETATM   11  N   UNL     1       4.569  32.678  62.052  1.00  0.00    -0.289 N 
HETATM   12  O   UNL     1       2.925  33.454  63.493  1.00  0.00    -0.246 OA
HETATM   13  C   UNL     1       5.017  32.490  60.740  1.00  0.00     0.103 C 
BRANCH  11  14
HETATM   14  C   UNL     1       5.428  32.363  63.202  1.00  0.00     0.135 C 
BRANCH  14  15
HETATM   15  C   UNL     1       6.354  33.536  63.539  1.00  0.00     0.016 C 
HETATM   16  C   UNL     1       7.545  33.092  64.371  1.00  0.00     0.006 C 
ENDBRANCH  14  15
ENDBRANCH  11  14
BRANCH  13  17
HETATM   17  N   UNL     1       6.259  31.901  60.521  1.00  0.00    -0.287 NA
HETATM   18  H   UNL     1       6.996  32.305  61.108  1.00  0.00     0.125 HD
HETATM   19  H   UNL     1       6.242  30.892  60.632  1.00  0.00     0.125 HD
ENDBRANCH  13  17
ENDBRANCH   3   5
ENDBRANCH   2   3
ENDBRANCH   1   2
BRANCH   1  20
HETATM   20  C   UNL     1       5.449  29.734  56.265  1.00  0.00     0.196 A 
HETATM   21  N   UNL     1       5.254  28.648  55.425  1.00  0.00    -0.274 N 
HETATM   22  C   UNL     1       5.612  27.561  56.222  1.00  0.00     0.166 A 
HETATM   23  N   UNL     1       5.983  27.980  57.417  1.00  0.00    -0.131 NA
HETATM   24  N   UNL     1       5.886  29.336  57.437  1.00  0.00    -0.122 NA
BRANCH  21  25
HETATM   25  C   UNL     1       4.889  28.622  54.050  1.00  0.00     0.043 A 
HETATM   26  C   UNL     1       5.871  28.471  53.062  1.00  0.00     0.032 A 
HETATM   27  C   UNL     1       5.512  28.404  51.712  1.00  0.00     0.026 A 
HETATM   28  C   UNL     1       4.173  28.491  51.343  1.00  0.00     0.034 A 
HETATM   29 CL   UNL     1       3.732  28.395  49.685  1.00  0.00    -0.084 Cl
HETATM   30  C   UNL     1       3.190  28.652  52.315  1.00  0.00     0.026 A 
HETATM   31  C   UNL     1       3.544  28.719  53.668  1.00  0.00     0.032 A 
ENDBRANCH  21  25
BRANCH  22  32
HETATM   32  C   UNL     1       5.789  26.134  55.801  1.00  0.00     0.254 C 
HETATM   33  C   UNL     1       5.305  25.220  56.935  1.00  0.00     0.049 C 
BRANCH  32  34
HETATM   34  N   UNL     1       7.286  25.860  55.527  1.00  0.00    -0.068 N 
HETATM   35  H   UNL     1       7.719  26.799  55.520  1.00  0.00     0.279 HD
HETATM   36  C   UNL     1       7.994  25.032  56.556  1.00  0.00     0.270 C 
HETATM   37  C   UNL     1       7.520  25.303  54.143  1.00  0.00     0.270 C 
ENDBRANCH  32  34
ENDBRANCH  22  32
ENDBRANCH   1  20
TORSDOF 10
ENDMDL
