MODEL 1
REMARK VINA RESULT:      -9.8      0.000      0.000
REMARK  8 active torsions:
REMARK  status: ('A' for Active; 'I' for Inactive)
REMARK    1  A    between atoms: C_7  and  C_8 
REMARK       I    between atoms: C_8  and  N_9 
REMARK    2  A    between atoms: N_9  and  N_10 
REMARK    3  A    between atoms: N_10  and  C_11 
REMARK    4  A    between atoms: C_11  and  N_12 
REMARK    5  A    between atoms: N_12  and  C_13 
REMARK    6  A    between atoms: N_15  and  C_16 
REMARK    7  A    between atoms: C_16  and  C_17 
REMARK    8  A    between atoms: C_29  and  C_30 
ROOT
HETATM    1  C   UNL     1       4.594  28.294  52.982  1.00  0.00     0.290 C 
HETATM    2  N   UNL     1       5.137  28.181  51.717  1.00  0.00    -0.262 N 
HETATM    3  O   UNL     1       3.394  28.385  53.226  1.00  0.00    -0.264 OA
HETATM    4  H   UNL     1       6.134  27.977  51.646  1.00  0.00     0.190 HD
ENDROOT
BRANCH   2   5
HETATM    5  N   UNL     1       4.330  27.931  50.610  1.00  0.00    -0.273 N 
HETATM    6  H   UNL     1       3.777  28.709  50.237  1.00  0.00     0.189 HD
BRANCH   5   7
HETATM    7  C   UNL     1       4.499  26.818  49.829  1.00  0.00     0.192 C 
HETATM    8  S   UNL     1       4.733  26.844  48.166  1.00  0.00    -0.039 SA
BRANCH   7   9
HETATM    9  N   UNL     1       4.458  25.602  50.452  1.00  0.00    -0.315 N 
HETATM   10  H   UNL     1       3.791  24.941  50.077  1.00  0.00     0.170 HD
BRANCH   9  11
HETATM   11  C   UNL     1       5.141  25.218  51.587  1.00  0.00     0.151 A 
HETATM   12  N   UNL     1       6.470  25.097  51.660  1.00  0.00    -0.154 NA
HETATM   13  N   UNL     1       6.704  24.751  52.944  1.00  0.00    -0.275 N 
HETATM   14  C   UNL     1       5.562  24.626  53.681  1.00  0.00     0.116 A 
HETATM   15  C   UNL     1       4.528  24.917  52.823  1.00  0.00     0.071 A 
BRANCH  13  16
HETATM   16  C   UNL     1       8.065  24.487  53.392  1.00  0.00     0.192 C 
BRANCH  16  17
HETATM   17  C   UNL     1       8.267  23.036  53.725  1.00  0.00     0.000 A 
HETATM   18  C   UNL     1       8.952  22.667  54.885  1.00  0.00     0.124 A 
HETATM   19  F   UNL     1       9.417  23.615  55.711  1.00  0.00    -0.205 F 
HETATM   20  C   UNL     1       9.160  21.330  55.210  1.00  0.00     0.043 A 
HETATM   21  C   UNL     1       8.681  20.332  54.362  1.00  0.00     0.003 A 
HETATM   22  C   UNL     1       8.002  20.680  53.193  1.00  0.00     0.001 A 
HETATM   23  C   UNL     1       7.800  22.025  52.871  1.00  0.00     0.012 A 
ENDBRANCH  16  17
ENDBRANCH  13  16
ENDBRANCH   9  11
ENDBRANCH   7   9
ENDBRANCH   5   7
ENDBRANCH   2   5
BRANCH   1  24
HETATM   24  C   UNL     1       5.631  28.286  54.026  1.00  0.00     0.150 A 
HETATM   25  N   UNL     1       5.358  27.887  55.290  1.00  0.00    -0.165 NA
HETATM   26  N   UNL     1       6.537  28.011  55.919  1.00  0.00    -0.240 N 
HETATM   27  C   UNL     1       7.525  28.566  55.156  1.00  0.00     0.123 A 
HETATM   28  C   UNL     1       6.702  27.651  57.314  1.00  0.00     0.221 C 
HETATM   29  N   UNL     1       8.727  28.884  55.682  1.00  0.00    -0.371 N 
HETATM   30  C   UNL     1       6.988  28.701  53.900  1.00  0.00     0.089 A 
HETATM   31  C   UNL     1       9.066  28.566  57.068  1.00  0.00     0.081 C 
HETATM   32  H   UNL     1       9.502  29.145  55.074  1.00  0.00     0.161 HD
HETATM   33  C   UNL     1      10.041  29.616  57.597  1.00  0.00     0.032 C 
HETATM   34  C   UNL     1       7.795  28.534  57.937  1.00  0.00     0.061 C 
BRANCH  28  35
HETATM   35  C   UNL     1       7.008  26.175  57.429  1.00  0.00     0.409 C 
HETATM   36  F   UNL     1       5.894  25.420  57.546  1.00  0.00    -0.169 F 
HETATM   37  F   UNL     1       7.722  25.689  56.390  1.00  0.00    -0.169 F 
HETATM   38  F   UNL     1       7.747  25.944  58.546  1.00  0.00    -0.169 F 
ENDBRANCH  28  35
ENDBRANCH   1  24
TORSDOF 8
ENDMDL
MODEL 2
REMARK VINA RESULT:      -9.8      3.959      6.760
REMARK  8 active torsions:
REMARK  status: ('A' for Active; 'I' for Inactive)
REMARK    1  A    between atoms: C_7  and  C_8 
REMARK       I    between atoms: C_8  and  N_9 
REMARK    2  A    between atoms: N_9  and  N_10 
REMARK    3  A    between atoms: N_10  and  C_11 
REMARK    4  A    between atoms: C_11  and  N_12 
REMARK    5  A    between atoms: N_12  and  C_13 
REMARK    6  A    between atoms: N_15  and  C_16 
REMARK    7  A    between atoms: C_16  and  C_17 
REMARK    8  A    between atoms: C_29  and  C_30 
ROOT
HETATM    1  C   UNL     1       5.051  26.091  52.892  1.00  0.00     0.290 C 
HETATM    2  N   UNL     1       4.829  26.989  53.918  1.00  0.00    -0.262 N 
HETATM    3  O   UNL     1       5.423  24.931  53.041  1.00  0.00    -0.264 OA
HETATM    4  H   UNL     1       4.394  27.880  53.681  1.00  0.00     0.190 HD
ENDROOT
BRANCH   2   5
HETATM    5  N   UNL     1       4.794  26.567  55.245  1.00  0.00    -0.273 N 
HETATM    6  H   UNL     1       4.838  25.559  55.427  1.00  0.00     0.189 HD
BRANCH   5   7
HETATM    7  C   UNL     1       5.031  27.429  56.284  1.00  0.00     0.192 C 
HETATM    8  S   UNL     1       4.474  29.011  56.357  1.00  0.00    -0.039 SA
BRANCH   7   9
HETATM    9  N   UNL     1       5.787  26.966  57.324  1.00  0.00    -0.315 N 
HETATM   10  H   UNL     1       5.601  27.389  58.223  1.00  0.00     0.170 HD
BRANCH   9  11
HETATM   11  C   UNL     1       6.836  26.072  57.265  1.00  0.00     0.151 A 
HETATM   12  N   UNL     1       6.691  24.750  57.130  1.00  0.00    -0.154 NA
HETATM   13  N   UNL     1       7.955  24.280  57.073  1.00  0.00    -0.275 N 
HETATM   14  C   UNL     1       8.897  25.260  57.191  1.00  0.00     0.116 A 
HETATM   15  C   UNL     1       8.199  26.438  57.325  1.00  0.00     0.071 A 
BRANCH  13  16
HETATM   16  C   UNL     1       8.196  22.847  56.968  1.00  0.00     0.192 C 
BRANCH  16  17
HETATM   17  C   UNL     1       8.105  22.372  55.546  1.00  0.00     0.000 A 
HETATM   18  C   UNL     1       7.857  21.027  55.266  1.00  0.00     0.124 A 
HETATM   19  F   UNL     1       7.687  20.159  56.274  1.00  0.00    -0.205 F 
HETATM   20  C   UNL     1       7.778  20.561  53.957  1.00  0.00     0.043 A 
HETATM   21  C   UNL     1       7.951  21.450  52.898  1.00  0.00     0.003 A 
HETATM   22  C   UNL     1       8.208  22.798  53.156  1.00  0.00     0.001 A 
HETATM   23  C   UNL     1       8.291  23.257  54.473  1.00  0.00     0.012 A 
ENDBRANCH  16  17
ENDBRANCH  13  16
ENDBRANCH   9  11
ENDBRANCH   7   9
ENDBRANCH   5   7
ENDBRANCH   2   5
BRANCH   1  24
HETATM   24  C   UNL     1       4.782  26.689  51.574  1.00  0.00     0.150 A 
HETATM   25  N   UNL     1       4.878  25.962  50.436  1.00  0.00    -0.165 NA
HETATM   26  N   UNL     1       4.552  26.841  49.476  1.00  0.00    -0.240 N 
HETATM   27  C   UNL     1       4.355  28.115  49.925  1.00  0.00     0.123 A 
HETATM   28  C   UNL     1       4.497  26.460  48.077  1.00  0.00     0.221 C 
HETATM   29  N   UNL     1       4.157  29.141  49.069  1.00  0.00    -0.371 N 
HETATM   30  C   UNL     1       4.436  28.041  51.292  1.00  0.00     0.089 A 
HETATM   31  C   UNL     1       4.050  28.927  47.627  1.00  0.00     0.081 C 
HETATM   32  H   UNL     1       3.854  30.050  49.416  1.00  0.00     0.161 HD
HETATM   33  C   UNL     1       4.578  30.160  46.897  1.00  0.00     0.032 C 
HETATM   34  C   UNL     1       4.850  27.678  47.209  1.00  0.00     0.061 C 
BRANCH  28  35
HETATM   35  C   UNL     1       3.135  25.889  47.756  1.00  0.00     0.409 C 
HETATM   36  F   UNL     1       2.145  26.468  48.470  1.00  0.00    -0.169 F 
HETATM   37  F   UNL     1       2.804  25.984  46.450  1.00  0.00    -0.169 F 
HETATM   38  F   UNL     1       3.107  24.566  48.065  1.00  0.00    -0.169 F 
ENDBRANCH  28  35
ENDBRANCH   1  24
TORSDOF 8
ENDMDL
MODEL 3
REMARK VINA RESULT:      -9.7      3.683      4.602
REMARK  8 active torsions:
REMARK  status: ('A' for Active; 'I' for Inactive)
REMARK    1  A    between atoms: C_7  and  C_8 
REMARK       I    between atoms: C_8  and  N_9 
REMARK    2  A    between atoms: N_9  and  N_10 
REMARK    3  A    between atoms: N_10  and  C_11 
REMARK    4  A    between atoms: C_11  and  N_12 
REMARK    5  A    between atoms: N_12  and  C_13 
REMARK    6  A    between atoms: N_15  and  C_16 
REMARK    7  A    between atoms: C_16  and  C_17 
REMARK    8  A    between atoms: C_29  and  C_30 
ROOT
HETATM    1  C   UNL     1       6.969  29.477  56.390  1.00  0.00     0.290 C 
HETATM    2  N   UNL     1       5.863  29.838  55.646  1.00  0.00    -0.262 N 
HETATM    3  O   UNL     1       7.838  28.692  56.023  1.00  0.00    -0.264 OA
HETATM    4  H   UNL     1       5.282  30.598  55.999  1.00  0.00     0.190 HD
ENDROOT
BRANCH   2   5
HETATM    5  N   UNL     1       5.764  29.500  54.299  1.00  0.00    -0.273 N 
HETATM    6  H   UNL     1       6.625  29.494  53.743  1.00  0.00     0.189 HD
BRANCH   5   7
HETATM    7  C   UNL     1       4.655  28.875  53.789  1.00  0.00     0.192 C 
HETATM    8  S   UNL     1       3.520  29.607  52.792  1.00  0.00    -0.039 SA
BRANCH   7   9
HETATM    9  N   UNL     1       4.458  27.567  54.133  1.00  0.00    -0.315 N 
HETATM   10  H   UNL     1       3.778  27.404  54.863  1.00  0.00     0.170 HD
BRANCH   9  11
HETATM   11  C   UNL     1       5.152  26.466  53.675  1.00  0.00     0.151 A 
HETATM   12  N   UNL     1       6.430  26.206  53.969  1.00  0.00    -0.154 NA
HETATM   13  N   UNL     1       6.680  25.029  53.359  1.00  0.00    -0.275 N 
HETATM   14  C   UNL     1       5.608  24.545  52.668  1.00  0.00     0.116 A 
HETATM   15  C   UNL     1       4.599  25.462  52.849  1.00  0.00     0.071 A 
BRANCH  13  16
HETATM   16  C   UNL     1       8.013  24.442  53.424  1.00  0.00     0.192 C 
BRANCH  16  17
HETATM   17  C   UNL     1       7.974  23.037  53.956  1.00  0.00     0.000 A 
HETATM   18  C   UNL     1       7.778  22.804  55.318  1.00  0.00     0.124 A 
HETATM   19  F   UNL     1       7.609  23.840  56.152  1.00  0.00    -0.205 F 
HETATM   20  C   UNL     1       7.748  21.513  55.836  1.00  0.00     0.043 A 
HETATM   21  C   UNL     1       7.920  20.424  54.983  1.00  0.00     0.003 A 
HETATM   22  C   UNL     1       8.127  20.636  53.619  1.00  0.00     0.001 A 
HETATM   23  C   UNL     1       8.160  21.936  53.106  1.00  0.00     0.012 A 
ENDBRANCH  16  17
ENDBRANCH  13  16
ENDBRANCH   9  11
ENDBRANCH   7   9
ENDBRANCH   5   7
ENDBRANCH   2   5
BRANCH   1  24
HETATM   24  C   UNL     1       6.995  30.156  57.696  1.00  0.00     0.150 A 
HETATM   25  N   UNL     1       8.029  29.996  58.555  1.00  0.00    -0.165 NA
HETATM   26  N   UNL     1       7.691  30.769  59.598  1.00  0.00    -0.240 N 
HETATM   27  C   UNL     1       6.450  31.332  59.501  1.00  0.00     0.123 A 
HETATM   28  C   UNL     1       8.555  30.915  60.754  1.00  0.00     0.221 C 
HETATM   29  N   UNL     1       5.907  32.022  60.528  1.00  0.00    -0.371 N 
HETATM   30  C   UNL     1       5.994  31.004  58.250  1.00  0.00     0.089 A 
HETATM   31  C   UNL     1       6.655  32.283  61.757  1.00  0.00     0.081 C 
HETATM   32  H   UNL     1       5.058  32.569  60.388  1.00  0.00     0.161 HD
HETATM   33  C   UNL     1       5.678  32.359  62.928  1.00  0.00     0.032 C 
HETATM   34  C   UNL     1       7.692  31.170  62.000  1.00  0.00     0.061 C 
BRANCH  28  35
HETATM   35  C   UNL     1       9.561  32.016  60.505  1.00  0.00     0.409 C 
HETATM   36  F   UNL     1      10.365  31.757  59.451  1.00  0.00    -0.169 F 
HETATM   37  F   UNL     1       8.997  33.226  60.300  1.00  0.00    -0.169 F 
HETATM   38  F   UNL     1      10.375  32.148  61.585  1.00  0.00    -0.169 F 
ENDBRANCH  28  35
ENDBRANCH   1  24
TORSDOF 8
ENDMDL
MODEL 4
REMARK VINA RESULT:      -9.7      3.606      6.431
REMARK  8 active torsions:
REMARK  status: ('A' for Active; 'I' for Inactive)
REMARK    1  A    between atoms: C_7  and  C_8 
REMARK       I    between atoms: C_8  and  N_9 
REMARK    2  A    between atoms: N_9  and  N_10 
REMARK    3  A    between atoms: N_10  and  C_11 
REMARK    4  A    between atoms: C_11  and  N_12 
REMARK    5  A    between atoms: N_12  and  C_13 
REMARK    6  A    between atoms: N_15  and  C_16 
REMARK    7  A    between atoms: C_16  and  C_17 
REMARK    8  A    between atoms: C_29  and  C_30 
ROOT
HETATM    1  C   UNL     1       5.132  28.580  54.175  1.00  0.00     0.290 C 
HETATM    2  N   UNL     1       6.461  28.906  54.366  1.00  0.00    -0.262 N 
HETATM    3  O   UNL     1       4.260  28.650  55.036  1.00  0.00    -0.264 OA
HETATM    4  H   UNL     1       7.064  28.937  53.545  1.00  0.00     0.190 HD
ENDROOT
BRANCH   2   5
HETATM    5  N   UNL     1       6.878  29.568  55.519  1.00  0.00    -0.273 N 
HETATM    6  H   UNL     1       6.292  30.332  55.870  1.00  0.00     0.189 HD
BRANCH   5   7
HETATM    7  C   UNL     1       7.826  29.036  56.355  1.00  0.00     0.192 C 
HETATM    8  S   UNL     1       9.461  29.413  56.306  1.00  0.00    -0.039 SA
BRANCH   7   9
HETATM    9  N   UNL     1       7.405  28.124  57.281  1.00  0.00    -0.315 N 
HETATM   10  H   UNL     1       7.292  28.476  58.222  1.00  0.00     0.170 HD
BRANCH   9  11
HETATM   11  C   UNL     1       7.222  26.768  57.101  1.00  0.00     0.151 A 
HETATM   12  N   UNL     1       8.206  25.865  57.138  1.00  0.00    -0.154 NA
HETATM   13  N   UNL     1       7.581  24.682  56.960  1.00  0.00    -0.275 N 
HETATM   14  C   UNL     1       6.233  24.810  56.788  1.00  0.00     0.116 A 
HETATM   15  C   UNL     1       5.970  26.157  56.868  1.00  0.00     0.071 A 
BRANCH  13  16
HETATM   16  C   UNL     1       8.356  23.449  56.899  1.00  0.00     0.192 C 
BRANCH  16  17
HETATM   17  C   UNL     1       8.190  22.756  55.576  1.00  0.00     0.000 A 
HETATM   18  C   UNL     1       7.943  21.383  55.526  1.00  0.00     0.124 A 
HETATM   19  F   UNL     1       7.839  20.685  56.666  1.00  0.00    -0.205 F 
HETATM   20  C   UNL     1       7.796  20.716  54.314  1.00  0.00     0.043 A 
HETATM   21  C   UNL     1       7.899  21.427  53.120  1.00  0.00     0.003 A 
HETATM   22  C   UNL     1       8.156  22.799  53.148  1.00  0.00     0.001 A 
HETATM   23  C   UNL     1       8.306  23.461  54.369  1.00  0.00     0.012 A 
ENDBRANCH  16  17
ENDBRANCH  13  16
ENDBRANCH   9  11
ENDBRANCH   7   9
ENDBRANCH   5   7
ENDBRANCH   2   5
BRANCH   1  24
HETATM   24  C   UNL     1       4.870  28.138  52.796  1.00  0.00     0.150 A 
HETATM   25  N   UNL     1       4.405  28.994  51.856  1.00  0.00    -0.165 NA
HETATM   26  N   UNL     1       4.311  28.229  50.757  1.00  0.00    -0.240 N 
HETATM   27  C   UNL     1       4.590  26.909  50.966  1.00  0.00     0.123 A 
HETATM   28  C   UNL     1       3.873  28.770  49.484  1.00  0.00     0.221 C 
HETATM   29  N   UNL     1       4.406  25.988  49.995  1.00  0.00    -0.371 N 
HETATM   30  C   UNL     1       5.016  26.823  52.267  1.00  0.00     0.089 A 
HETATM   31  C   UNL     1       3.992  26.368  48.646  1.00  0.00     0.081 C 
HETATM   32  H   UNL     1       4.766  25.041  50.110  1.00  0.00     0.161 HD
HETATM   33  C   UNL     1       3.169  25.234  48.038  1.00  0.00     0.032 C 
HETATM   34  C   UNL     1       3.164  27.665  48.685  1.00  0.00     0.061 C 
BRANCH  28  35
HETATM   35  C   UNL     1       5.054  29.359  48.745  1.00  0.00     0.409 C 
HETATM   36  F   UNL     1       6.229  28.807  49.117  1.00  0.00    -0.169 F 
HETATM   37  F   UNL     1       4.958  29.250  47.402  1.00  0.00    -0.169 F 
HETATM   38  F   UNL     1       5.150  30.687  49.019  1.00  0.00    -0.169 F 
ENDBRANCH  28  35
ENDBRANCH   1  24
TORSDOF 8
ENDMDL
MODEL 5
REMARK VINA RESULT:      -9.7      4.402      5.707
REMARK  8 active torsions:
REMARK  status: ('A' for Active; 'I' for Inactive)
REMARK    1  A    between atoms: C_7  and  C_8 
REMARK       I    between atoms: C_8  and  N_9 
REMARK    2  A    between atoms: N_9  and  N_10 
REMARK    3  A    between atoms: N_10  and  C_11 
REMARK    4  A    between atoms: C_11  and  N_12 
REMARK    5  A    between atoms: N_12  and  C_13 
REMARK    6  A    between atoms: N_15  and  C_16 
REMARK    7  A    between atoms: C_16  and  C_17 
REMARK    8  A    between atoms: C_29  and  C_30 
ROOT
HETATM    1  C   UNL     1       4.928  31.306  57.712  1.00  0.00     0.290 C 
HETATM    2  N   UNL     1       4.828  29.937  57.563  1.00  0.00    -0.262 N 
HETATM    3  O   UNL     1       4.465  32.135  56.934  1.00  0.00    -0.264 OA
HETATM    4  H   UNL     1       5.134  29.352  58.340  1.00  0.00     0.190 HD
ENDROOT
BRANCH   2   5
HETATM    5  N   UNL     1       3.978  29.380  56.609  1.00  0.00    -0.273 N 
HETATM    6  H   UNL     1       3.229  29.970  56.235  1.00  0.00     0.189 HD
BRANCH   5   7
HETATM    7  C   UNL     1       4.301  28.231  55.936  1.00  0.00     0.192 C 
HETATM    8  S   UNL     1       4.376  28.092  54.265  1.00  0.00    -0.039 SA
BRANCH   7   9
HETATM    9  N   UNL     1       4.566  27.118  56.685  1.00  0.00    -0.315 N 
HETATM   10  H   UNL     1       3.811  26.799  57.277  1.00  0.00     0.170 HD
BRANCH   9  11
HETATM   11  C   UNL     1       5.768  26.451  56.800  1.00  0.00     0.151 A 
HETATM   12  N   UNL     1       5.903  25.124  56.720  1.00  0.00    -0.154 NA
HETATM   13  N   UNL     1       7.231  24.916  56.841  1.00  0.00    -0.275 N 
HETATM   14  C   UNL     1       7.940  26.068  57.019  1.00  0.00     0.116 A 
HETATM   15  C   UNL     1       7.014  27.085  57.004  1.00  0.00     0.071 A 
BRANCH  13  16
HETATM   16  C   UNL     1       7.759  23.557  56.842  1.00  0.00     0.192 C 
BRANCH  16  17
HETATM   17  C   UNL     1       7.838  22.992  55.453  1.00  0.00     0.000 A 
HETATM   18  C   UNL     1       7.735  21.615  55.245  1.00  0.00     0.124 A 
HETATM   19  F   UNL     1       7.551  20.797  56.292  1.00  0.00    -0.205 F 
HETATM   20  C   UNL     1       7.814  21.066  53.969  1.00  0.00     0.043 A 
HETATM   21  C   UNL     1       8.003  21.902  52.870  1.00  0.00     0.003 A 
HETATM   22  C   UNL     1       8.118  23.281  53.057  1.00  0.00     0.001 A 
HETATM   23  C   UNL     1       8.041  23.824  54.342  1.00  0.00     0.012 A 
ENDBRANCH  16  17
ENDBRANCH  13  16
ENDBRANCH   9  11
ENDBRANCH   7   9
ENDBRANCH   5   7
ENDBRANCH   2   5
BRANCH   1  24
HETATM   24  C   UNL     1       5.662  31.671  58.935  1.00  0.00     0.150 A 
HETATM   25  N   UNL     1       6.744  30.969  59.346  1.00  0.00    -0.165 NA
HETATM   26  N   UNL     1       7.124  31.607  60.464  1.00  0.00    -0.240 N 
HETATM   27  C   UNL     1       6.285  32.613  60.849  1.00  0.00     0.123 A 
HETATM   28  C   UNL     1       8.289  31.193  61.222  1.00  0.00     0.221 C 
HETATM   29  N   UNL     1       6.451  33.258  62.024  1.00  0.00    -0.371 N 
HETATM   30  C   UNL     1       5.355  32.722  59.846  1.00  0.00     0.089 A 
HETATM   31  C   UNL     1       7.590  32.980  62.897  1.00  0.00     0.081 C 
HETATM   32  H   UNL     1       5.922  34.106  62.225  1.00  0.00     0.161 HD
HETATM   33  C   UNL     1       7.175  33.211  64.348  1.00  0.00     0.032 C 
HETATM   34  C   UNL     1       8.071  31.529  62.706  1.00  0.00     0.061 C 
BRANCH  28  35
HETATM   35  C   UNL     1       9.529  31.846  60.652  1.00  0.00     0.409 C 
HETATM   36  F   UNL     1      10.434  32.164  61.603  1.00  0.00    -0.169 F 
HETATM   37  F   UNL     1      10.159  31.090  59.726  1.00  0.00    -0.169 F 
HETATM   38  F   UNL     1       9.193  33.010  60.037  1.00  0.00    -0.169 F 
ENDBRANCH  28  35
ENDBRANCH   1  24
TORSDOF 8
ENDMDL
MODEL 6
REMARK VINA RESULT:      -9.6      6.084      7.631
REMARK  8 active torsions:
REMARK  status: ('A' for Active; 'I' for Inactive)
REMARK    1  A    between atoms: C_7  and  C_8 
REMARK       I    between atoms: C_8  and  N_9 
REMARK    2  A    between atoms: N_9  and  N_10 
REMARK    3  A    between atoms: N_10  and  C_11 
REMARK    4  A    between atoms: C_11  and  N_12 
REMARK    5  A    between atoms: N_12  and  C_13 
REMARK    6  A    between atoms: N_15  and  C_16 
REMARK    7  A    between atoms: C_16  and  C_17 
REMARK    8  A    between atoms: C_29  and  C_30 
ROOT
HETATM    1  C   UNL     1       8.339  30.667  60.527  1.00  0.00     0.290 C 
HETATM    2  N   UNL     1       7.853  30.338  59.277  1.00  0.00    -0.262 N 
HETATM    3  O   UNL     1       9.374  30.225  61.018  1.00  0.00    -0.264 OA
HETATM    4  H   UNL     1       7.058  30.869  58.923  1.00  0.00     0.190 HD
ENDROOT
BRANCH   2   5
HETATM    5  N   UNL     1       8.637  29.634  58.366  1.00  0.00    -0.273 N 
HETATM    6  H   UNL     1       9.642  29.562  58.554  1.00  0.00     0.189 HD
BRANCH   5   7
HETATM    7  C   UNL     1       8.084  28.784  57.442  1.00  0.00     0.192 C 
HETATM    8  S   UNL     1       8.354  28.868  55.787  1.00  0.00    -0.039 SA
BRANCH   7   9
HETATM    9  N   UNL     1       7.244  27.812  57.907  1.00  0.00    -0.315 N 
HETATM   10  H   UNL     1       6.692  28.061  58.716  1.00  0.00     0.170 HD
BRANCH   9  11
HETATM   11  C   UNL     1       7.144  26.508  57.466  1.00  0.00     0.151 A 
HETATM   12  N   UNL     1       8.121  25.602  57.571  1.00  0.00    -0.154 NA
HETATM   13  N   UNL     1       7.584  24.473  57.062  1.00  0.00    -0.275 N 
HETATM   14  C   UNL     1       6.305  24.641  56.617  1.00  0.00     0.116 A 
HETATM   15  C   UNL     1       5.993  25.958  56.860  1.00  0.00     0.071 A 
BRANCH  13  16
HETATM   16  C   UNL     1       8.388  23.260  56.971  1.00  0.00     0.192 C 
BRANCH  16  17
HETATM   17  C   UNL     1       8.242  22.599  55.630  1.00  0.00     0.000 A 
HETATM   18  C   UNL     1       7.968  21.232  55.544  1.00  0.00     0.124 A 
HETATM   19  F   UNL     1       7.820  20.513  56.665  1.00  0.00    -0.205 F 
HETATM   20  C   UNL     1       7.838  20.595  54.314  1.00  0.00     0.043 A 
HETATM   21  C   UNL     1       7.987  21.329  53.138  1.00  0.00     0.003 A 
HETATM   22  C   UNL     1       8.271  22.694  53.203  1.00  0.00     0.001 A 
HETATM   23  C   UNL     1       8.404  23.327  54.441  1.00  0.00     0.012 A 
ENDBRANCH  16  17
ENDBRANCH  13  16
ENDBRANCH   9  11
ENDBRANCH   7   9
ENDBRANCH   5   7
ENDBRANCH   2   5
BRANCH   1  24
HETATM   24  C   UNL     1       7.466  31.630  61.218  1.00  0.00     0.150 A 
HETATM   25  N   UNL     1       7.239  31.548  62.550  1.00  0.00    -0.165 NA
HETATM   26  N   UNL     1       6.423  32.586  62.791  1.00  0.00    -0.240 N 
HETATM   27  C   UNL     1       6.030  33.263  61.673  1.00  0.00     0.123 A 
HETATM   28  C   UNL     1       5.949  32.892  64.128  1.00  0.00     0.221 C 
HETATM   29  N   UNL     1       5.102  34.243  61.732  1.00  0.00    -0.371 N 
HETATM   30  C   UNL     1       6.737  32.707  60.637  1.00  0.00     0.089 A 
HETATM   31  C   UNL     1       4.541  34.692  63.005  1.00  0.00     0.081 C 
HETATM   32  H   UNL     1       4.937  34.845  60.926  1.00  0.00     0.161 HD
HETATM   33  C   UNL     1       3.109  35.171  62.778  1.00  0.00     0.032 C 
HETATM   34  C   UNL     1       4.562  33.546  64.034  1.00  0.00     0.061 C 
BRANCH  28  35
HETATM   35  C   UNL     1       6.959  33.762  64.841  1.00  0.00     0.409 C 
HETATM   36  F   UNL     1       6.967  33.563  66.177  1.00  0.00    -0.169 F 
HETATM   37  F   UNL     1       8.224  33.596  64.397  1.00  0.00    -0.169 F 
HETATM   38  F   UNL     1       6.653  35.072  64.650  1.00  0.00    -0.169 F 
ENDBRANCH  28  35
ENDBRANCH   1  24
TORSDOF 8
ENDMDL
MODEL 7
REMARK VINA RESULT:      -9.6      5.694      7.144
REMARK  8 active torsions:
REMARK  status: ('A' for Active; 'I' for Inactive)
REMARK    1  A    between atoms: C_7  and  C_8 
REMARK       I    between atoms: C_8  and  N_9 
REMARK    2  A    between atoms: N_9  and  N_10 
REMARK    3  A    between atoms: N_10  and  C_11 
REMARK    4  A    between atoms: C_11  and  N_12 
REMARK    5  A    between atoms: N_12  and  C_13 
REMARK    6  A    between atoms: N_15  and  C_16 
REMARK    7  A    between atoms: C_16  and  C_17 
REMARK    8  A    between atoms: C_29  and  C_30 
ROOT
HETATM    1  C   UNL     1       8.730  31.442  59.455  1.00  0.00     0.290 C 
HETATM    2  N   UNL     1       8.324  30.154  59.168  1.00  0.00    -0.262 N 
HETATM    3  O   UNL     1       9.498  32.108  58.766  1.00  0.00    -0.264 OA
HETATM    4  H   UNL     1       7.581  29.752  59.740  1.00  0.00     0.190 HD
ENDROOT
BRANCH   2   5
HETATM    5  N   UNL     1       8.588  29.578  57.927  1.00  0.00    -0.273 N 
HETATM    6  H   UNL     1       9.501  29.133  57.792  1.00  0.00     0.189 HD
BRANCH   5   7
HETATM    7  C   UNL     1       7.588  29.303  57.031  1.00  0.00     0.192 C 
HETATM    8  S   UNL     1       6.146  30.155  56.918  1.00  0.00    -0.039 SA
BRANCH   7   9
HETATM    9  N   UNL     1       7.779  28.250  56.181  1.00  0.00    -0.315 N 
HETATM   10  H   UNL     1       8.157  28.483  55.274  1.00  0.00     0.170 HD
BRANCH   9  11
HETATM   11  C   UNL     1       7.419  26.933  56.383  1.00  0.00     0.151 A 
HETATM   12  N   UNL     1       8.288  25.924  56.498  1.00  0.00    -0.154 NA
HETATM   13  N   UNL     1       7.515  24.842  56.727  1.00  0.00    -0.275 N 
HETATM   14  C   UNL     1       6.181  25.130  56.739  1.00  0.00     0.116 A 
HETATM   15  C   UNL     1       6.086  26.483  56.511  1.00  0.00     0.071 A 
BRANCH  13  16
HETATM   16  C   UNL     1       8.125  23.526  56.864  1.00  0.00     0.192 C 
BRANCH  16  17
HETATM   17  C   UNL     1       8.049  22.744  55.584  1.00  0.00     0.000 A 
HETATM   18  C   UNL     1       7.912  21.354  55.614  1.00  0.00     0.124 A 
HETATM   19  F   UNL     1       7.834  20.720  56.792  1.00  0.00    -0.205 F 
HETATM   20  C   UNL     1       7.850  20.607  54.441  1.00  0.00     0.043 A 
HETATM   21  C   UNL     1       7.928  21.252  53.208  1.00  0.00     0.003 A 
HETATM   22  C   UNL     1       8.075  22.639  53.157  1.00  0.00     0.001 A 
HETATM   23  C   UNL     1       8.141  23.383  54.338  1.00  0.00     0.012 A 
ENDBRANCH  16  17
ENDBRANCH  13  16
ENDBRANCH   9  11
ENDBRANCH   7   9
ENDBRANCH   5   7
ENDBRANCH   2   5
BRANCH   1  24
HETATM   24  C   UNL     1       8.122  31.943  60.699  1.00  0.00     0.150 A 
HETATM   25  N   UNL     1       7.050  32.769  60.679  1.00  0.00    -0.165 NA
HETATM   26  N   UNL     1       6.796  32.983  61.979  1.00  0.00    -0.240 N 
HETATM   27  C   UNL     1       7.710  32.426  62.828  1.00  0.00     0.123 A 
HETATM   28  C   UNL     1       5.685  33.806  62.417  1.00  0.00     0.221 C 
HETATM   29  N   UNL     1       7.674  32.666  64.157  1.00  0.00    -0.371 N 
HETATM   30  C   UNL     1       8.552  31.691  62.033  1.00  0.00     0.089 A 
HETATM   31  C   UNL     1       6.604  33.455  64.766  1.00  0.00     0.081 C 
HETATM   32  H   UNL     1       8.255  32.123  64.794  1.00  0.00     0.161 HD
HETATM   33  C   UNL     1       7.153  34.179  65.993  1.00  0.00     0.032 C 
HETATM   34  C   UNL     1       6.046  34.473  63.753  1.00  0.00     0.061 C 
BRANCH  28  35
HETATM   35  C   UNL     1       4.430  32.966  62.503  1.00  0.00     0.409 C 
HETATM   36  F   UNL     1       3.699  33.005  61.368  1.00  0.00    -0.169 F 
HETATM   37  F   UNL     1       4.669  31.668  62.791  1.00  0.00    -0.169 F 
HETATM   38  F   UNL     1       3.628  33.440  63.492  1.00  0.00    -0.169 F 
ENDBRANCH  28  35
ENDBRANCH   1  24
TORSDOF 8
ENDMDL
MODEL 8
REMARK VINA RESULT:      -9.6      5.811      7.320
REMARK  8 active torsions:
REMARK  status: ('A' for Active; 'I' for Inactive)
REMARK    1  A    between atoms: C_7  and  C_8 
REMARK       I    between atoms: C_8  and  N_9 
REMARK    2  A    between atoms: N_9  and  N_10 
REMARK    3  A    between atoms: N_10  and  C_11 
REMARK    4  A    between atoms: C_11  and  N_12 
REMARK    5  A    between atoms: N_12  and  C_13 
REMARK    6  A    between atoms: N_15  and  C_16 
REMARK    7  A    between atoms: C_16  and  C_17 
REMARK    8  A    between atoms: C_29  and  C_30 
ROOT
HETATM    1  C   UNL     1       8.424  30.385  60.021  1.00  0.00     0.290 C 
HETATM    2  N   UNL     1       7.711  29.689  59.065  1.00  0.00    -0.262 N 
HETATM    3  O   UNL     1       9.618  30.230  60.260  1.00  0.00    -0.264 OA
HETATM    4  H   UNL     1       6.760  29.998  58.865  1.00  0.00     0.190 HD
ENDROOT
BRANCH   2   5
HETATM    5  N   UNL     1       8.361  28.894  58.124  1.00  0.00    -0.273 N 
HETATM    6  H   UNL     1       8.286  27.877  58.224  1.00  0.00     0.189 HD
BRANCH   5   7
HETATM    7  C   UNL     1       8.798  29.401  56.927  1.00  0.00     0.192 C 
HETATM    8  S   UNL     1      10.331  30.030  56.660  1.00  0.00    -0.039 SA
BRANCH   7   9
HETATM    9  N   UNL     1       7.912  29.406  55.886  1.00  0.00    -0.315 N 
HETATM   10  H   UNL     1       7.513  30.304  55.655  1.00  0.00     0.170 HD
BRANCH   9  11
HETATM   11  C   UNL     1       7.429  28.315  55.192  1.00  0.00     0.151 A 
HETATM   12  N   UNL     1       6.991  27.191  55.768  1.00  0.00    -0.154 NA
HETATM   13  N   UNL     1       6.576  26.427  54.736  1.00  0.00    -0.275 N 
HETATM   14  C   UNL     1       6.759  27.022  53.522  1.00  0.00     0.116 A 
HETATM   15  C   UNL     1       7.319  28.250  53.786  1.00  0.00     0.071 A 
BRANCH  13  16
HETATM   16  C   UNL     1       6.065  25.084  54.981  1.00  0.00     0.192 C 
BRANCH  16  17
HETATM   17  C   UNL     1       7.070  24.032  54.606  1.00  0.00     0.000 A 
HETATM   18  C   UNL     1       7.035  23.444  53.341  1.00  0.00     0.124 A 
HETATM   19  F   UNL     1       6.110  23.833  52.452  1.00  0.00    -0.205 F 
HETATM   20  C   UNL     1       7.949  22.460  52.973  1.00  0.00     0.043 A 
HETATM   21  C   UNL     1       8.919  22.046  53.884  1.00  0.00     0.003 A 
HETATM   22  C   UNL     1       8.964  22.615  55.158  1.00  0.00     0.001 A 
HETATM   23  C   UNL     1       8.041  23.599  55.521  1.00  0.00     0.012 A 
ENDBRANCH  16  17
ENDBRANCH  13  16
ENDBRANCH   9  11
ENDBRANCH   7   9
ENDBRANCH   5   7
ENDBRANCH   2   5
BRANCH   1  24
HETATM   24  C   UNL     1       7.580  31.360  60.731  1.00  0.00     0.150 A 
HETATM   25  N   UNL     1       7.362  31.267  62.064  1.00  0.00    -0.165 NA
HETATM   26  N   UNL     1       6.573  32.320  62.326  1.00  0.00    -0.240 N 
HETATM   27  C   UNL     1       6.187  33.021  61.219  1.00  0.00     0.123 A 
HETATM   28  C   UNL     1       6.118  32.620  63.670  1.00  0.00     0.221 C 
HETATM   29  N   UNL     1       5.283  34.022  61.298  1.00  0.00    -0.371 N 
HETATM   30  C   UNL     1       6.872  32.461  60.170  1.00  0.00     0.089 A 
HETATM   31  C   UNL     1       4.744  34.468  62.582  1.00  0.00     0.081 C 
HETATM   32  H   UNL     1       5.126  34.637  60.502  1.00  0.00     0.161 HD
HETATM   33  C   UNL     1       3.322  34.984  62.374  1.00  0.00     0.032 C 
HETATM   34  C   UNL     1       4.746  33.309  63.596  1.00  0.00     0.061 C 
BRANCH  28  35
HETATM   35  C   UNL     1       7.154  33.457  64.385  1.00  0.00     0.409 C 
HETATM   36  F   UNL     1       8.410  33.219  63.946  1.00  0.00    -0.169 F 
HETATM   37  F   UNL     1       6.934  34.786  64.289  1.00  0.00    -0.169 F 
HETATM   38  F   UNL     1       7.149  33.160  65.711  1.00  0.00    -0.169 F 
ENDBRANCH  28  35
ENDBRANCH   1  24
TORSDOF 8
ENDMDL
MODEL 9
REMARK VINA RESULT:      -9.6      2.513      5.885
REMARK  8 active torsions:
REMARK  status: ('A' for Active; 'I' for Inactive)
REMARK    1  A    between atoms: C_7  and  C_8 
REMARK       I    between atoms: C_8  and  N_9 
REMARK    2  A    between atoms: N_9  and  N_10 
REMARK    3  A    between atoms: N_10  and  C_11 
REMARK    4  A    between atoms: C_11  and  N_12 
REMARK    5  A    between atoms: N_12  and  C_13 
REMARK    6  A    between atoms: N_15  and  C_16 
REMARK    7  A    between atoms: C_16  and  C_17 
REMARK    8  A    between atoms: C_29  and  C_30 
ROOT
HETATM    1  C   UNL     1       4.777  27.005  52.442  1.00  0.00     0.290 C 
HETATM    2  N   UNL     1       3.678  27.447  53.151  1.00  0.00    -0.262 N 
HETATM    3  O   UNL     1       4.978  27.220  51.249  1.00  0.00    -0.264 OA
HETATM    4  H   UNL     1       3.686  27.322  54.163  1.00  0.00     0.190 HD
ENDROOT
BRANCH   2   5
HETATM    5  N   UNL     1       2.802  28.382  52.606  1.00  0.00    -0.273 N 
HETATM    6  H   UNL     1       1.833  28.091  52.441  1.00  0.00     0.189 HD
BRANCH   5   7
HETATM    7  C   UNL     1       3.089  29.723  52.596  1.00  0.00     0.192 C 
HETATM    8  S   UNL     1       3.531  30.594  51.231  1.00  0.00    -0.039 SA
BRANCH   7   9
HETATM    9  N   UNL     1       3.025  30.388  53.789  1.00  0.00    -0.315 N 
HETATM   10  H   UNL     1       2.201  30.957  53.928  1.00  0.00     0.170 HD
BRANCH   9  11
HETATM   11  C   UNL     1       3.995  30.452  54.767  1.00  0.00     0.151 A 
HETATM   12  N   UNL     1       4.551  29.383  55.346  1.00  0.00    -0.154 NA
HETATM   13  N   UNL     1       5.465  29.901  56.194  1.00  0.00    -0.275 N 
HETATM   14  C   UNL     1       5.490  31.265  56.187  1.00  0.00     0.116 A 
HETATM   15  C   UNL     1       4.539  31.653  55.273  1.00  0.00     0.071 A 
BRANCH  13  16
HETATM   16  C   UNL     1       6.252  29.018  57.045  1.00  0.00     0.192 C 
BRANCH  16  17
HETATM   17  C   UNL     1       7.710  29.379  57.021  1.00  0.00     0.000 A 
HETATM   18  C   UNL     1       8.315  29.946  58.145  1.00  0.00     0.124 A 
HETATM   19  F   UNL     1       7.591  30.155  59.254  1.00  0.00    -0.205 F 
HETATM   20  C   UNL     1       9.661  30.298  58.144  1.00  0.00     0.043 A 
HETATM   21  C   UNL     1      10.428  30.086  56.999  1.00  0.00     0.003 A 
HETATM   22  C   UNL     1       9.839  29.529  55.862  1.00  0.00     0.001 A 
HETATM   23  C   UNL     1       8.486  29.182  55.869  1.00  0.00     0.012 A 
ENDBRANCH  16  17
ENDBRANCH  13  16
ENDBRANCH   9  11
ENDBRANCH   7   9
ENDBRANCH   5   7
ENDBRANCH   2   5
BRANCH   1  24
HETATM   24  C   UNL     1       5.705  26.239  53.290  1.00  0.00     0.150 A 
HETATM   25  N   UNL     1       5.737  24.886  53.259  1.00  0.00    -0.165 NA
HETATM   26  N   UNL     1       6.698  24.576  54.143  1.00  0.00    -0.240 N 
HETATM   27  C   UNL     1       7.209  25.649  54.816  1.00  0.00     0.123 A 
HETATM   28  C   UNL     1       7.086  23.203  54.400  1.00  0.00     0.221 C 
HETATM   29  N   UNL     1       8.081  25.491  55.835  1.00  0.00    -0.371 N 
HETATM   30  C   UNL     1       6.629  26.753  54.243  1.00  0.00     0.089 A 
HETATM   31  C   UNL     1       8.595  24.174  56.207  1.00  0.00     0.081 C 
HETATM   32  H   UNL     1       8.575  26.296  56.219  1.00  0.00     0.161 HD
HETATM   33  C   UNL     1       8.888  24.158  57.706  1.00  0.00     0.032 C 
HETATM   34  C   UNL     1       7.571  23.080  55.853  1.00  0.00     0.061 C 
BRANCH  28  35
HETATM   35  C   UNL     1       8.132  22.771  53.397  1.00  0.00     0.409 C 
HETATM   36  F   UNL     1       8.489  23.766  52.556  1.00  0.00    -0.169 F 
HETATM   37  F   UNL     1       9.259  22.291  53.965  1.00  0.00    -0.169 F 
HETATM   38  F   UNL     1       7.637  21.772  52.619  1.00  0.00    -0.169 F 
ENDBRANCH  28  35
ENDBRANCH   1  24
TORSDOF 8
ENDMDL
MODEL 10
REMARK VINA RESULT:      -9.5      6.694      8.065
REMARK  8 active torsions:
REMARK  status: ('A' for Active; 'I' for Inactive)
REMARK    1  A    between atoms: C_7  and  C_8 
REMARK       I    between atoms: C_8  and  N_9 
REMARK    2  A    between atoms: N_9  and  N_10 
REMARK    3  A    between atoms: N_10  and  C_11 
REMARK    4  A    between atoms: C_11  and  N_12 
REMARK    5  A    between atoms: N_12  and  C_13 
REMARK    6  A    between atoms: N_15  and  C_16 
REMARK    7  A    between atoms: C_16  and  C_17 
REMARK    8  A    between atoms: C_29  and  C_30 
ROOT
HETATM    1  C   UNL     1       3.484  32.554  59.805  1.00  0.00     0.290 C 
HETATM    2  N   UNL     1       3.858  31.226  59.729  1.00  0.00    -0.262 N 
HETATM    3  O   UNL     1       3.002  33.203  58.881  1.00  0.00    -0.264 OA
HETATM    4  H   UNL     1       4.120  30.758  60.596  1.00  0.00     0.190 HD
ENDROOT
BRANCH   2   5
HETATM    5  N   UNL     1       3.501  30.442  58.635  1.00  0.00    -0.273 N 
HETATM    6  H   UNL     1       2.503  30.350  58.418  1.00  0.00     0.189 HD
BRANCH   5   7
HETATM    7  C   UNL     1       4.412  30.079  57.677  1.00  0.00     0.192 C 
HETATM    8  S   UNL     1       4.925  31.069  56.423  1.00  0.00    -0.039 SA
BRANCH   7   9
HETATM    9  N   UNL     1       4.924  28.813  57.747  1.00  0.00    -0.315 N 
HETATM   10  H   UNL     1       4.552  28.230  58.483  1.00  0.00     0.170 HD
BRANCH   9  11
HETATM   11  C   UNL     1       5.957  28.285  56.999  1.00  0.00     0.151 A 
HETATM   12  N   UNL     1       5.829  27.850  55.742  1.00  0.00    -0.154 NA
HETATM   13  N   UNL     1       7.075  27.467  55.393  1.00  0.00    -0.275 N 
HETATM   14  C   UNL     1       7.985  27.624  56.398  1.00  0.00     0.116 A 
HETATM   15  C   UNL     1       7.285  28.148  57.460  1.00  0.00     0.071 A 
BRANCH  13  16
HETATM   16  C   UNL     1       7.319  26.888  54.078  1.00  0.00     0.192 C 
BRANCH  16  17
HETATM   17  C   UNL     1       7.441  25.392  54.145  1.00  0.00     0.000 A 
HETATM   18  C   UNL     1       7.957  24.677  53.063  1.00  0.00     0.124 A 
HETATM   19  F   UNL     1       8.359  25.333  51.965  1.00  0.00    -0.205 F 
HETATM   20  C   UNL     1       8.072  23.291  53.098  1.00  0.00     0.043 A 
HETATM   21  C   UNL     1       7.660  22.594  54.232  1.00  0.00     0.003 A 
HETATM   22  C   UNL     1       7.132  23.289  55.322  1.00  0.00     0.001 A 
HETATM   23  C   UNL     1       7.017  24.681  55.278  1.00  0.00     0.012 A 
ENDBRANCH  16  17
ENDBRANCH  13  16
ENDBRANCH   9  11
ENDBRANCH   7   9
ENDBRANCH   5   7
ENDBRANCH   2   5
BRANCH   1  24
HETATM   24  C   UNL     1       3.725  33.114  61.145  1.00  0.00     0.150 A 
HETATM   25  N   UNL     1       4.644  32.576  61.981  1.00  0.00    -0.165 NA
HETATM   26  N   UNL     1       4.573  33.359  63.068  1.00  0.00    -0.240 N 
HETATM   27  C   UNL     1       3.587  34.303  63.017  1.00  0.00     0.123 A 
HETATM   28  C   UNL     1       5.430  33.149  64.219  1.00  0.00     0.221 C 
HETATM   29  N   UNL     1       3.296  35.077  64.085  1.00  0.00    -0.371 N 
HETATM   30  C   UNL     1       3.055  34.213  61.755  1.00  0.00     0.089 A 
HETATM   31  C   UNL     1       4.080  35.010  65.317  1.00  0.00     0.081 C 
HETATM   32  H   UNL     1       2.675  35.879  63.986  1.00  0.00     0.161 HD
HETATM   33  C   UNL     1       3.177  35.339  66.503  1.00  0.00     0.032 C 
HETATM   34  C   UNL     1       4.692  33.606  65.487  1.00  0.00     0.061 C 
BRANCH  28  35
HETATM   35  C   UNL     1       6.744  33.870  64.017  1.00  0.00     0.409 C 
HETATM   36  F   UNL     1       6.614  34.992  63.277  1.00  0.00    -0.169 F 
HETATM   37  F   UNL     1       7.356  34.211  65.171  1.00  0.00    -0.169 F 
HETATM   38  F   UNL     1       7.609  33.066  63.344  1.00  0.00    -0.169 F 
ENDBRANCH  28  35
ENDBRANCH   1  24
TORSDOF 8
ENDMDL
