MODEL 1
REMARK VINA RESULT:      -9.1      0.000      0.000
REMARK  9 active torsions:
REMARK  status: ('A' for Active; 'I' for Inactive)
REMARK    1  A    between atoms: C_2  and  N_3 
REMARK    2  A    between atoms: C_4  and  S_5 
REMARK    3  A    between atoms: S_5  and  C_6 
REMARK    4  A    between atoms: C_6  and  C_7 
REMARK       I    between atoms: C_7  and  N_8 
REMARK    5  A    between atoms: N_8  and  C_9 
REMARK    6  A    between atoms: C_9  and  C_10 
REMARK    7  A    between atoms: C_10  and  C_11 
REMARK    8  A    between atoms: C_14  and  O_15 
REMARK    9  A    between atoms: C_22  and  C_23 
ROOT
HETATM    1  S   UNL     1       5.964  29.097  56.937  1.00  0.00    -0.081 SA
ENDROOT
BRANCH   1   2
HETATM    2  C   UNL     1       6.010  27.398  56.627  1.00  0.00     0.192 A 
HETATM    3  N   UNL     1       6.886  26.793  55.765  1.00  0.00    -0.308 N 
HETATM    4  C   UNL     1       6.553  25.452  55.782  1.00  0.00     0.165 A 
HETATM    5  N   UNL     1       5.541  25.284  56.615  1.00  0.00    -0.128 NA
HETATM    6  N   UNL     1       5.206  26.503  57.149  1.00  0.00    -0.122 NA
BRANCH   3   7
HETATM    7  C   UNL     1       7.917  27.424  54.970  1.00  0.00     0.128 C 
HETATM    8  C   UNL     1       7.406  27.918  53.627  1.00  0.00     0.027 C 
ENDBRANCH   3   7
BRANCH   4   9
HETATM    9  C   UNL     1       7.159  24.403  54.961  1.00  0.00     0.018 A 
HETATM   10  C   UNL     1       6.643  24.084  53.686  1.00  0.00    -0.048 A 
HETATM   11  C   UNL     1       5.429  24.779  53.128  1.00  0.00     0.049 C 
HETATM   12  C   UNL     1       7.254  23.068  52.933  1.00  0.00     0.007 A 
HETATM   13  C   UNL     1       8.360  22.378  53.430  1.00  0.00     0.001 A 
HETATM   14  C   UNL     1       8.858  22.680  54.692  1.00  0.00     0.001 A 
HETATM   15  C   UNL     1       8.255  23.680  55.458  1.00  0.00     0.016 A 
ENDBRANCH   4   9
ENDBRANCH   1   2
BRANCH   1  16
HETATM   16  C   UNL     1       7.354  29.248  58.098  1.00  0.00     0.185 C 
BRANCH  16  17
HETATM   17  C   UNL     1       7.354  30.637  58.716  1.00  0.00     0.227 C 
HETATM   18  N   UNL     1       8.505  30.958  59.412  1.00  0.00    -0.360 N 
HETATM   19  H   UNL     1       9.145  30.211  59.652  1.00  0.00     0.162 HD
HETATM   20  O   UNL     1       6.415  31.420  58.585  1.00  0.00    -0.273 OA
BRANCH  18  21
HETATM   21  C   UNL     1       8.612  32.202  60.157  1.00  0.00     0.127 C 
BRANCH  21  22
HETATM   22  C   UNL     1       8.963  31.960  61.625  1.00  0.00     0.058 C 
BRANCH  22  23
HETATM   23  C   UNL     1       7.804  32.286  62.533  1.00  0.00    -0.057 A 
HETATM   24  C   UNL     1       6.488  32.043  62.124  1.00  0.00     0.010 A 
HETATM   25  C   UNL     1       5.419  32.388  62.953  1.00  0.00     0.037 A 
HETATM   26  C   UNL     1       5.641  32.984  64.196  1.00  0.00     0.068 A 
HETATM   27  C   UNL     1       6.950  33.224  64.610  1.00  0.00     0.037 A 
HETATM   28  C   UNL     1       8.025  32.879  63.783  1.00  0.00     0.010 A 
BRANCH  26  29
HETATM   29  O   UNL     1       4.505  33.280  64.900  1.00  0.00    -0.356 OA
HETATM   30  C   UNL     1       4.680  33.885  66.175  1.00  0.00     0.210 C 
ENDBRANCH  26  29
ENDBRANCH  22  23
ENDBRANCH  21  22
ENDBRANCH  18  21
ENDBRANCH  16  17
ENDBRANCH   1  16
TORSDOF 9
ENDMDL
MODEL 2
REMARK VINA RESULT:      -9.1      1.495      2.344
REMARK  9 active torsions:
REMARK  status: ('A' for Active; 'I' for Inactive)
REMARK    1  A    between atoms: C_2  and  N_3 
REMARK    2  A    between atoms: C_4  and  S_5 
REMARK    3  A    between atoms: S_5  and  C_6 
REMARK    4  A    between atoms: C_6  and  C_7 
REMARK       I    between atoms: C_7  and  N_8 
REMARK    5  A    between atoms: N_8  and  C_9 
REMARK    6  A    between atoms: C_9  and  C_10 
REMARK    7  A    between atoms: C_10  and  C_11 
REMARK    8  A    between atoms: C_14  and  O_15 
REMARK    9  A    between atoms: C_22  and  C_23 
ROOT
HETATM    1  S   UNL     1       6.683  27.482  57.424  1.00  0.00    -0.081 SA
ENDROOT
BRANCH   1   2
HETATM    2  C   UNL     1       7.543  26.061  56.949  1.00  0.00     0.192 A 
HETATM    3  N   UNL     1       7.110  25.177  55.997  1.00  0.00    -0.308 N 
HETATM    4  C   UNL     1       8.061  24.175  55.963  1.00  0.00     0.165 A 
HETATM    5  N   UNL     1       9.002  24.465  56.845  1.00  0.00    -0.128 NA
HETATM    6  N   UNL     1       8.679  25.649  57.457  1.00  0.00    -0.122 NA
BRANCH   3   7
HETATM    7  C   UNL     1       5.893  25.248  55.216  1.00  0.00     0.128 C 
HETATM    8  C   UNL     1       6.048  26.089  53.960  1.00  0.00     0.027 C 
ENDBRANCH   3   7
BRANCH   4   9
HETATM    9  C   UNL     1       8.005  22.959  55.151  1.00  0.00     0.018 A 
HETATM   10  C   UNL     1       7.991  21.681  55.751  1.00  0.00    -0.048 A 
HETATM   11  C   UNL     1       8.071  21.507  57.245  1.00  0.00     0.049 C 
HETATM   12  C   UNL     1       7.938  20.540  54.934  1.00  0.00     0.007 A 
HETATM   13  C   UNL     1       7.898  20.658  53.544  1.00  0.00     0.001 A 
HETATM   14  C   UNL     1       7.928  21.916  52.952  1.00  0.00     0.001 A 
HETATM   15  C   UNL     1       7.990  23.060  53.751  1.00  0.00     0.016 A 
ENDBRANCH   4   9
ENDBRANCH   1   2
BRANCH   1  16
HETATM   16  C   UNL     1       8.073  28.626  57.679  1.00  0.00     0.185 C 
BRANCH  16  17
HETATM   17  C   UNL     1       7.570  29.901  58.337  1.00  0.00     0.227 C 
HETATM   18  N   UNL     1       8.108  30.155  59.586  1.00  0.00    -0.360 N 
HETATM   19  H   UNL     1       8.598  29.407  60.060  1.00  0.00     0.162 HD
HETATM   20  O   UNL     1       6.768  30.656  57.791  1.00  0.00    -0.273 OA
BRANCH  18  21
HETATM   21  C   UNL     1       7.643  31.272  60.392  1.00  0.00     0.127 C 
BRANCH  21  22
HETATM   22  C   UNL     1       8.295  31.289  61.775  1.00  0.00     0.058 C 
BRANCH  22  23
HETATM   23  C   UNL     1       7.445  32.025  62.780  1.00  0.00    -0.057 A 
HETATM   24  C   UNL     1       8.037  32.825  63.763  1.00  0.00     0.010 A 
HETATM   25  C   UNL     1       7.245  33.467  64.718  1.00  0.00     0.037 A 
HETATM   26  C   UNL     1       5.857  33.321  64.711  1.00  0.00     0.068 A 
HETATM   27  C   UNL     1       5.262  32.528  63.730  1.00  0.00     0.037 A 
HETATM   28  C   UNL     1       6.052  31.882  62.771  1.00  0.00     0.010 A 
BRANCH  26  29
HETATM   29  O   UNL     1       5.205  33.996  65.707  1.00  0.00    -0.356 OA
HETATM   30  C   UNL     1       3.962  34.598  65.367  1.00  0.00     0.210 C 
ENDBRANCH  26  29
ENDBRANCH  22  23
ENDBRANCH  21  22
ENDBRANCH  18  21
ENDBRANCH  16  17
ENDBRANCH   1  16
TORSDOF 9
ENDMDL
MODEL 3
REMARK VINA RESULT:      -8.7      1.511      1.969
REMARK  9 active torsions:
REMARK  status: ('A' for Active; 'I' for Inactive)
REMARK    1  A    between atoms: C_2  and  N_3 
REMARK    2  A    between atoms: C_4  and  S_5 
REMARK    3  A    between atoms: S_5  and  C_6 
REMARK    4  A    between atoms: C_6  and  C_7 
REMARK       I    between atoms: C_7  and  N_8 
REMARK    5  A    between atoms: N_8  and  C_9 
REMARK    6  A    between atoms: C_9  and  C_10 
REMARK    7  A    between atoms: C_10  and  C_11 
REMARK    8  A    between atoms: C_14  and  O_15 
REMARK    9  A    between atoms: C_22  and  C_23 
ROOT
HETATM    1  S   UNL     1       6.155  27.576  57.203  1.00  0.00    -0.081 SA
ENDROOT
BRANCH   1   2
HETATM    2  C   UNL     1       7.144  26.241  56.729  1.00  0.00     0.192 A 
HETATM    3  N   UNL     1       6.744  25.247  55.877  1.00  0.00    -0.308 N 
HETATM    4  C   UNL     1       7.809  24.370  55.807  1.00  0.00     0.165 A 
HETATM    5  N   UNL     1       8.782  24.834  56.572  1.00  0.00    -0.128 NA
HETATM    6  N   UNL     1       8.366  26.009  57.144  1.00  0.00    -0.122 NA
BRANCH   3   7
HETATM    7  C   UNL     1       5.462  25.113  55.217  1.00  0.00     0.128 C 
HETATM    8  C   UNL     1       5.372  25.924  53.936  1.00  0.00     0.027 C 
ENDBRANCH   3   7
BRANCH   4   9
HETATM    9  C   UNL     1       7.837  23.102  55.076  1.00  0.00     0.018 A 
HETATM   10  C   UNL     1       8.026  23.070  53.677  1.00  0.00    -0.048 A 
HETATM   11  C   UNL     1       8.169  24.333  52.869  1.00  0.00     0.049 C 
HETATM   12  C   UNL     1       8.044  21.832  53.015  1.00  0.00     0.007 A 
HETATM   13  C   UNL     1       7.880  20.641  53.723  1.00  0.00     0.001 A 
HETATM   14  C   UNL     1       7.678  20.672  55.098  1.00  0.00     0.001 A 
HETATM   15  C   UNL     1       7.647  21.896  55.770  1.00  0.00     0.016 A 
ENDBRANCH   4   9
ENDBRANCH   1   2
BRANCH   1  16
HETATM   16  C   UNL     1       7.038  28.936  56.381  1.00  0.00     0.185 C 
BRANCH  16  17
HETATM   17  C   UNL     1       7.056  30.155  57.290  1.00  0.00     0.227 C 
HETATM   18  N   UNL     1       8.232  30.326  57.999  1.00  0.00    -0.360 N 
HETATM   19  H   UNL     1       8.882  29.552  58.046  1.00  0.00     0.162 HD
HETATM   20  O   UNL     1       6.111  30.938  57.368  1.00  0.00    -0.273 OA
BRANCH  18  21
HETATM   21  C   UNL     1       8.362  31.376  58.996  1.00  0.00     0.127 C 
BRANCH  21  22
HETATM   22  C   UNL     1       8.512  30.809  60.407  1.00  0.00     0.058 C 
BRANCH  22  23
HETATM   23  C   UNL     1       7.905  31.724  61.440  1.00  0.00    -0.057 A 
HETATM   24  C   UNL     1       6.812  32.537  61.118  1.00  0.00     0.010 A 
HETATM   25  C   UNL     1       6.283  33.414  62.067  1.00  0.00     0.037 A 
HETATM   26  C   UNL     1       6.835  33.500  63.347  1.00  0.00     0.068 A 
HETATM   27  C   UNL     1       7.920  32.689  63.675  1.00  0.00     0.037 A 
HETATM   28  C   UNL     1       8.453  31.808  62.726  1.00  0.00     0.010 A 
BRANCH  26  29
HETATM   29  O   UNL     1       6.227  34.406  64.173  1.00  0.00    -0.356 OA
HETATM   30  C   UNL     1       5.901  33.962  65.484  1.00  0.00     0.210 C 
ENDBRANCH  26  29
ENDBRANCH  22  23
ENDBRANCH  21  22
ENDBRANCH  18  21
ENDBRANCH  16  17
ENDBRANCH   1  16
TORSDOF 9
ENDMDL
MODEL 4
REMARK VINA RESULT:      -8.4      1.677      2.232
REMARK  9 active torsions:
REMARK  status: ('A' for Active; 'I' for Inactive)
REMARK    1  A    between atoms: C_2  and  N_3 
REMARK    2  A    between atoms: C_4  and  S_5 
REMARK    3  A    between atoms: S_5  and  C_6 
REMARK    4  A    between atoms: C_6  and  C_7 
REMARK       I    between atoms: C_7  and  N_8 
REMARK    5  A    between atoms: N_8  and  C_9 
REMARK    6  A    between atoms: C_9  and  C_10 
REMARK    7  A    between atoms: C_10  and  C_11 
REMARK    8  A    between atoms: C_14  and  O_15 
REMARK    9  A    between atoms: C_22  and  C_23 
ROOT
HETATM    1  S   UNL     1       5.363  30.609  56.156  1.00  0.00    -0.081 SA
ENDROOT
BRANCH   1   2
HETATM    2  C   UNL     1       6.432  29.325  55.714  1.00  0.00     0.192 A 
HETATM    3  N   UNL     1       6.061  28.225  54.989  1.00  0.00    -0.308 N 
HETATM    4  C   UNL     1       7.195  27.439  54.903  1.00  0.00     0.165 A 
HETATM    5  N   UNL     1       8.177  28.055  55.538  1.00  0.00    -0.128 NA
HETATM    6  N   UNL     1       7.699  29.239  56.041  1.00  0.00    -0.122 NA
BRANCH   3   7
HETATM    7  C   UNL     1       4.750  27.920  54.457  1.00  0.00     0.128 C 
HETATM    8  C   UNL     1       4.542  28.465  53.054  1.00  0.00     0.027 C 
ENDBRANCH   3   7
BRANCH   4   9
HETATM    9  C   UNL     1       7.283  26.116  54.284  1.00  0.00     0.018 A 
HETATM   10  C   UNL     1       6.919  24.952  54.995  1.00  0.00    -0.048 A 
HETATM   11  C   UNL     1       6.461  25.012  56.429  1.00  0.00     0.049 C 
HETATM   12  C   UNL     1       7.021  23.702  54.364  1.00  0.00     0.007 A 
HETATM   13  C   UNL     1       7.473  23.601  53.048  1.00  0.00     0.001 A 
HETATM   14  C   UNL     1       7.847  24.745  52.352  1.00  0.00     0.001 A 
HETATM   15  C   UNL     1       7.762  25.995  52.969  1.00  0.00     0.016 A 
ENDBRANCH   4   9
ENDBRANCH   1   2
BRANCH   1  16
HETATM   16  C   UNL     1       5.428  30.469  57.967  1.00  0.00     0.185 C 
BRANCH  16  17
HETATM   17  C   UNL     1       6.309  31.572  58.532  1.00  0.00     0.227 C 
HETATM   18  N   UNL     1       7.324  31.129  59.361  1.00  0.00    -0.360 N 
HETATM   19  H   UNL     1       7.281  30.179  59.707  1.00  0.00     0.162 HD
HETATM   20  O   UNL     1       6.146  32.758  58.253  1.00  0.00    -0.273 OA
BRANCH  18  21
HETATM   21  C   UNL     1       8.178  32.067  60.070  1.00  0.00     0.127 C 
BRANCH  21  22
HETATM   22  C   UNL     1       8.337  31.692  61.544  1.00  0.00     0.058 C 
BRANCH  22  23
HETATM   23  C   UNL     1       7.587  32.643  62.442  1.00  0.00    -0.057 A 
HETATM   24  C   UNL     1       6.588  33.474  61.924  1.00  0.00     0.010 A 
HETATM   25  C   UNL     1       5.928  34.383  62.754  1.00  0.00     0.037 A 
HETATM   26  C   UNL     1       6.254  34.483  64.107  1.00  0.00     0.068 A 
HETATM   27  C   UNL     1       7.246  33.654  64.630  1.00  0.00     0.037 A 
HETATM   28  C   UNL     1       7.910  32.741  63.802  1.00  0.00     0.010 A 
BRANCH  26  29
HETATM   29  O   UNL     1       5.539  35.420  64.801  1.00  0.00    -0.356 OA
HETATM   30  C   UNL     1       4.164  35.556  64.466  1.00  0.00     0.210 C 
ENDBRANCH  26  29
ENDBRANCH  22  23
ENDBRANCH  21  22
ENDBRANCH  18  21
ENDBRANCH  16  17
ENDBRANCH   1  16
TORSDOF 9
ENDMDL
MODEL 5
REMARK VINA RESULT:      -8.4      1.394      2.455
REMARK  9 active torsions:
REMARK  status: ('A' for Active; 'I' for Inactive)
REMARK    1  A    between atoms: C_2  and  N_3 
REMARK    2  A    between atoms: C_4  and  S_5 
REMARK    3  A    between atoms: S_5  and  C_6 
REMARK    4  A    between atoms: C_6  and  C_7 
REMARK       I    between atoms: C_7  and  N_8 
REMARK    5  A    between atoms: N_8  and  C_9 
REMARK    6  A    between atoms: C_9  and  C_10 
REMARK    7  A    between atoms: C_10  and  C_11 
REMARK    8  A    between atoms: C_14  and  O_15 
REMARK    9  A    between atoms: C_22  and  C_23 
ROOT
HETATM    1  S   UNL     1       5.060  28.651  55.737  1.00  0.00    -0.081 SA
ENDROOT
BRANCH   1   2
HETATM    2  C   UNL     1       6.240  27.613  55.017  1.00  0.00     0.192 A 
HETATM    3  N   UNL     1       6.193  26.246  55.058  1.00  0.00    -0.308 N 
HETATM    4  C   UNL     1       7.336  25.818  54.410  1.00  0.00     0.165 A 
HETATM    5  N   UNL     1       8.009  26.882  54.006  1.00  0.00    -0.128 NA
HETATM    6  N   UNL     1       7.317  28.006  54.382  1.00  0.00    -0.122 NA
BRANCH   3   7
HETATM    7  C   UNL     1       5.185  25.415  55.682  1.00  0.00     0.128 C 
HETATM    8  C   UNL     1       5.416  25.229  57.172  1.00  0.00     0.027 C 
ENDBRANCH   3   7
BRANCH   4   9
HETATM    9  C   UNL     1       7.775  24.430  54.259  1.00  0.00     0.018 A 
HETATM   10  C   UNL     1       8.495  23.778  55.283  1.00  0.00    -0.048 A 
HETATM   11  C   UNL     1       8.879  24.486  56.556  1.00  0.00     0.049 C 
HETATM   12  C   UNL     1       8.899  22.445  55.097  1.00  0.00     0.007 A 
HETATM   13  C   UNL     1       8.594  21.765  53.918  1.00  0.00     0.001 A 
HETATM   14  C   UNL     1       7.898  22.412  52.902  1.00  0.00     0.001 A 
HETATM   15  C   UNL     1       7.498  23.740  53.068  1.00  0.00     0.016 A 
ENDBRANCH   4   9
ENDBRANCH   1   2
BRANCH   1  16
HETATM   16  C   UNL     1       5.742  28.793  57.416  1.00  0.00     0.185 C 
BRANCH  16  17
HETATM   17  C   UNL     1       6.236  30.212  57.648  1.00  0.00     0.227 C 
HETATM   18  N   UNL     1       7.323  30.312  58.497  1.00  0.00    -0.360 N 
HETATM   19  H   UNL     1       7.566  29.508  59.062  1.00  0.00     0.162 HD
HETATM   20  O   UNL     1       5.724  31.189  57.104  1.00  0.00    -0.273 OA
BRANCH  18  21
HETATM   21  C   UNL     1       7.838  31.607  58.910  1.00  0.00     0.127 C 
BRANCH  21  22
HETATM   22  C   UNL     1       8.675  31.508  60.186  1.00  0.00     0.058 C 
BRANCH  22  23
HETATM   23  C   UNL     1       7.950  32.097  61.370  1.00  0.00    -0.057 A 
HETATM   24  C   UNL     1       8.454  31.937  62.666  1.00  0.00     0.010 A 
HETATM   25  C   UNL     1       7.754  32.448  63.761  1.00  0.00     0.037 A 
HETATM   26  C   UNL     1       6.543  33.119  63.586  1.00  0.00     0.068 A 
HETATM   27  C   UNL     1       6.039  33.286  62.297  1.00  0.00     0.037 A 
HETATM   28  C   UNL     1       6.737  32.776  61.196  1.00  0.00     0.010 A 
BRANCH  26  29
HETATM   29  O   UNL     1       5.959  33.558  64.742  1.00  0.00    -0.356 OA
HETATM   30  C   UNL     1       6.832  33.928  65.803  1.00  0.00     0.210 C 
ENDBRANCH  26  29
ENDBRANCH  22  23
ENDBRANCH  21  22
ENDBRANCH  18  21
ENDBRANCH  16  17
ENDBRANCH   1  16
TORSDOF 9
ENDMDL
MODEL 6
REMARK VINA RESULT:      -8.3      5.366      9.302
REMARK  9 active torsions:
REMARK  status: ('A' for Active; 'I' for Inactive)
REMARK    1  A    between atoms: C_2  and  N_3 
REMARK    2  A    between atoms: C_4  and  S_5 
REMARK    3  A    between atoms: S_5  and  C_6 
REMARK    4  A    between atoms: C_6  and  C_7 
REMARK       I    between atoms: C_7  and  N_8 
REMARK    5  A    between atoms: N_8  and  C_9 
REMARK    6  A    between atoms: C_9  and  C_10 
REMARK    7  A    between atoms: C_10  and  C_11 
REMARK    8  A    between atoms: C_14  and  O_15 
REMARK    9  A    between atoms: C_22  and  C_23 
ROOT
HETATM    1  S   UNL     1       6.324  27.439  57.172  1.00  0.00    -0.081 SA
ENDROOT
BRANCH   1   2
HETATM    2  C   UNL     1       7.308  26.111  56.667  1.00  0.00     0.192 A 
HETATM    3  N   UNL     1       6.857  25.055  55.921  1.00  0.00    -0.308 N 
HETATM    4  C   UNL     1       7.942  24.210  55.783  1.00  0.00     0.165 A 
HETATM    5  N   UNL     1       8.973  24.751  56.411  1.00  0.00    -0.128 NA
HETATM    6  N   UNL     1       8.575  25.944  56.959  1.00  0.00    -0.122 NA
BRANCH   3   7
HETATM    7  C   UNL     1       5.518  24.840  55.414  1.00  0.00     0.128 C 
HETATM    8  C   UNL     1       5.363  25.261  53.963  1.00  0.00     0.027 C 
ENDBRANCH   3   7
BRANCH   4   9
HETATM    9  C   UNL     1       7.941  22.903  55.126  1.00  0.00     0.018 A 
HETATM   10  C   UNL     1       8.070  22.791  53.724  1.00  0.00    -0.048 A 
HETATM   11  C   UNL     1       8.176  24.006  52.840  1.00  0.00     0.049 C 
HETATM   12  C   UNL     1       8.061  21.517  53.134  1.00  0.00     0.007 A 
HETATM   13  C   UNL     1       7.930  20.369  53.915  1.00  0.00     0.001 A 
HETATM   14  C   UNL     1       7.786  20.479  55.294  1.00  0.00     0.001 A 
HETATM   15  C   UNL     1       7.783  21.739  55.895  1.00  0.00     0.016 A 
ENDBRANCH   4   9
ENDBRANCH   1   2
BRANCH   1  16
HETATM   16  C   UNL     1       7.263  28.822  56.458  1.00  0.00     0.185 C 
BRANCH  16  17
HETATM   17  C   UNL     1       7.363  28.646  54.952  1.00  0.00     0.227 C 
HETATM   18  N   UNL     1       6.162  28.769  54.277  1.00  0.00    -0.360 N 
HETATM   19  H   UNL     1       5.305  28.740  54.813  1.00  0.00     0.162 HD
HETATM   20  O   UNL     1       8.431  28.437  54.379  1.00  0.00    -0.273 OA
BRANCH  18  21
HETATM   21  C   UNL     1       6.073  28.514  52.848  1.00  0.00     0.127 C 
BRANCH  21  22
HETATM   22  C   UNL     1       4.689  28.852  52.294  1.00  0.00     0.058 C 
BRANCH  22  23
HETATM   23  C   UNL     1       4.418  28.126  51.000  1.00  0.00    -0.057 A 
HETATM   24  C   UNL     1       5.012  26.887  50.740  1.00  0.00     0.010 A 
HETATM   25  C   UNL     1       4.792  26.242  49.521  1.00  0.00     0.037 A 
HETATM   26  C   UNL     1       3.982  26.821  48.542  1.00  0.00     0.068 A 
HETATM   27  C   UNL     1       3.383  28.053  48.798  1.00  0.00     0.037 A 
HETATM   28  C   UNL     1       3.602  28.703  50.019  1.00  0.00     0.010 A 
BRANCH  26  29
HETATM   29  O   UNL     1       3.859  26.088  47.394  1.00  0.00    -0.356 OA
HETATM   30  C   UNL     1       2.540  25.865  46.913  1.00  0.00     0.210 C 
ENDBRANCH  26  29
ENDBRANCH  22  23
ENDBRANCH  21  22
ENDBRANCH  18  21
ENDBRANCH  16  17
ENDBRANCH   1  16
TORSDOF 9
ENDMDL
MODEL 7
REMARK VINA RESULT:      -8.3      2.702     11.122
REMARK  9 active torsions:
REMARK  status: ('A' for Active; 'I' for Inactive)
REMARK    1  A    between atoms: C_2  and  N_3 
REMARK    2  A    between atoms: C_4  and  S_5 
REMARK    3  A    between atoms: S_5  and  C_6 
REMARK    4  A    between atoms: C_6  and  C_7 
REMARK       I    between atoms: C_7  and  N_8 
REMARK    5  A    between atoms: N_8  and  C_9 
REMARK    6  A    between atoms: C_9  and  C_10 
REMARK    7  A    between atoms: C_10  and  C_11 
REMARK    8  A    between atoms: C_14  and  O_15 
REMARK    9  A    between atoms: C_22  and  C_23 
ROOT
HETATM    1  S   UNL     1       8.952  30.597  58.652  1.00  0.00    -0.081 SA
ENDROOT
BRANCH   1   2
HETATM    2  C   UNL     1       8.601  30.747  60.337  1.00  0.00     0.192 A 
HETATM    3  N   UNL     1       7.788  31.709  60.875  1.00  0.00    -0.308 N 
HETATM    4  C   UNL     1       7.817  31.497  62.240  1.00  0.00     0.165 A 
HETATM    5  N   UNL     1       8.601  30.460  62.484  1.00  0.00    -0.128 NA
HETATM    6  N   UNL     1       9.085  29.988  61.290  1.00  0.00    -0.122 NA
BRANCH   3   7
HETATM    7  C   UNL     1       7.078  32.757  60.173  1.00  0.00     0.128 C 
HETATM    8  C   UNL     1       5.924  32.229  59.338  1.00  0.00     0.027 C 
ENDBRANCH   3   7
BRANCH   4   9
HETATM    9  C   UNL     1       7.161  32.321  63.256  1.00  0.00     0.018 A 
HETATM   10  C   UNL     1       5.764  32.265  63.449  1.00  0.00    -0.048 A 
HETATM   11  C   UNL     1       4.882  31.389  62.599  1.00  0.00     0.049 C 
HETATM   12  C   UNL     1       5.174  33.075  64.434  1.00  0.00     0.007 A 
HETATM   13  C   UNL     1       5.953  33.925  65.219  1.00  0.00     0.001 A 
HETATM   14  C   UNL     1       7.327  33.993  65.019  1.00  0.00     0.001 A 
HETATM   15  C   UNL     1       7.927  33.202  64.036  1.00  0.00     0.016 A 
ENDBRANCH   4   9
ENDBRANCH   1   2
BRANCH   1  16
HETATM   16  C   UNL     1       7.976  29.117  58.253  1.00  0.00     0.185 C 
BRANCH  16  17
HETATM   17  C   UNL     1       8.162  28.764  56.786  1.00  0.00     0.227 C 
HETATM   18  N   UNL     1       7.182  27.940  56.263  1.00  0.00    -0.360 N 
HETATM   19  H   UNL     1       6.564  27.461  56.906  1.00  0.00     0.162 HD
HETATM   20  O   UNL     1       9.096  29.198  56.113  1.00  0.00    -0.273 OA
BRANCH  18  21
HETATM   21  C   UNL     1       7.280  27.419  54.909  1.00  0.00     0.127 C 
BRANCH  21  22
HETATM   22  C   UNL     1       6.338  26.237  54.683  1.00  0.00     0.058 C 
BRANCH  22  23
HETATM   23  C   UNL     1       7.100  24.953  54.469  1.00  0.00    -0.057 A 
HETATM   24  C   UNL     1       6.972  24.239  53.273  1.00  0.00     0.010 A 
HETATM   25  C   UNL     1       7.647  23.029  53.100  1.00  0.00     0.037 A 
HETATM   26  C   UNL     1       8.455  22.510  54.113  1.00  0.00     0.068 A 
HETATM   27  C   UNL     1       8.590  23.220  55.305  1.00  0.00     0.037 A 
HETATM   28  C   UNL     1       7.915  24.434  55.482  1.00  0.00     0.010 A 
BRANCH  26  29
HETATM   29  O   UNL     1       9.049  21.314  53.816  1.00  0.00    -0.356 OA
HETATM   30  C   UNL     1       8.392  20.491  52.860  1.00  0.00     0.210 C 
ENDBRANCH  26  29
ENDBRANCH  22  23
ENDBRANCH  21  22
ENDBRANCH  18  21
ENDBRANCH  16  17
ENDBRANCH   1  16
TORSDOF 9
ENDMDL
MODEL 8
REMARK VINA RESULT:      -8.3      1.342      2.057
REMARK  9 active torsions:
REMARK  status: ('A' for Active; 'I' for Inactive)
REMARK    1  A    between atoms: C_2  and  N_3 
REMARK    2  A    between atoms: C_4  and  S_5 
REMARK    3  A    between atoms: S_5  and  C_6 
REMARK    4  A    between atoms: C_6  and  C_7 
REMARK       I    between atoms: C_7  and  N_8 
REMARK    5  A    between atoms: N_8  and  C_9 
REMARK    6  A    between atoms: C_9  and  C_10 
REMARK    7  A    between atoms: C_10  and  C_11 
REMARK    8  A    between atoms: C_14  and  O_15 
REMARK    9  A    between atoms: C_22  and  C_23 
ROOT
HETATM    1  S   UNL     1       5.145  29.312  55.816  1.00  0.00    -0.081 SA
ENDROOT
BRANCH   1   2
HETATM    2  C   UNL     1       5.478  27.617  55.845  1.00  0.00     0.192 A 
HETATM    3  N   UNL     1       6.405  26.998  55.050  1.00  0.00    -0.308 N 
HETATM    4  C   UNL     1       6.317  25.653  55.359  1.00  0.00     0.165 A 
HETATM    5  N   UNL     1       5.393  25.500  56.291  1.00  0.00    -0.128 NA
HETATM    6  N   UNL     1       4.872  26.732  56.599  1.00  0.00    -0.122 NA
BRANCH   3   7
HETATM    7  C   UNL     1       7.268  27.608  54.062  1.00  0.00     0.128 C 
HETATM    8  C   UNL     1       8.432  28.362  54.681  1.00  0.00     0.027 C 
ENDBRANCH   3   7
BRANCH   4   9
HETATM    9  C   UNL     1       7.060  24.570  54.715  1.00  0.00     0.018 A 
HETATM   10  C   UNL     1       6.700  24.100  53.433  1.00  0.00    -0.048 A 
HETATM   11  C   UNL     1       5.518  24.661  52.688  1.00  0.00     0.049 C 
HETATM   12  C   UNL     1       7.438  23.056  52.852  1.00  0.00     0.007 A 
HETATM   13  C   UNL     1       8.519  22.485  53.525  1.00  0.00     0.001 A 
HETATM   14  C   UNL     1       8.865  22.937  54.794  1.00  0.00     0.001 A 
HETATM   15  C   UNL     1       8.133  23.967  55.390  1.00  0.00     0.016 A 
ENDBRANCH   4   9
ENDBRANCH   1   2
BRANCH   1  16
HETATM   16  C   UNL     1       5.502  29.738  57.546  1.00  0.00     0.185 C 
BRANCH  16  17
HETATM   17  C   UNL     1       6.961  29.441  57.854  1.00  0.00     0.227 C 
HETATM   18  N   UNL     1       7.797  30.541  57.797  1.00  0.00    -0.360 N 
HETATM   19  H   UNL     1       7.453  31.384  57.355  1.00  0.00     0.162 HD
HETATM   20  O   UNL     1       7.359  28.317  58.154  1.00  0.00    -0.273 OA
BRANCH  18  21
HETATM   21  C   UNL     1       9.236  30.402  57.952  1.00  0.00     0.127 C 
BRANCH  21  22
HETATM   22  C   UNL     1       9.831  31.527  58.799  1.00  0.00     0.058 C 
BRANCH  22  23
HETATM   23  C   UNL     1       9.127  31.652  60.127  1.00  0.00    -0.057 A 
HETATM   24  C   UNL     1       8.293  32.743  60.391  1.00  0.00     0.010 A 
HETATM   25  C   UNL     1       7.679  32.875  61.639  1.00  0.00     0.037 A 
HETATM   26  C   UNL     1       7.890  31.927  62.643  1.00  0.00     0.068 A 
HETATM   27  C   UNL     1       8.716  30.835  62.383  1.00  0.00     0.037 A 
HETATM   28  C   UNL     1       9.333  30.699  61.133  1.00  0.00     0.010 A 
BRANCH  26  29
HETATM   29  O   UNL     1       7.237  32.183  63.818  1.00  0.00    -0.356 OA
HETATM   30  C   UNL     1       6.106  33.041  63.750  1.00  0.00     0.210 C 
ENDBRANCH  26  29
ENDBRANCH  22  23
ENDBRANCH  21  22
ENDBRANCH  18  21
ENDBRANCH  16  17
ENDBRANCH   1  16
TORSDOF 9
ENDMDL
MODEL 9
REMARK VINA RESULT:      -8.3      2.856     10.960
REMARK  9 active torsions:
REMARK  status: ('A' for Active; 'I' for Inactive)
REMARK    1  A    between atoms: C_2  and  N_3 
REMARK    2  A    between atoms: C_4  and  S_5 
REMARK    3  A    between atoms: S_5  and  C_6 
REMARK    4  A    between atoms: C_6  and  C_7 
REMARK       I    between atoms: C_7  and  N_8 
REMARK    5  A    between atoms: N_8  and  C_9 
REMARK    6  A    between atoms: C_9  and  C_10 
REMARK    7  A    between atoms: C_10  and  C_11 
REMARK    8  A    between atoms: C_14  and  O_15 
REMARK    9  A    between atoms: C_22  and  C_23 
ROOT
HETATM    1  S   UNL     1       5.418  31.379  57.294  1.00  0.00    -0.081 SA
ENDROOT
BRANCH   1   2
HETATM    2  C   UNL     1       6.389  31.874  58.634  1.00  0.00     0.192 A 
HETATM    3  N   UNL     1       5.894  32.205  59.867  1.00  0.00    -0.308 N 
HETATM    4  C   UNL     1       6.992  32.581  60.617  1.00  0.00     0.165 A 
HETATM    5  N   UNL     1       8.071  32.468  59.862  1.00  0.00    -0.128 NA
HETATM    6  N   UNL     1       7.692  32.019  58.622  1.00  0.00    -0.122 NA
BRANCH   3   7
HETATM    7  C   UNL     1       4.511  32.204  60.292  1.00  0.00     0.128 C 
HETATM    8  C   UNL     1       3.753  33.438  59.833  1.00  0.00     0.027 C 
ENDBRANCH   3   7
BRANCH   4   9
HETATM    9  C   UNL     1       6.967  33.093  61.988  1.00  0.00     0.018 A 
HETATM   10  C   UNL     1       7.608  32.400  63.038  1.00  0.00    -0.048 A 
HETATM   11  C   UNL     1       8.312  31.089  62.807  1.00  0.00     0.049 C 
HETATM   12  C   UNL     1       7.557  32.927  64.339  1.00  0.00     0.007 A 
HETATM   13  C   UNL     1       6.886  34.121  64.600  1.00  0.00     0.001 A 
HETATM   14  C   UNL     1       6.241  34.796  63.570  1.00  0.00     0.001 A 
HETATM   15  C   UNL     1       6.273  34.280  62.273  1.00  0.00     0.016 A 
ENDBRANCH   4   9
ENDBRANCH   1   2
BRANCH   1  16
HETATM   16  C   UNL     1       5.356  29.586  57.590  1.00  0.00     0.185 C 
BRANCH  16  17
HETATM   17  C   UNL     1       6.434  28.896  56.771  1.00  0.00     0.227 C 
HETATM   18  N   UNL     1       6.357  27.515  56.764  1.00  0.00    -0.360 N 
HETATM   19  H   UNL     1       5.765  27.064  57.449  1.00  0.00     0.162 HD
HETATM   20  O   UNL     1       7.291  29.519  56.145  1.00  0.00    -0.273 OA
BRANCH  18  21
HETATM   21  C   UNL     1       7.382  26.708  56.123  1.00  0.00     0.127 C 
BRANCH  21  22
HETATM   22  C   UNL     1       7.869  25.578  57.031  1.00  0.00     0.058 C 
BRANCH  22  23
HETATM   23  C   UNL     1       7.868  24.251  56.313  1.00  0.00    -0.057 A 
HETATM   24  C   UNL     1       8.339  23.097  56.948  1.00  0.00     0.010 A 
HETATM   25  C   UNL     1       8.376  21.882  56.262  1.00  0.00     0.037 A 
HETATM   26  C   UNL     1       7.951  21.796  54.935  1.00  0.00     0.068 A 
HETATM   27  C   UNL     1       7.477  22.942  54.298  1.00  0.00     0.037 A 
HETATM   28  C   UNL     1       7.437  24.163  54.983  1.00  0.00     0.010 A 
BRANCH  26  29
HETATM   29  O   UNL     1       8.051  20.550  54.380  1.00  0.00    -0.356 OA
HETATM   30  C   UNL     1       8.107  20.481  52.961  1.00  0.00     0.210 C 
ENDBRANCH  26  29
ENDBRANCH  22  23
ENDBRANCH  21  22
ENDBRANCH  18  21
ENDBRANCH  16  17
ENDBRANCH   1  16
TORSDOF 9
ENDMDL
MODEL 10
REMARK VINA RESULT:      -8.1      6.639     10.760
REMARK  9 active torsions:
REMARK  status: ('A' for Active; 'I' for Inactive)
REMARK    1  A    between atoms: C_2  and  N_3 
REMARK    2  A    between atoms: C_4  and  S_5 
REMARK    3  A    between atoms: S_5  and  C_6 
REMARK    4  A    between atoms: C_6  and  C_7 
REMARK       I    between atoms: C_7  and  N_8 
REMARK    5  A    between atoms: N_8  and  C_9 
REMARK    6  A    between atoms: C_9  and  C_10 
REMARK    7  A    between atoms: C_10  and  C_11 
REMARK    8  A    between atoms: C_14  and  O_15 
REMARK    9  A    between atoms: C_22  and  C_23 
ROOT
HETATM    1  S   UNL     1       5.236  28.246  54.776  1.00  0.00    -0.081 SA
ENDROOT
BRANCH   1   2
HETATM    2  C   UNL     1       6.344  27.048  54.207  1.00  0.00     0.192 A 
HETATM    3  N   UNL     1       6.305  25.727  54.566  1.00  0.00    -0.308 N 
HETATM    4  C   UNL     1       7.382  25.140  53.929  1.00  0.00     0.165 A 
HETATM    5  N   UNL     1       8.010  26.070  53.230  1.00  0.00    -0.128 NA
HETATM    6  N   UNL     1       7.355  27.263  53.401  1.00  0.00    -0.122 NA
BRANCH   3   7
HETATM    7  C   UNL     1       5.364  25.082  55.456  1.00  0.00     0.128 C 
HETATM    8  C   UNL     1       5.656  25.357  56.921  1.00  0.00     0.027 C 
ENDBRANCH   3   7
BRANCH   4   9
HETATM    9  C   UNL     1       7.808  23.747  54.062  1.00  0.00     0.018 A 
HETATM   10  C   UNL     1       8.537  23.311  55.191  1.00  0.00    -0.048 A 
HETATM   11  C   UNL     1       8.941  24.261  56.287  1.00  0.00     0.049 C 
HETATM   12  C   UNL     1       8.928  21.965  55.277  1.00  0.00     0.007 A 
HETATM   13  C   UNL     1       8.603  21.060  54.266  1.00  0.00     0.001 A 
HETATM   14  C   UNL     1       7.899  21.492  53.147  1.00  0.00     0.001 A 
HETATM   15  C   UNL     1       7.512  22.830  53.041  1.00  0.00     0.016 A 
ENDBRANCH   4   9
ENDBRANCH   1   2
BRANCH   1  16
HETATM   16  C   UNL     1       3.843  27.956  53.644  1.00  0.00     0.185 C 
BRANCH  16  17
HETATM   17  C   UNL     1       4.275  28.252  52.217  1.00  0.00     0.227 C 
HETATM   18  N   UNL     1       4.550  27.132  51.454  1.00  0.00    -0.360 N 
HETATM   19  H   UNL     1       4.665  26.244  51.928  1.00  0.00     0.162 HD
HETATM   20  O   UNL     1       4.349  29.396  51.772  1.00  0.00    -0.273 OA
BRANCH  18  21
HETATM   21  C   UNL     1       5.085  27.251  50.108  1.00  0.00     0.127 C 
BRANCH  21  22
HETATM   22  C   UNL     1       4.365  26.329  49.124  1.00  0.00     0.058 C 
BRANCH  22  23
HETATM   23  C   UNL     1       3.301  27.068  48.350  1.00  0.00    -0.057 A 
HETATM   24  C   UNL     1       2.163  26.398  47.888  1.00  0.00     0.010 A 
HETATM   25  C   UNL     1       1.204  27.079  47.135  1.00  0.00     0.037 A 
HETATM   26  C   UNL     1       1.364  28.431  46.827  1.00  0.00     0.068 A 
HETATM   27  C   UNL     1       2.494  29.104  47.289  1.00  0.00     0.037 A 
HETATM   28  C   UNL     1       3.458  28.426  48.045  1.00  0.00     0.010 A 
BRANCH  26  29
HETATM   29  O   UNL     1       0.356  28.971  46.075  1.00  0.00    -0.356 OA
HETATM   30  C   UNL     1      -0.825  28.192  45.930  1.00  0.00     0.210 C 
ENDBRANCH  26  29
ENDBRANCH  22  23
ENDBRANCH  21  22
ENDBRANCH  18  21
ENDBRANCH  16  17
ENDBRANCH   1  16
TORSDOF 9
ENDMDL
