MODEL 1
REMARK VINA RESULT:      -9.1      0.000      0.000
REMARK  6 active torsions:
REMARK  status: ('A' for Active; 'I' for Inactive)
REMARK    1  A    between atoms: C_2  and  C_3 
REMARK    2  A    between atoms: C_7  and  C_8 
REMARK       I    between atoms: C_8  and  N_9 
REMARK    3  A    between atoms: N_9  and  C_10 
REMARK    4  A    between atoms: C_10  and  C_11 
REMARK    5  A    between atoms: C_11  and  N_12 
REMARK       I    between atoms: N_12  and  C_13 
REMARK    6  A    between atoms: C_13  and  C_14 
ROOT
HETATM    1  C   UNL     1       8.304  28.583  54.267  1.00  0.00     0.142 C 
ENDROOT
BRANCH   1   2
HETATM    2  N   UNL     1       8.278  28.897  55.677  1.00  0.00    -0.354 N 
HETATM    3  C   UNL     1       9.288  29.592  56.305  1.00  0.00     0.272 C 
HETATM    4  O   UNL     1      10.316  29.949  55.737  1.00  0.00    -0.266 OA
HETATM    5  H   UNL     1       7.450  28.717  56.240  1.00  0.00     0.162 HD
BRANCH   3   6
HETATM    6  C   UNL     1       9.001  29.889  57.716  1.00  0.00     0.146 A 
HETATM    7  N   UNL     1       8.067  29.211  58.417  1.00  0.00    -0.169 NA
HETATM    8  N   UNL     1       8.100  29.773  59.635  1.00  0.00    -0.281 N 
HETATM    9  C   UNL     1       9.008  30.790  59.756  1.00  0.00     0.033 A 
HETATM   10  H   UNL     1       7.469  29.415  60.345  1.00  0.00     0.189 HD
HETATM   11  C   UNL     1       9.613  30.883  58.520  1.00  0.00     0.066 A 
BRANCH   9  12
HETATM   12  C   UNL     1       9.196  31.549  61.032  1.00  0.00     0.029 C 
HETATM   13  C   UNL     1       9.236  30.603  62.234  1.00  0.00     0.016 C 
HETATM   14  C   UNL     1       8.099  32.598  61.207  1.00  0.00     0.016 C 
ENDBRANCH   9  12
ENDBRANCH   3   6
ENDBRANCH   1   2
BRANCH   1  15
HETATM   15  C   UNL     1       7.147  27.666  53.852  1.00  0.00     0.142 C 
BRANCH  15  16
HETATM   16  N   UNL     1       7.304  26.305  54.336  1.00  0.00    -0.355 N 
HETATM   17  C   UNL     1       7.683  25.285  53.492  1.00  0.00     0.251 C 
HETATM   18  O   UNL     1       7.898  25.445  52.297  1.00  0.00    -0.268 OA
HETATM   19  H   UNL     1       6.942  26.101  55.257  1.00  0.00     0.162 HD
BRANCH  17  20
HETATM   20  C   UNL     1       7.795  23.925  54.094  1.00  0.00     0.033 A 
HETATM   21  C   UNL     1       8.023  22.839  53.238  1.00  0.00     0.042 A 
HETATM   22  C   UNL     1       8.150  21.547  53.755  1.00  0.00     0.056 A 
HETATM   23 CL   UNL     1       8.424  20.256  52.639  1.00  0.00    -0.083 Cl
HETATM   24  C   UNL     1       8.055  21.334  55.135  1.00  0.00     0.055 A 
HETATM   25 CL   UNL     1       8.201  19.767  55.846  1.00  0.00    -0.083 Cl
HETATM   26  C   UNL     1       7.841  22.418  55.992  1.00  0.00     0.026 A 
HETATM   27  C   UNL     1       7.715  23.711  55.476  1.00  0.00     0.019 A 
ENDBRANCH  17  20
ENDBRANCH  15  16
ENDBRANCH   1  15
TORSDOF 6
ENDMDL
MODEL 2
REMARK VINA RESULT:      -9.1      1.608      2.300
REMARK  6 active torsions:
REMARK  status: ('A' for Active; 'I' for Inactive)
REMARK    1  A    between atoms: C_2  and  C_3 
REMARK    2  A    between atoms: C_7  and  C_8 
REMARK       I    between atoms: C_8  and  N_9 
REMARK    3  A    between atoms: N_9  and  C_10 
REMARK    4  A    between atoms: C_10  and  C_11 
REMARK    5  A    between atoms: C_11  and  N_12 
REMARK       I    between atoms: N_12  and  C_13 
REMARK    6  A    between atoms: C_13  and  C_14 
ROOT
HETATM    1  C   UNL     1       8.629  28.968  55.516  1.00  0.00     0.142 C 
ENDROOT
BRANCH   1   2
HETATM    2  N   UNL     1       8.476  29.635  56.789  1.00  0.00    -0.354 N 
HETATM    3  C   UNL     1       9.542  30.151  57.493  1.00  0.00     0.272 C 
HETATM    4  O   UNL     1      10.709  30.036  57.131  1.00  0.00    -0.266 OA
HETATM    5  H   UNL     1       7.554  29.855  57.160  1.00  0.00     0.162 HD
BRANCH   3   6
HETATM    6  C   UNL     1       9.142  30.877  58.708  1.00  0.00     0.146 A 
HETATM    7  N   UNL     1       9.596  32.118  58.985  1.00  0.00    -0.169 NA
HETATM    8  N   UNL     1       9.021  32.422  60.160  1.00  0.00    -0.281 N 
HETATM    9  C   UNL     1       8.220  31.432  60.661  1.00  0.00     0.033 A 
HETATM   10  H   UNL     1       9.221  33.328  60.570  1.00  0.00     0.189 HD
HETATM   11  C   UNL     1       8.277  30.415  59.732  1.00  0.00     0.066 A 
BRANCH   9  12
HETATM   12  C   UNL     1       7.491  31.573  61.961  1.00  0.00     0.029 C 
HETATM   13  C   UNL     1       6.116  32.213  61.755  1.00  0.00     0.016 C 
HETATM   14  C   UNL     1       8.317  32.380  62.962  1.00  0.00     0.016 C 
ENDBRANCH   9  12
ENDBRANCH   3   6
ENDBRANCH   1   2
BRANCH   1  15
HETATM   15  C   UNL     1       7.339  28.273  55.064  1.00  0.00     0.142 C 
BRANCH  15  16
HETATM   16  N   UNL     1       7.570  26.933  54.553  1.00  0.00    -0.355 N 
HETATM   17  C   UNL     1       7.065  25.825  55.196  1.00  0.00     0.251 C 
HETATM   18  O   UNL     1       6.410  25.887  56.229  1.00  0.00    -0.268 OA
HETATM   19  H   UNL     1       8.267  26.832  53.829  1.00  0.00     0.162 HD
BRANCH  17  20
HETATM   20  C   UNL     1       7.381  24.499  54.591  1.00  0.00     0.033 A 
HETATM   21  C   UNL     1       7.374  23.373  55.426  1.00  0.00     0.042 A 
HETATM   22  C   UNL     1       7.650  22.105  54.904  1.00  0.00     0.056 A 
HETATM   23 CL   UNL     1       7.631  20.764  55.993  1.00  0.00    -0.083 Cl
HETATM   24  C   UNL     1       7.927  21.957  53.540  1.00  0.00     0.055 A 
HETATM   25 CL   UNL     1       8.276  20.424  52.824  1.00  0.00    -0.083 Cl
HETATM   26  C   UNL     1       7.920  23.077  52.704  1.00  0.00     0.026 A 
HETATM   27  C   UNL     1       7.643  24.345  53.224  1.00  0.00     0.019 A 
ENDBRANCH  17  20
ENDBRANCH  15  16
ENDBRANCH   1  15
TORSDOF 6
ENDMDL
MODEL 3
REMARK VINA RESULT:      -8.6      4.569      8.177
REMARK  6 active torsions:
REMARK  status: ('A' for Active; 'I' for Inactive)
REMARK    1  A    between atoms: C_2  and  C_3 
REMARK    2  A    between atoms: C_7  and  C_8 
REMARK       I    between atoms: C_8  and  N_9 
REMARK    3  A    between atoms: N_9  and  C_10 
REMARK    4  A    between atoms: C_10  and  C_11 
REMARK    5  A    between atoms: C_11  and  N_12 
REMARK       I    between atoms: N_12  and  C_13 
REMARK    6  A    between atoms: C_13  and  C_14 
ROOT
HETATM    1  C   UNL     1       5.771  28.315  53.259  1.00  0.00     0.142 C 
ENDROOT
BRANCH   1   2
HETATM    2  N   UNL     1       5.288  28.013  51.931  1.00  0.00    -0.354 N 
HETATM    3  C   UNL     1       5.463  28.865  50.863  1.00  0.00     0.272 C 
HETATM    4  O   UNL     1       5.987  29.971  50.960  1.00  0.00    -0.266 OA
HETATM    5  H   UNL     1       4.901  27.099  51.708  1.00  0.00     0.162 HD
BRANCH   3   6
HETATM    6  C   UNL     1       4.985  28.308  49.588  1.00  0.00     0.146 A 
HETATM    7  N   UNL     1       5.696  28.417  48.446  1.00  0.00    -0.169 NA
HETATM    8  N   UNL     1       4.933  27.804  47.526  1.00  0.00    -0.281 N 
HETATM    9  C   UNL     1       3.757  27.308  48.019  1.00  0.00     0.033 A 
HETATM   10  H   UNL     1       5.276  27.761  46.572  1.00  0.00     0.189 HD
HETATM   11  C   UNL     1       3.767  27.619  49.362  1.00  0.00     0.066 A 
BRANCH   9  12
HETATM   12  C   UNL     1       2.765  26.593  47.155  1.00  0.00     0.029 C 
HETATM   13  C   UNL     1       1.333  26.997  47.511  1.00  0.00     0.016 C 
HETATM   14  C   UNL     1       2.942  25.078  47.264  1.00  0.00     0.016 C 
ENDBRANCH   9  12
ENDBRANCH   3   6
ENDBRANCH   1   2
BRANCH   1  15
HETATM   15  C   UNL     1       7.239  27.916  53.450  1.00  0.00     0.142 C 
BRANCH  15  16
HETATM   16  N   UNL     1       7.393  26.585  54.012  1.00  0.00    -0.355 N 
HETATM   17  C   UNL     1       7.489  25.473  53.204  1.00  0.00     0.251 C 
HETATM   18  O   UNL     1       7.440  25.525  51.981  1.00  0.00    -0.268 OA
HETATM   19  H   UNL     1       7.233  26.484  55.004  1.00  0.00     0.162 HD
BRANCH  17  20
HETATM   20  C   UNL     1       7.625  24.157  53.890  1.00  0.00     0.033 A 
HETATM   21  C   UNL     1       7.846  23.019  53.102  1.00  0.00     0.042 A 
HETATM   22  C   UNL     1       7.994  21.764  53.699  1.00  0.00     0.056 A 
HETATM   23 CL   UNL     1       8.257  20.405  52.664  1.00  0.00    -0.083 Cl
HETATM   24  C   UNL     1       7.930  21.641  55.092  1.00  0.00     0.055 A 
HETATM   25 CL   UNL     1       8.105  20.124  55.900  1.00  0.00    -0.083 Cl
HETATM   26  C   UNL     1       7.724  22.776  55.881  1.00  0.00     0.026 A 
HETATM   27  C   UNL     1       7.577  24.033  55.285  1.00  0.00     0.019 A 
ENDBRANCH  17  20
ENDBRANCH  15  16
ENDBRANCH   1  15
TORSDOF 6
ENDMDL
MODEL 4
REMARK VINA RESULT:      -8.6      1.997      2.884
REMARK  6 active torsions:
REMARK  status: ('A' for Active; 'I' for Inactive)
REMARK    1  A    between atoms: C_2  and  C_3 
REMARK    2  A    between atoms: C_7  and  C_8 
REMARK       I    between atoms: C_8  and  N_9 
REMARK    3  A    between atoms: N_9  and  C_10 
REMARK    4  A    between atoms: C_10  and  C_11 
REMARK    5  A    between atoms: C_11  and  N_12 
REMARK       I    between atoms: N_12  and  C_13 
REMARK    6  A    between atoms: C_13  and  C_14 
ROOT
HETATM    1  C   UNL     1       4.534  27.514  53.587  1.00  0.00     0.142 C 
ENDROOT
BRANCH   1   2
HETATM    2  N   UNL     1       5.475  28.116  54.504  1.00  0.00    -0.354 N 
HETATM    3  C   UNL     1       5.780  27.564  55.728  1.00  0.00     0.272 C 
HETATM    4  O   UNL     1       5.238  26.554  56.167  1.00  0.00    -0.266 OA
HETATM    5  H   UNL     1       6.041  28.915  54.226  1.00  0.00     0.162 HD
BRANCH   3   6
HETATM    6  C   UNL     1       6.839  28.288  56.447  1.00  0.00     0.146 A 
HETATM    7  N   UNL     1       6.840  28.410  57.792  1.00  0.00    -0.169 NA
HETATM    8  N   UNL     1       7.941  29.132  58.054  1.00  0.00    -0.281 N 
HETATM    9  C   UNL     1       8.652  29.490  56.941  1.00  0.00     0.033 A 
HETATM   10  H   UNL     1       8.151  29.350  59.023  1.00  0.00     0.189 HD
HETATM   11  C   UNL     1       7.957  28.949  55.879  1.00  0.00     0.066 A 
BRANCH   9  12
HETATM   12  C   UNL     1       9.908  30.299  57.019  1.00  0.00     0.029 C 
HETATM   13  C   UNL     1      11.146  29.409  56.887  1.00  0.00     0.016 C 
HETATM   14  C   UNL     1       9.957  31.103  58.318  1.00  0.00     0.016 C 
ENDBRANCH   9  12
ENDBRANCH   3   6
ENDBRANCH   1   2
BRANCH   1  15
HETATM   15  C   UNL     1       5.219  26.596  52.568  1.00  0.00     0.142 C 
BRANCH  15  16
HETATM   16  N   UNL     1       5.836  25.433  53.183  1.00  0.00    -0.355 N 
HETATM   17  C   UNL     1       7.190  25.387  53.430  1.00  0.00     0.251 C 
HETATM   18  O   UNL     1       7.956  26.300  53.146  1.00  0.00    -0.268 OA
HETATM   19  H   UNL     1       5.276  24.594  53.242  1.00  0.00     0.162 HD
BRANCH  17  20
HETATM   20  C   UNL     1       7.716  24.136  54.048  1.00  0.00     0.033 A 
HETATM   21  C   UNL     1       7.778  22.982  53.255  1.00  0.00     0.042 A 
HETATM   22  C   UNL     1       8.277  21.788  53.783  1.00  0.00     0.056 A 
HETATM   23 CL   UNL     1       8.317  20.404  52.749  1.00  0.00    -0.083 Cl
HETATM   24  C   UNL     1       8.723  21.744  55.109  1.00  0.00     0.055 A 
HETATM   25 CL   UNL     1       9.352  20.306  55.831  1.00  0.00    -0.083 Cl
HETATM   26  C   UNL     1       8.675  22.897  55.897  1.00  0.00     0.026 A 
HETATM   27  C   UNL     1       8.178  24.093  55.369  1.00  0.00     0.019 A 
ENDBRANCH  17  20
ENDBRANCH  15  16
ENDBRANCH   1  15
TORSDOF 6
ENDMDL
MODEL 5
REMARK VINA RESULT:      -8.6      4.159      7.458
REMARK  6 active torsions:
REMARK  status: ('A' for Active; 'I' for Inactive)
REMARK    1  A    between atoms: C_2  and  C_3 
REMARK    2  A    between atoms: C_7  and  C_8 
REMARK       I    between atoms: C_8  and  N_9 
REMARK    3  A    between atoms: N_9  and  C_10 
REMARK    4  A    between atoms: C_10  and  C_11 
REMARK    5  A    between atoms: C_11  and  N_12 
REMARK       I    between atoms: N_12  and  C_13 
REMARK    6  A    between atoms: C_13  and  C_14 
ROOT
HETATM    1  C   UNL     1       4.621  28.036  55.632  1.00  0.00     0.142 C 
ENDROOT
BRANCH   1   2
HETATM    2  N   UNL     1       4.418  27.592  54.272  1.00  0.00    -0.354 N 
HETATM    3  C   UNL     1       5.332  27.823  53.268  1.00  0.00     0.272 C 
HETATM    4  O   UNL     1       6.360  28.473  53.428  1.00  0.00    -0.266 OA
HETATM    5  H   UNL     1       3.640  26.983  54.030  1.00  0.00     0.162 HD
BRANCH   3   6
HETATM    6  C   UNL     1       4.967  27.191  51.991  1.00  0.00     0.146 A 
HETATM    7  N   UNL     1       4.966  25.851  51.828  1.00  0.00    -0.169 NA
HETATM    8  N   UNL     1       4.595  25.677  50.549  1.00  0.00    -0.281 N 
HETATM    9  C   UNL     1       4.361  26.844  49.873  1.00  0.00     0.033 A 
HETATM   10  H   UNL     1       4.521  24.729  50.197  1.00  0.00     0.189 HD
HETATM   11  C   UNL     1       4.592  27.847  50.791  1.00  0.00     0.066 A 
BRANCH   9  12
HETATM   12  C   UNL     1       3.941  26.867  48.437  1.00  0.00     0.029 C 
HETATM   13  C   UNL     1       3.335  25.526  48.018  1.00  0.00     0.016 C 
HETATM   14  C   UNL     1       5.118  27.233  47.532  1.00  0.00     0.016 C 
ENDBRANCH   9  12
ENDBRANCH   3   6
ENDBRANCH   1   2
BRANCH   1  15
HETATM   15  C   UNL     1       5.557  27.107  56.415  1.00  0.00     0.142 C 
BRANCH  15  16
HETATM   16  N   UNL     1       5.992  25.959  55.637  1.00  0.00    -0.355 N 
HETATM   17  C   UNL     1       6.818  24.999  56.178  1.00  0.00     0.251 C 
HETATM   18  O   UNL     1       7.245  25.049  57.325  1.00  0.00    -0.268 OA
HETATM   19  H   UNL     1       5.828  25.991  54.641  1.00  0.00     0.162 HD
BRANCH  17  20
HETATM   20  C   UNL     1       7.215  23.875  55.282  1.00  0.00     0.033 A 
HETATM   21  C   UNL     1       7.551  22.648  55.870  1.00  0.00     0.042 A 
HETATM   22  C   UNL     1       7.916  21.560  55.072  1.00  0.00     0.056 A 
HETATM   23 CL   UNL     1       8.324  20.080  55.865  1.00  0.00    -0.083 Cl
HETATM   24  C   UNL     1       7.941  21.692  53.679  1.00  0.00     0.055 A 
HETATM   25 CL   UNL     1       8.381  20.392  52.629  1.00  0.00    -0.083 Cl
HETATM   26  C   UNL     1       7.592  22.911  53.090  1.00  0.00     0.026 A 
HETATM   27  C   UNL     1       7.225  24.000  53.887  1.00  0.00     0.019 A 
ENDBRANCH  17  20
ENDBRANCH  15  16
ENDBRANCH   1  15
TORSDOF 6
ENDMDL
MODEL 6
REMARK VINA RESULT:      -8.6      1.813      2.333
REMARK  6 active torsions:
REMARK  status: ('A' for Active; 'I' for Inactive)
REMARK    1  A    between atoms: C_2  and  C_3 
REMARK    2  A    between atoms: C_7  and  C_8 
REMARK       I    between atoms: C_8  and  N_9 
REMARK    3  A    between atoms: N_9  and  C_10 
REMARK    4  A    between atoms: C_10  and  C_11 
REMARK    5  A    between atoms: C_11  and  N_12 
REMARK       I    between atoms: N_12  and  C_13 
REMARK    6  A    between atoms: C_13  and  C_14 
ROOT
HETATM    1  C   UNL     1       5.719  28.902  54.919  1.00  0.00     0.142 C 
ENDROOT
BRANCH   1   2
HETATM    2  N   UNL     1       6.617  29.423  55.925  1.00  0.00    -0.354 N 
HETATM    3  C   UNL     1       7.913  28.980  56.069  1.00  0.00     0.272 C 
HETATM    4  O   UNL     1       8.393  28.069  55.401  1.00  0.00    -0.266 OA
HETATM    5  H   UNL     1       6.360  30.228  56.491  1.00  0.00     0.162 HD
BRANCH   3   6
HETATM    6  C   UNL     1       8.674  29.723  57.085  1.00  0.00     0.146 A 
HETATM    7  N   UNL     1       9.970  30.057  56.908  1.00  0.00    -0.169 NA
HETATM    8  N   UNL     1      10.298  30.704  58.038  1.00  0.00    -0.281 N 
HETATM    9  C   UNL     1       9.275  30.800  58.942  1.00  0.00     0.033 A 
HETATM   10  H   UNL     1      11.245  31.057  58.130  1.00  0.00     0.189 HD
HETATM   11  C   UNL     1       8.203  30.172  58.344  1.00  0.00     0.066 A 
BRANCH   9  12
HETATM   12  C   UNL     1       9.437  31.481  60.265  1.00  0.00     0.029 C 
HETATM   13  C   UNL     1       9.293  30.485  61.418  1.00  0.00     0.016 C 
HETATM   14  C   UNL     1       8.436  32.626  60.413  1.00  0.00     0.016 C 
ENDBRANCH   9  12
ENDBRANCH   3   6
ENDBRANCH   1   2
BRANCH   1  15
HETATM   15  C   UNL     1       5.023  27.613  55.372  1.00  0.00     0.142 C 
BRANCH  15  16
HETATM   16  N   UNL     1       5.623  26.418  54.805  1.00  0.00    -0.355 N 
HETATM   17  C   UNL     1       6.191  25.452  55.607  1.00  0.00     0.251 C 
HETATM   18  O   UNL     1       6.240  25.536  56.828  1.00  0.00    -0.268 OA
HETATM   19  H   UNL     1       5.781  26.413  53.807  1.00  0.00     0.162 HD
BRANCH  17  20
HETATM   20  C   UNL     1       6.794  24.277  54.915  1.00  0.00     0.033 A 
HETATM   21  C   UNL     1       7.180  23.177  55.693  1.00  0.00     0.042 A 
HETATM   22  C   UNL     1       7.737  22.046  55.090  1.00  0.00     0.056 A 
HETATM   23 CL   UNL     1       8.195  20.731  56.112  1.00  0.00    -0.083 Cl
HETATM   24  C   UNL     1       7.906  22.007  53.701  1.00  0.00     0.055 A 
HETATM   25 CL   UNL     1       8.586  20.644  52.885  1.00  0.00    -0.083 Cl
HETATM   26  C   UNL     1       7.509  23.098  52.922  1.00  0.00     0.026 A 
HETATM   27  C   UNL     1       6.950  24.229  53.523  1.00  0.00     0.019 A 
ENDBRANCH  17  20
ENDBRANCH  15  16
ENDBRANCH   1  15
TORSDOF 6
ENDMDL
MODEL 7
REMARK VINA RESULT:      -8.6      5.215     10.245
REMARK  6 active torsions:
REMARK  status: ('A' for Active; 'I' for Inactive)
REMARK    1  A    between atoms: C_2  and  C_3 
REMARK    2  A    between atoms: C_7  and  C_8 
REMARK       I    between atoms: C_8  and  N_9 
REMARK    3  A    between atoms: N_9  and  C_10 
REMARK    4  A    between atoms: C_10  and  C_11 
REMARK    5  A    between atoms: C_11  and  N_12 
REMARK       I    between atoms: N_12  and  C_13 
REMARK    6  A    between atoms: C_13  and  C_14 
ROOT
HETATM    1  C   UNL     1       7.187  28.935  57.775  1.00  0.00     0.142 C 
ENDROOT
BRANCH   1   2
HETATM    2  N   UNL     1       7.481  27.538  57.552  1.00  0.00    -0.354 N 
HETATM    3  C   UNL     1       7.510  26.973  56.296  1.00  0.00     0.272 C 
HETATM    4  O   UNL     1       7.231  27.590  55.272  1.00  0.00    -0.266 OA
HETATM    5  H   UNL     1       7.797  26.939  58.312  1.00  0.00     0.162 HD
BRANCH   3   6
HETATM    6  C   UNL     1       7.933  25.565  56.299  1.00  0.00     0.146 A 
HETATM    7  N   UNL     1       8.500  24.988  57.380  1.00  0.00    -0.169 NA
HETATM    8  N   UNL     1       8.746  23.728  56.988  1.00  0.00    -0.281 N 
HETATM    9  C   UNL     1       8.370  23.462  55.699  1.00  0.00     0.033 A 
HETATM   10  H   UNL     1       9.177  23.095  57.653  1.00  0.00     0.189 HD
HETATM   11  C   UNL     1       7.833  24.642  55.228  1.00  0.00     0.066 A 
BRANCH   9  12
HETATM   12  C   UNL     1       8.562  22.118  55.070  1.00  0.00     0.029 C 
HETATM   13  C   UNL     1       8.149  22.135  53.597  1.00  0.00     0.016 C 
HETATM   14  C   UNL     1       7.787  21.044  55.835  1.00  0.00     0.016 C 
ENDBRANCH   9  12
ENDBRANCH   3   6
ENDBRANCH   1   2
BRANCH   1  15
HETATM   15  C   UNL     1       8.328  29.662  58.498  1.00  0.00     0.142 C 
BRANCH  15  16
HETATM   16  N   UNL     1       7.905  30.274  59.746  1.00  0.00    -0.355 N 
HETATM   17  C   UNL     1       8.144  31.605  60.009  1.00  0.00     0.251 C 
HETATM   18  O   UNL     1       8.729  32.348  59.230  1.00  0.00    -0.268 OA
HETATM   19  H   UNL     1       7.607  29.652  60.484  1.00  0.00     0.162 HD
BRANCH  17  20
HETATM   20  C   UNL     1       7.682  32.121  61.329  1.00  0.00     0.033 A 
HETATM   21  C   UNL     1       6.340  32.503  61.456  1.00  0.00     0.042 A 
HETATM   22  C   UNL     1       5.855  32.980  62.678  1.00  0.00     0.056 A 
HETATM   23 CL   UNL     1       4.191  33.439  62.759  1.00  0.00    -0.083 Cl
HETATM   24  C   UNL     1       6.710  33.071  63.782  1.00  0.00     0.055 A 
HETATM   25 CL   UNL     1       6.183  33.651  65.321  1.00  0.00    -0.083 Cl
HETATM   26  C   UNL     1       8.046  32.677  63.659  1.00  0.00     0.026 A 
HETATM   27  C   UNL     1       8.532  32.199  62.439  1.00  0.00     0.019 A 
ENDBRANCH  17  20
ENDBRANCH  15  16
ENDBRANCH   1  15
TORSDOF 6
ENDMDL
MODEL 8
REMARK VINA RESULT:      -8.5      5.072      9.991
REMARK  6 active torsions:
REMARK  status: ('A' for Active; 'I' for Inactive)
REMARK    1  A    between atoms: C_2  and  C_3 
REMARK    2  A    between atoms: C_7  and  C_8 
REMARK       I    between atoms: C_8  and  N_9 
REMARK    3  A    between atoms: N_9  and  C_10 
REMARK    4  A    between atoms: C_10  and  C_11 
REMARK    5  A    between atoms: C_11  and  N_12 
REMARK       I    between atoms: N_12  and  C_13 
REMARK    6  A    between atoms: C_13  and  C_14 
ROOT
HETATM    1  C   UNL     1       6.513  27.630  57.235  1.00  0.00     0.142 C 
ENDROOT
BRANCH   1   2
HETATM    2  N   UNL     1       6.844  26.502  56.395  1.00  0.00    -0.354 N 
HETATM    3  C   UNL     1       7.642  25.463  56.822  1.00  0.00     0.272 C 
HETATM    4  O   UNL     1       8.185  25.437  57.922  1.00  0.00    -0.266 OA
HETATM    5  H   UNL     1       6.399  26.373  55.489  1.00  0.00     0.162 HD
BRANCH   3   6
HETATM    6  C   UNL     1       7.758  24.375  55.839  1.00  0.00     0.146 A 
HETATM    7  N   UNL     1       7.952  24.613  54.524  1.00  0.00    -0.169 NA
HETATM    8  N   UNL     1       7.992  23.389  53.973  1.00  0.00    -0.281 N 
HETATM    9  C   UNL     1       7.828  22.368  54.869  1.00  0.00     0.033 A 
HETATM   10  H   UNL     1       8.135  23.320  52.971  1.00  0.00     0.189 HD
HETATM   11  C   UNL     1       7.677  22.983  56.094  1.00  0.00     0.066 A 
BRANCH   9  12
HETATM   12  C   UNL     1       7.837  20.930  54.455  1.00  0.00     0.029 C 
HETATM   13  C   UNL     1       8.722  20.096  55.384  1.00  0.00     0.016 C 
HETATM   14  C   UNL     1       8.292  20.785  53.003  1.00  0.00     0.016 C 
ENDBRANCH   9  12
ENDBRANCH   3   6
ENDBRANCH   1   2
BRANCH   1  15
HETATM   15  C   UNL     1       7.712  28.558  57.461  1.00  0.00     0.142 C 
BRANCH  15  16
HETATM   16  N   UNL     1       7.624  29.299  58.708  1.00  0.00    -0.355 N 
HETATM   17  C   UNL     1       8.462  30.360  58.972  1.00  0.00     0.251 C 
HETATM   18  O   UNL     1       9.331  30.739  58.196  1.00  0.00    -0.268 OA
HETATM   19  H   UNL     1       7.066  28.892  59.445  1.00  0.00     0.162 HD
BRANCH  17  20
HETATM   20  C   UNL     1       8.294  31.034  60.291  1.00  0.00     0.033 A 
HETATM   21  C   UNL     1       7.331  32.047  60.398  1.00  0.00     0.042 A 
HETATM   22  C   UNL     1       7.126  32.700  61.617  1.00  0.00     0.056 A 
HETATM   23 CL   UNL     1       5.926  33.942  61.673  1.00  0.00    -0.083 Cl
HETATM   24  C   UNL     1       7.880  32.338  62.739  1.00  0.00     0.055 A 
HETATM   25 CL   UNL     1       7.682  33.099  64.277  1.00  0.00    -0.083 Cl
HETATM   26  C   UNL     1       8.832  31.319  62.637  1.00  0.00     0.026 A 
HETATM   27  C   UNL     1       9.037  30.664  61.419  1.00  0.00     0.019 A 
ENDBRANCH  17  20
ENDBRANCH  15  16
ENDBRANCH   1  15
TORSDOF 6
ENDMDL
MODEL 9
REMARK VINA RESULT:      -8.4      2.299      3.585
REMARK  6 active torsions:
REMARK  status: ('A' for Active; 'I' for Inactive)
REMARK    1  A    between atoms: C_2  and  C_3 
REMARK    2  A    between atoms: C_7  and  C_8 
REMARK       I    between atoms: C_8  and  N_9 
REMARK    3  A    between atoms: N_9  and  C_10 
REMARK    4  A    between atoms: C_10  and  C_11 
REMARK    5  A    between atoms: C_11  and  N_12 
REMARK       I    between atoms: N_12  and  C_13 
REMARK    6  A    between atoms: C_13  and  C_14 
ROOT
HETATM    1  C   UNL     1       5.281  27.340  51.970  1.00  0.00     0.142 C 
ENDROOT
BRANCH   1   2
HETATM    2  N   UNL     1       6.073  27.601  53.150  1.00  0.00    -0.354 N 
HETATM    3  C   UNL     1       5.513  27.848  54.384  1.00  0.00     0.272 C 
HETATM    4  O   UNL     1       4.303  27.926  54.573  1.00  0.00    -0.266 OA
HETATM    5  H   UNL     1       7.085  27.494  53.137  1.00  0.00     0.162 HD
BRANCH   3   6
HETATM    6  C   UNL     1       6.508  27.981  55.459  1.00  0.00     0.146 A 
HETATM    7  N   UNL     1       6.386  27.327  56.634  1.00  0.00    -0.169 NA
HETATM    8  N   UNL     1       7.465  27.712  57.336  1.00  0.00    -0.281 N 
HETATM    9  C   UNL     1       8.276  28.591  56.672  1.00  0.00     0.033 A 
HETATM   10  H   UNL     1       7.587  27.336  58.270  1.00  0.00     0.189 HD
HETATM   11  C   UNL     1       7.678  28.781  55.444  1.00  0.00     0.066 A 
BRANCH   9  12
HETATM   12  C   UNL     1       9.527  29.143  57.282  1.00  0.00     0.029 C 
HETATM   13  C   UNL     1       9.202  30.168  58.371  1.00  0.00     0.016 C 
HETATM   14  C   UNL     1      10.428  29.759  56.212  1.00  0.00     0.016 C 
ENDBRANCH   9  12
ENDBRANCH   3   6
ENDBRANCH   1   2
BRANCH   1  15
HETATM   15  C   UNL     1       5.731  26.072  51.234  1.00  0.00     0.142 C 
BRANCH  15  16
HETATM   16  N   UNL     1       6.123  25.005  52.139  1.00  0.00    -0.355 N 
HETATM   17  C   UNL     1       7.441  24.809  52.488  1.00  0.00     0.251 C 
HETATM   18  O   UNL     1       8.358  25.499  52.060  1.00  0.00    -0.268 OA
HETATM   19  H   UNL     1       5.428  24.301  52.346  1.00  0.00     0.162 HD
BRANCH  17  20
HETATM   20  C   UNL     1       7.728  23.673  53.409  1.00  0.00     0.033 A 
HETATM   21  C   UNL     1       7.956  23.958  54.762  1.00  0.00     0.042 A 
HETATM   22  C   UNL     1       8.216  22.925  55.667  1.00  0.00     0.056 A 
HETATM   23 CL   UNL     1       8.494  23.353  57.318  1.00  0.00    -0.083 Cl
HETATM   24  C   UNL     1       8.243  21.598  55.224  1.00  0.00     0.055 A 
HETATM   25 CL   UNL     1       8.557  20.271  56.284  1.00  0.00    -0.083 Cl
HETATM   26  C   UNL     1       8.002  21.310  53.878  1.00  0.00     0.026 A 
HETATM   27  C   UNL     1       7.740  22.342  52.971  1.00  0.00     0.019 A 
ENDBRANCH  17  20
ENDBRANCH  15  16
ENDBRANCH   1  15
TORSDOF 6
ENDMDL
MODEL 10
REMARK VINA RESULT:      -8.3      4.858      9.321
REMARK  6 active torsions:
REMARK  status: ('A' for Active; 'I' for Inactive)
REMARK    1  A    between atoms: C_2  and  C_3 
REMARK    2  A    between atoms: C_7  and  C_8 
REMARK       I    between atoms: C_8  and  N_9 
REMARK    3  A    between atoms: N_9  and  C_10 
REMARK    4  A    between atoms: C_10  and  C_11 
REMARK    5  A    between atoms: C_11  and  N_12 
REMARK       I    between atoms: N_12  and  C_13 
REMARK    6  A    between atoms: C_13  and  C_14 
ROOT
HETATM    1  C   UNL     1       6.692  29.629  56.039  1.00  0.00     0.142 C 
ENDROOT
BRANCH   1   2
HETATM    2  N   UNL     1       6.989  28.216  56.095  1.00  0.00    -0.354 N 
HETATM    3  C   UNL     1       7.671  27.638  57.143  1.00  0.00     0.272 C 
HETATM    4  O   UNL     1       8.133  28.278  58.083  1.00  0.00    -0.266 OA
HETATM    5  H   UNL     1       6.599  27.570  55.413  1.00  0.00     0.162 HD
BRANCH   3   6
HETATM    6  C   UNL     1       7.767  26.174  57.040  1.00  0.00     0.146 A 
HETATM    7  N   UNL     1       8.301  25.419  58.024  1.00  0.00    -0.169 NA
HETATM    8  N   UNL     1       8.218  24.164  57.555  1.00  0.00    -0.281 N 
HETATM    9  C   UNL     1       7.660  24.070  56.309  1.00  0.00     0.033 A 
HETATM   10  H   UNL     1       8.565  23.410  58.139  1.00  0.00     0.189 HD
HETATM   11  C   UNL     1       7.353  25.367  55.951  1.00  0.00     0.066 A 
BRANCH   9  12
HETATM   12  C   UNL     1       7.480  22.760  55.608  1.00  0.00     0.029 C 
HETATM   13  C   UNL     1       8.301  21.658  56.281  1.00  0.00     0.016 C 
HETATM   14  C   UNL     1       7.848  22.880  54.129  1.00  0.00     0.016 C 
ENDBRANCH   9  12
ENDBRANCH   3   6
ENDBRANCH   1   2
BRANCH   1  15
HETATM   15  C   UNL     1       5.504  30.010  56.930  1.00  0.00     0.142 C 
BRANCH  15  16
HETATM   16  N   UNL     1       5.909  30.441  58.257  1.00  0.00    -0.355 N 
HETATM   17  C   UNL     1       6.046  31.777  58.565  1.00  0.00     0.251 C 
HETATM   18  O   UNL     1       5.852  32.676  57.757  1.00  0.00    -0.268 OA
HETATM   19  H   UNL     1       6.270  29.732  58.879  1.00  0.00     0.162 HD
BRANCH  17  20
HETATM   20  C   UNL     1       6.485  32.102  59.952  1.00  0.00     0.033 A 
HETATM   21  C   UNL     1       7.573  31.398  60.485  1.00  0.00     0.042 A 
HETATM   22  C   UNL     1       8.032  31.676  61.776  1.00  0.00     0.056 A 
HETATM   23 CL   UNL     1       9.374  30.763  62.368  1.00  0.00    -0.083 Cl
HETATM   24  C   UNL     1       7.406  32.667  62.540  1.00  0.00     0.055 A 
HETATM   25 CL   UNL     1       7.916  33.067  64.142  1.00  0.00    -0.083 Cl
HETATM   26  C   UNL     1       6.329  33.381  62.006  1.00  0.00     0.026 A 
HETATM   27  C   UNL     1       5.871  33.104  60.714  1.00  0.00     0.019 A 
ENDBRANCH  17  20
ENDBRANCH  15  16
ENDBRANCH   1  15
TORSDOF 6
ENDMDL
