MODEL 1
REMARK VINA RESULT:      -9.5      0.000      0.000
REMARK  5 active torsions:
REMARK  status: ('A' for Active; 'I' for Inactive)
REMARK    1  A    between atoms: C_3  and  C_4 
REMARK    2  A    between atoms: N_7  and  C_9 
REMARK    3  A    between atoms: C_9  and  C_10 
REMARK    4  A    between atoms: C_21  and  C_22 
REMARK    5  A    between atoms: C_22  and  N_23 
ROOT
HETATM    1  C   UNL     1       8.095  28.466  54.326  1.00  0.00     0.159 C 
HETATM    2  N   UNL     1       7.185  27.464  54.855  1.00  0.00    -0.323 N 
HETATM    3  C   UNL     1       6.703  27.250  56.635  1.00  0.00     0.134 A 
HETATM    4  N   UNL     1       5.462  26.130  56.694  1.00  0.00    -0.134 NA
HETATM    5  N   UNL     1       5.132  25.677  54.833  1.00  0.00    -0.133 NA
HETATM    6  C   UNL     1       6.130  26.454  53.832  1.00  0.00     0.155 A 
ENDROOT
BRANCH   3   7
HETATM    7  C   UNL     1       7.086  28.210  57.548  1.00  0.00     0.060 C 
HETATM    8  C   UNL     1       5.858  28.725  56.690  1.00  0.00     0.040 C 
HETATM    9  C   UNL     1       5.284  27.370  55.512  1.00  0.00     0.236 C 
HETATM   10  N   UNL     1       6.866  25.741  55.580  1.00  0.00    -0.067 N 
HETATM   11  H   UNL     1       7.331  25.454  54.725  1.00  0.00     0.280 HD
HETATM   12  C   UNL     1       8.395  25.962  56.657  1.00  0.00     0.236 C 
HETATM   13  C   UNL     1       8.481  27.502  57.301  1.00  0.00     0.040 C 
BRANCH  10  14
HETATM   14  C   UNL     1       6.482  24.097  56.043  1.00  0.00     0.273 C 
BRANCH  14  15
HETATM   15  C   UNL     1       7.343  23.094  55.293  1.00  0.00    -0.030 A 
HETATM   16  C   UNL     1       8.255  22.246  55.937  1.00  0.00     0.051 A 
HETATM   17  C   UNL     1       9.018  21.340  55.202  1.00  0.00     0.117 A 
HETATM   18  F   UNL     1       9.846  20.518  55.857  1.00  0.00    -0.206 F 
HETATM   19  C   UNL     1       8.930  21.282  53.820  1.00  0.00     0.042 A 
HETATM   20  C   UNL     1       8.067  22.153  53.161  1.00  0.00     0.004 A 
HETATM   21  C   UNL     1       7.281  23.052  53.889  1.00  0.00     0.009 A 
ENDBRANCH  14  15
ENDBRANCH  10  14
ENDBRANCH   3   7
BRANCH   6  22
HETATM   22  C   UNL     1       6.275  26.283  52.347  1.00  0.00     0.315 C 
BRANCH  22  23
HETATM   23  N   UNL     1       5.610  27.307  51.414  1.00  0.00    -0.064 N 
HETATM   24  H   UNL     1       6.328  27.996  51.155  1.00  0.00     0.280 HD
HETATM   25  C   UNL     1       5.216  26.579  50.133  1.00  0.00     0.235 C 
HETATM   26  C   UNL     1       4.656  27.482  49.043  1.00  0.00     0.028 C 
HETATM   27  C   UNL     1       3.221  27.921  49.314  1.00  0.00     0.002 C 
HETATM   28  C   UNL     1       3.098  29.177  50.163  1.00  0.00     0.002 C 
HETATM   29  C   UNL     1       4.151  29.350  51.248  1.00  0.00     0.028 C 
HETATM   30  C   UNL     1       4.466  28.090  52.046  1.00  0.00     0.235 C 
ENDBRANCH  22  23
ENDBRANCH   6  22
TORSDOF 5
ENDMDL
MODEL 2
REMARK VINA RESULT:      -9.3      2.726      6.693
REMARK  5 active torsions:
REMARK  status: ('A' for Active; 'I' for Inactive)
REMARK    1  A    between atoms: C_3  and  C_4 
REMARK    2  A    between atoms: N_7  and  C_9 
REMARK    3  A    between atoms: C_9  and  C_10 
REMARK    4  A    between atoms: C_21  and  C_22 
REMARK    5  A    between atoms: C_22  and  N_23 
ROOT
HETATM    1  C   UNL     1       5.028  25.415  56.626  1.00  0.00     0.159 C 
HETATM    2  N   UNL     1       5.846  26.244  55.757  1.00  0.00    -0.323 N 
HETATM    3  C   UNL     1       6.304  28.019  56.050  1.00  0.00     0.134 A 
HETATM    4  N   UNL     1       7.443  28.446  54.901  1.00  0.00    -0.134 NA
HETATM    5  N   UNL     1       7.735  26.816  53.883  1.00  0.00    -0.133 NA
HETATM    6  C   UNL     1       6.810  25.602  54.403  1.00  0.00     0.155 A 
ENDROOT
BRANCH   3   7
HETATM    7  C   UNL     1       6.006  28.593  57.268  1.00  0.00     0.060 C 
HETATM    8  C   UNL     1       7.232  27.601  57.412  1.00  0.00     0.040 C 
HETATM    9  C   UNL     1       7.691  26.897  55.725  1.00  0.00     0.236 C 
HETATM   10  N   UNL     1       6.023  27.491  54.301  1.00  0.00    -0.067 N 
HETATM   11  H   UNL     1       5.516  26.775  53.793  1.00  0.00     0.280 HD
HETATM   12  C   UNL     1       4.544  28.465  54.942  1.00  0.00     0.236 C 
HETATM   13  C   UNL     1       4.565  28.597  56.609  1.00  0.00     0.040 C 
BRANCH  10  14
HETATM   14  C   UNL     1       6.329  28.439  52.862  1.00  0.00     0.273 C 
BRANCH  14  15
HETATM   15  C   UNL     1       5.447  27.995  51.707  1.00  0.00    -0.030 A 
HETATM   16  C   UNL     1       4.371  28.761  51.235  1.00  0.00     0.051 A 
HETATM   17  C   UNL     1       3.595  28.310  50.170  1.00  0.00     0.117 A 
HETATM   18  F   UNL     1       2.605  29.090  49.720  1.00  0.00    -0.206 F 
HETATM   19  C   UNL     1       3.835  27.080  49.578  1.00  0.00     0.042 A 
HETATM   20  C   UNL     1       4.865  26.283  50.068  1.00  0.00     0.004 A 
HETATM   21  C   UNL     1       5.665  26.735  51.123  1.00  0.00     0.009 A 
ENDBRANCH  14  15
ENDBRANCH  10  14
ENDBRANCH   3   7
BRANCH   6  22
HETATM   22  C   UNL     1       6.653  24.232  53.805  1.00  0.00     0.315 C 
BRANCH  22  23
HETATM   23  N   UNL     1       7.646  23.130  54.206  1.00  0.00    -0.064 N 
HETATM   24  H   UNL     1       8.592  23.526  54.127  1.00  0.00     0.280 HD
HETATM   25  C   UNL     1       7.420  22.819  55.683  1.00  0.00     0.235 C 
HETATM   26  C   UNL     1       8.416  21.831  56.277  1.00  0.00     0.028 C 
HETATM   27  C   UNL     1       8.141  20.390  55.863  1.00  0.00     0.002 C 
HETATM   28  C   UNL     1       8.794  19.978  54.552  1.00  0.00     0.002 C 
HETATM   29  C   UNL     1       8.880  21.059  53.484  1.00  0.00     0.028 C 
HETATM   30  C   UNL     1       7.618  21.896  53.313  1.00  0.00     0.235 C 
ENDBRANCH  22  23
ENDBRANCH   6  22
TORSDOF 5
ENDMDL
MODEL 3
REMARK VINA RESULT:      -9.1      2.307      6.812
REMARK  5 active torsions:
REMARK  status: ('A' for Active; 'I' for Inactive)
REMARK    1  A    between atoms: C_3  and  C_4 
REMARK    2  A    between atoms: N_7  and  C_9 
REMARK    3  A    between atoms: C_9  and  C_10 
REMARK    4  A    between atoms: C_21  and  C_22 
REMARK    5  A    between atoms: C_22  and  N_23 
ROOT
HETATM    1  C   UNL     1       8.119  25.333  52.312  1.00  0.00     0.159 C 
HETATM    2  N   UNL     1       7.094  25.700  53.276  1.00  0.00    -0.323 N 
HETATM    3  C   UNL     1       5.441  26.450  52.887  1.00  0.00     0.134 A 
HETATM    4  N   UNL     1       4.542  26.460  54.298  1.00  0.00    -0.134 NA
HETATM    5  N   UNL     1       5.699  25.612  55.611  1.00  0.00    -0.133 NA
HETATM    6  C   UNL     1       7.128  25.202  54.987  1.00  0.00     0.155 A 
ENDROOT
BRANCH   3   7
HETATM    7  C   UNL     1       5.039  26.529  51.570  1.00  0.00     0.060 C 
HETATM    8  C   UNL     1       4.916  25.040  52.095  1.00  0.00     0.040 C 
HETATM    9  C   UNL     1       5.378  24.962  53.920  1.00  0.00     0.236 C 
HETATM   10  N   UNL     1       6.281  26.980  54.446  1.00  0.00    -0.067 N 
HETATM   11  H   UNL     1       7.218  27.026  54.829  1.00  0.00     0.280 HD
HETATM   12  C   UNL     1       6.465  28.300  53.116  1.00  0.00     0.236 C 
HETATM   13  C   UNL     1       6.101  27.704  51.597  1.00  0.00     0.040 C 
BRANCH  10  14
HETATM   14  C   UNL     1       5.606  27.996  55.702  1.00  0.00     0.273 C 
BRANCH  14  15
HETATM   15  C   UNL     1       6.699  28.654  56.528  1.00  0.00    -0.030 A 
HETATM   16  C   UNL     1       8.056  28.331  56.386  1.00  0.00     0.051 A 
HETATM   17  C   UNL     1       9.020  28.968  57.166  1.00  0.00     0.117 A 
HETATM   18  F   UNL     1      10.308  28.664  56.971  1.00  0.00    -0.206 F 
HETATM   19  C   UNL     1       8.663  29.901  58.127  1.00  0.00     0.042 A 
HETATM   20  C   UNL     1       7.316  30.195  58.318  1.00  0.00     0.004 A 
HETATM   21  C   UNL     1       6.342  29.578  57.526  1.00  0.00     0.009 A 
ENDBRANCH  14  15
ENDBRANCH  10  14
ENDBRANCH   3   7
BRANCH   6  22
HETATM   22  C   UNL     1       8.327  24.646  55.701  1.00  0.00     0.315 C 
BRANCH  22  23
HETATM   23  N   UNL     1       8.739  23.189  55.433  1.00  0.00    -0.064 N 
HETATM   24  H   UNL     1       9.764  23.170  55.356  1.00  0.00     0.280 HD
HETATM   25  C   UNL     1       8.374  22.371  56.669  1.00  0.00     0.235 C 
HETATM   26  C   UNL     1       8.834  20.921  56.621  1.00  0.00     0.028 C 
HETATM   27  C   UNL     1       7.971  20.054  55.711  1.00  0.00     0.002 C 
HETATM   28  C   UNL     1       8.405  20.049  54.253  1.00  0.00     0.002 C 
HETATM   29  C   UNL     1       8.969  21.359  53.723  1.00  0.00     0.028 C 
HETATM   30  C   UNL     1       8.196  22.606  54.135  1.00  0.00     0.235 C 
ENDBRANCH  22  23
ENDBRANCH   6  22
TORSDOF 5
ENDMDL
MODEL 4
REMARK VINA RESULT:      -8.8      2.067      5.625
REMARK  5 active torsions:
REMARK  status: ('A' for Active; 'I' for Inactive)
REMARK    1  A    between atoms: C_3  and  C_4 
REMARK    2  A    between atoms: N_7  and  C_9 
REMARK    3  A    between atoms: C_9  and  C_10 
REMARK    4  A    between atoms: C_21  and  C_22 
REMARK    5  A    between atoms: C_22  and  N_23 
ROOT
HETATM    1  C   UNL     1       4.707  27.726  55.807  1.00  0.00     0.159 C 
HETATM    2  N   UNL     1       5.740  27.357  54.852  1.00  0.00    -0.323 N 
HETATM    3  C   UNL     1       5.486  26.983  53.052  1.00  0.00     0.134 A 
HETATM    4  N   UNL     1       6.995  26.852  52.342  1.00  0.00    -0.134 NA
HETATM    5  N   UNL     1       8.241  27.225  53.787  1.00  0.00    -0.133 NA
HETATM    6  C   UNL     1       7.486  27.502  55.184  1.00  0.00     0.155 A 
ENDROOT
BRANCH   3   7
HETATM    7  C   UNL     1       4.251  27.227  52.488  1.00  0.00     0.060 C 
HETATM    8  C   UNL     1       5.025  28.588  52.731  1.00  0.00     0.040 C 
HETATM    9  C   UNL     1       6.746  28.235  53.413  1.00  0.00     0.236 C 
HETATM   10  N   UNL     1       6.791  26.027  53.946  1.00  0.00    -0.067 N 
HETATM   11  H   UNL     1       7.013  25.743  54.894  1.00  0.00     0.280 HD
HETATM   12  C   UNL     1       5.251  24.971  53.702  1.00  0.00     0.236 C 
HETATM   13  C   UNL     1       3.924  25.899  53.287  1.00  0.00     0.040 C 
BRANCH  10  14
HETATM   14  C   UNL     1       7.952  24.927  53.235  1.00  0.00     0.273 C 
BRANCH  14  15
HETATM   15  C   UNL     1       7.977  23.597  53.970  1.00  0.00    -0.030 A 
HETATM   16  C   UNL     1       8.203  23.497  55.350  1.00  0.00     0.051 A 
HETATM   17  C   UNL     1       8.211  22.253  55.978  1.00  0.00     0.117 A 
HETATM   18  F   UNL     1       8.387  22.202  57.303  1.00  0.00    -0.206 F 
HETATM   19  C   UNL     1       8.042  21.083  55.253  1.00  0.00     0.042 A 
HETATM   20  C   UNL     1       7.869  21.160  53.874  1.00  0.00     0.004 A 
HETATM   21  C   UNL     1       7.837  22.405  53.237  1.00  0.00     0.009 A 
ENDBRANCH  14  15
ENDBRANCH  10  14
ENDBRANCH   3   7
BRANCH   6  22
HETATM   22  C   UNL     1       8.092  27.702  56.544  1.00  0.00     0.315 C 
BRANCH  22  23
HETATM   23  N   UNL     1       8.466  29.126  56.987  1.00  0.00    -0.064 N 
HETATM   24  H   UNL     1       8.267  29.754  56.198  1.00  0.00     0.280 HD
HETATM   25  C   UNL     1       7.519  29.523  58.116  1.00  0.00     0.235 C 
HETATM   26  C   UNL     1       7.671  30.962  58.587  1.00  0.00     0.028 C 
HETATM   27  C   UNL     1       8.904  31.175  59.458  1.00  0.00     0.002 C 
HETATM   28  C   UNL     1      10.175  31.488  58.681  1.00  0.00     0.002 C 
HETATM   29  C   UNL     1      10.320  30.791  57.336  1.00  0.00     0.028 C 
HETATM   30  C   UNL     1       9.937  29.315  57.332  1.00  0.00     0.235 C 
ENDBRANCH  22  23
ENDBRANCH   6  22
TORSDOF 5
ENDMDL
MODEL 5
REMARK VINA RESULT:      -8.8      3.394      6.319
REMARK  5 active torsions:
REMARK  status: ('A' for Active; 'I' for Inactive)
REMARK    1  A    between atoms: C_3  and  C_4 
REMARK    2  A    between atoms: N_7  and  C_9 
REMARK    3  A    between atoms: C_9  and  C_10 
REMARK    4  A    between atoms: C_21  and  C_22 
REMARK    5  A    between atoms: C_22  and  N_23 
ROOT
HETATM    1  C   UNL     1       5.037  25.356  57.040  1.00  0.00     0.159 C 
HETATM    2  N   UNL     1       5.765  26.120  56.040  1.00  0.00    -0.323 N 
HETATM    3  C   UNL     1       7.177  25.506  55.004  1.00  0.00     0.134 A 
HETATM    4  N   UNL     1       7.506  26.672  53.851  1.00  0.00    -0.134 NA
HETATM    5  N   UNL     1       6.176  28.054  54.169  1.00  0.00    -0.133 NA
HETATM    6  C   UNL     1       5.217  27.698  55.416  1.00  0.00     0.155 A 
ENDROOT
BRANCH   3   7
HETATM    7  C   UNL     1       7.489  24.163  55.032  1.00  0.00     0.060 C 
HETATM    8  C   UNL     1       6.216  24.414  54.123  1.00  0.00     0.040 C 
HETATM    9  C   UNL     1       5.858  26.262  54.016  1.00  0.00     0.236 C 
HETATM   10  N   UNL     1       7.184  27.268  55.562  1.00  0.00    -0.067 N 
HETATM   11  H   UNL     1       6.766  27.840  56.288  1.00  0.00     0.280 HD
HETATM   12  C   UNL     1       8.310  26.226  56.654  1.00  0.00     0.236 C 
HETATM   13  C   UNL     1       8.018  24.591  56.462  1.00  0.00     0.040 C 
BRANCH  10  14
HETATM   14  C   UNL     1       8.349  28.499  55.121  1.00  0.00     0.273 C 
BRANCH  14  15
HETATM   15  C   UNL     1       8.800  29.295  56.335  1.00  0.00    -0.030 A 
HETATM   16  C   UNL     1       7.913  29.726  57.332  1.00  0.00     0.051 A 
HETATM   17  C   UNL     1       8.379  30.449  58.428  1.00  0.00     0.117 A 
HETATM   18  F   UNL     1       7.510  30.805  59.380  1.00  0.00    -0.206 F 
HETATM   19  C   UNL     1       9.716  30.799  58.541  1.00  0.00     0.042 A 
HETATM   20  C   UNL     1      10.601  30.424  57.534  1.00  0.00     0.004 A 
HETATM   21  C   UNL     1      10.148  29.679  56.441  1.00  0.00     0.009 A 
ENDBRANCH  14  15
ENDBRANCH  10  14
ENDBRANCH   3   7
BRANCH   6  22
HETATM   22  C   UNL     1       4.160  28.557  56.049  1.00  0.00     0.315 C 
BRANCH  22  23
HETATM   23  N   UNL     1       4.387  30.075  56.129  1.00  0.00    -0.064 N 
HETATM   24  H   UNL     1       5.346  30.258  55.808  1.00  0.00     0.280 HD
HETATM   25  C   UNL     1       3.451  30.737  55.122  1.00  0.00     0.235 C 
HETATM   26  C   UNL     1       3.641  32.241  54.982  1.00  0.00     0.028 C 
HETATM   27  C   UNL     1       3.049  33.025  56.148  1.00  0.00     0.002 C 
HETATM   28  C   UNL     1       3.992  33.201  57.329  1.00  0.00     0.002 C 
HETATM   29  C   UNL     1       4.928  32.035  57.611  1.00  0.00     0.028 C 
HETATM   30  C   UNL     1       4.282  30.657  57.533  1.00  0.00     0.235 C 
ENDBRANCH  22  23
ENDBRANCH   6  22
TORSDOF 5
ENDMDL
MODEL 6
REMARK VINA RESULT:      -8.8      2.755      7.006
REMARK  5 active torsions:
REMARK  status: ('A' for Active; 'I' for Inactive)
REMARK    1  A    between atoms: C_3  and  C_4 
REMARK    2  A    between atoms: N_7  and  C_9 
REMARK    3  A    between atoms: C_9  and  C_10 
REMARK    4  A    between atoms: C_21  and  C_22 
REMARK    5  A    between atoms: C_22  and  N_23 
ROOT
HETATM    1  C   UNL     1       7.978  25.518  52.200  1.00  0.00     0.159 C 
HETATM    2  N   UNL     1       6.801  25.792  53.008  1.00  0.00    -0.323 N 
HETATM    3  C   UNL     1       5.275  26.691  52.453  1.00  0.00     0.134 A 
HETATM    4  N   UNL     1       4.127  26.537  53.661  1.00  0.00    -0.134 NA
HETATM    5  N   UNL     1       4.989  25.429  55.006  1.00  0.00    -0.133 NA
HETATM    6  C   UNL     1       6.497  25.036  54.594  1.00  0.00     0.155 A 
ENDROOT
BRANCH   3   7
HETATM    7  C   UNL     1       5.130  26.997  51.117  1.00  0.00     0.060 C 
HETATM    8  C   UNL     1       4.882  25.451  51.358  1.00  0.00     0.040 C 
HETATM    9  C   UNL     1       4.989  25.064  53.199  1.00  0.00     0.236 C 
HETATM   10  N   UNL     1       5.814  26.927  54.206  1.00  0.00    -0.067 N 
HETATM   11  H   UNL     1       6.663  26.866  54.757  1.00  0.00     0.280 HD
HETATM   12  C   UNL     1       6.271  28.429  53.167  1.00  0.00     0.236 C 
HETATM   13  C   UNL     1       6.190  28.099  51.531  1.00  0.00     0.040 C 
BRANCH  10  14
HETATM   14  C   UNL     1       4.933  27.764  55.466  1.00  0.00     0.273 C 
BRANCH  14  15
HETATM   15  C   UNL     1       5.877  28.442  56.445  1.00  0.00    -0.030 A 
HETATM   16  C   UNL     1       5.840  29.819  56.705  1.00  0.00     0.051 A 
HETATM   17  C   UNL     1       6.726  30.391  57.617  1.00  0.00     0.117 A 
HETATM   18  F   UNL     1       6.631  31.701  57.871  1.00  0.00    -0.206 F 
HETATM   19  C   UNL     1       7.691  29.628  58.255  1.00  0.00     0.042 A 
HETATM   20  C   UNL     1       7.776  28.268  57.969  1.00  0.00     0.004 A 
HETATM   21  C   UNL     1       6.878  27.679  57.072  1.00  0.00     0.009 A 
ENDBRANCH  14  15
ENDBRANCH  10  14
ENDBRANCH   3   7
BRANCH   6  22
HETATM   22  C   UNL     1       7.523  24.305  55.412  1.00  0.00     0.315 C 
BRANCH  22  23
HETATM   23  N   UNL     1       7.554  22.769  55.364  1.00  0.00    -0.064 N 
HETATM   24  H   UNL     1       6.615  22.436  55.616  1.00  0.00     0.280 HD
HETATM   25  C   UNL     1       7.793  22.357  53.914  1.00  0.00     0.235 C 
HETATM   26  C   UNL     1       7.723  20.856  53.668  1.00  0.00     0.028 C 
HETATM   27  C   UNL     1       8.965  20.117  54.152  1.00  0.00     0.002 C 
HETATM   28  C   UNL     1       8.915  19.694  55.613  1.00  0.00     0.002 C 
HETATM   29  C   UNL     1       8.198  20.649  56.556  1.00  0.00     0.028 C 
HETATM   30  C   UNL     1       8.521  22.124  56.347  1.00  0.00     0.235 C 
ENDBRANCH  22  23
ENDBRANCH   6  22
TORSDOF 5
ENDMDL
MODEL 7
REMARK VINA RESULT:      -8.7      4.460      8.654
REMARK  5 active torsions:
REMARK  status: ('A' for Active; 'I' for Inactive)
REMARK    1  A    between atoms: C_3  and  C_4 
REMARK    2  A    between atoms: N_7  and  C_9 
REMARK    3  A    between atoms: C_9  and  C_10 
REMARK    4  A    between atoms: C_21  and  C_22 
REMARK    5  A    between atoms: C_22  and  N_23 
ROOT
HETATM    1  C   UNL     1       8.970  29.175  55.923  1.00  0.00     0.159 C 
HETATM    2  N   UNL     1       7.600  28.768  56.186  1.00  0.00    -0.323 N 
HETATM    3  C   UNL     1       6.786  27.209  55.591  1.00  0.00     0.134 A 
HETATM    4  N   UNL     1       5.301  27.088  56.352  1.00  0.00    -0.134 NA
HETATM    5  N   UNL     1       5.232  28.638  57.523  1.00  0.00    -0.133 NA
HETATM    6  C   UNL     1       6.551  29.557  57.393  1.00  0.00     0.155 A 
ENDROOT
BRANCH   3   7
HETATM    7  C   UNL     1       7.561  26.242  54.985  1.00  0.00     0.060 C 
HETATM    8  C   UNL     1       7.780  26.219  56.553  1.00  0.00     0.040 C 
HETATM    9  C   UNL     1       6.646  27.479  57.379  1.00  0.00     0.236 C 
HETATM   10  N   UNL     1       5.756  28.739  55.711  1.00  0.00    -0.067 N 
HETATM   11  H   UNL     1       5.883  29.745  55.718  1.00  0.00     0.280 HD
HETATM   12  C   UNL     1       6.253  28.416  53.923  1.00  0.00     0.236 C 
HETATM   13  C   UNL     1       7.505  27.313  53.818  1.00  0.00     0.040 C 
BRANCH  10  14
HETATM   14  C   UNL     1       4.027  28.856  55.462  1.00  0.00     0.273 C 
BRANCH  14  15
HETATM   15  C   UNL     1       3.612  30.275  55.113  1.00  0.00    -0.030 A 
HETATM   16  C   UNL     1       3.329  31.244  56.087  1.00  0.00     0.051 A 
HETATM   17  C   UNL     1       2.957  32.534  55.714  1.00  0.00     0.117 A 
HETATM   18  F   UNL     1       2.737  33.442  56.671  1.00  0.00    -0.206 F 
HETATM   19  C   UNL     1       2.816  32.883  54.380  1.00  0.00     0.042 A 
HETATM   20  C   UNL     1       3.043  31.919  53.401  1.00  0.00     0.004 A 
HETATM   21  C   UNL     1       3.437  30.627  53.763  1.00  0.00     0.009 A 
ENDBRANCH  14  15
ENDBRANCH  10  14
ENDBRANCH   3   7
BRANCH   6  22
HETATM   22  C   UNL     1       6.821  30.890  58.030  1.00  0.00     0.315 C 
BRANCH  22  23
HETATM   23  N   UNL     1       7.188  30.938  59.522  1.00  0.00    -0.064 N 
HETATM   24  H   UNL     1       6.690  30.168  59.985  1.00  0.00     0.280 HD
HETATM   25  C   UNL     1       8.679  30.633  59.642  1.00  0.00     0.235 C 
HETATM   26  C   UNL     1       9.183  30.515  61.073  1.00  0.00     0.028 C 
HETATM   27  C   UNL     1       9.337  31.866  61.763  1.00  0.00     0.002 C 
HETATM   28  C   UNL     1       8.074  32.370  62.444  1.00  0.00     0.002 C 
HETATM   29  C   UNL     1       6.764  32.030  61.749  1.00  0.00     0.028 C 
HETATM   30  C   UNL     1       6.770  32.217  60.236  1.00  0.00     0.235 C 
ENDBRANCH  22  23
ENDBRANCH   6  22
TORSDOF 5
ENDMDL
MODEL 8
REMARK VINA RESULT:      -8.6      1.484      2.138
REMARK  5 active torsions:
REMARK  status: ('A' for Active; 'I' for Inactive)
REMARK    1  A    between atoms: C_3  and  C_4 
REMARK    2  A    between atoms: N_7  and  C_9 
REMARK    3  A    between atoms: C_9  and  C_10 
REMARK    4  A    between atoms: C_21  and  C_22 
REMARK    5  A    between atoms: C_22  and  N_23 
ROOT
HETATM    1  C   UNL     1       8.766  29.303  55.159  1.00  0.00     0.159 C 
HETATM    2  N   UNL     1       7.569  28.562  55.521  1.00  0.00    -0.323 N 
HETATM    3  C   UNL     1       6.758  28.537  57.190  1.00  0.00     0.134 A 
HETATM    4  N   UNL     1       5.295  27.740  57.033  1.00  0.00    -0.134 NA
HETATM    5  N   UNL     1       5.185  27.304  55.142  1.00  0.00    -0.133 NA
HETATM    6  C   UNL     1       6.492  27.786  54.330  1.00  0.00     0.155 A 
ENDROOT
BRANCH   3   7
HETATM    7  C   UNL     1       7.197  29.416  58.158  1.00  0.00     0.060 C 
HETATM    8  C   UNL     1       6.174  30.135  57.185  1.00  0.00     0.040 C 
HETATM    9  C   UNL     1       5.510  28.899  55.926  1.00  0.00     0.236 C 
HETATM   10  N   UNL     1       6.775  27.023  56.130  1.00  0.00    -0.067 N 
HETATM   11  H   UNL     1       7.273  26.662  55.324  1.00  0.00     0.280 HD
HETATM   12  C   UNL     1       8.193  26.978  57.368  1.00  0.00     0.236 C 
HETATM   13  C   UNL     1       8.470  28.480  58.047  1.00  0.00     0.040 C 
BRANCH  10  14
HETATM   14  C   UNL     1       6.069  25.468  56.518  1.00  0.00     0.273 C 
BRANCH  14  15
HETATM   15  C   UNL     1       6.832  24.333  55.857  1.00  0.00    -0.030 A 
HETATM   16  C   UNL     1       6.708  24.027  54.494  1.00  0.00     0.051 A 
HETATM   17  C   UNL     1       7.435  22.977  53.936  1.00  0.00     0.117 A 
HETATM   18  F   UNL     1       7.322  22.743  52.623  1.00  0.00    -0.206 F 
HETATM   19  C   UNL     1       8.263  22.184  54.714  1.00  0.00     0.042 A 
HETATM   20  C   UNL     1       8.358  22.441  56.079  1.00  0.00     0.004 A 
HETATM   21  C   UNL     1       7.650  23.505  56.646  1.00  0.00     0.009 A 
ENDBRANCH  14  15
ENDBRANCH  10  14
ENDBRANCH   3   7
BRANCH   6  22
HETATM   22  C   UNL     1       6.840  27.528  52.892  1.00  0.00     0.315 C 
BRANCH  22  23
HETATM   23  N   UNL     1       5.703  27.361  51.872  1.00  0.00    -0.064 N 
HETATM   24  H   UNL     1       4.835  27.211  52.402  1.00  0.00     0.280 HD
HETATM   25  C   UNL     1       5.544  28.687  51.134  1.00  0.00     0.235 C 
HETATM   26  C   UNL     1       4.367  28.734  50.170  1.00  0.00     0.028 C 
HETATM   27  C   UNL     1       4.628  27.970  48.877  1.00  0.00     0.002 C 
HETATM   28  C   UNL     1       4.281  26.490  48.941  1.00  0.00     0.002 C 
HETATM   29  C   UNL     1       4.532  25.806  50.277  1.00  0.00     0.028 C 
HETATM   30  C   UNL     1       5.856  26.163  50.944  1.00  0.00     0.235 C 
ENDBRANCH  22  23
ENDBRANCH   6  22
TORSDOF 5
ENDMDL
MODEL 9
REMARK VINA RESULT:      -8.5      9.096     11.268
REMARK  5 active torsions:
REMARK  status: ('A' for Active; 'I' for Inactive)
REMARK    1  A    between atoms: C_3  and  C_4 
REMARK    2  A    between atoms: N_7  and  C_9 
REMARK    3  A    between atoms: C_9  and  C_10 
REMARK    4  A    between atoms: C_21  and  C_22 
REMARK    5  A    between atoms: C_22  and  N_23 
ROOT
HETATM    1  C   UNL     1       5.594  36.505  64.074  1.00  0.00     0.159 C 
HETATM    2  N   UNL     1       5.360  35.097  63.802  1.00  0.00    -0.323 N 
HETATM    3  C   UNL     1       5.318  33.730  65.057  1.00  0.00     0.134 A 
HETATM    4  N   UNL     1       4.779  32.347  64.285  1.00  0.00    -0.134 NA
HETATM    5  N   UNL     1       4.419  32.922  62.463  1.00  0.00    -0.133 NA
HETATM    6  C   UNL     1       4.763  34.481  62.239  1.00  0.00     0.155 A 
ENDROOT
BRANCH   3   7
HETATM    7  C   UNL     1       5.338  34.055  66.397  1.00  0.00     0.060 C 
HETATM    8  C   UNL     1       3.931  34.414  65.765  1.00  0.00     0.040 C 
HETATM    9  C   UNL     1       3.884  33.879  63.958  1.00  0.00     0.236 C 
HETATM   10  N   UNL     1       6.011  33.311  63.395  1.00  0.00    -0.067 N 
HETATM   11  H   UNL     1       6.467  33.778  62.620  1.00  0.00     0.280 HD
HETATM   12  C   UNL     1       7.393  33.477  64.663  1.00  0.00     0.236 C 
HETATM   13  C   UNL     1       6.871  34.252  66.050  1.00  0.00     0.040 C 
BRANCH  10  14
HETATM   14  C   UNL     1       6.416  31.713  62.805  1.00  0.00     0.273 C 
BRANCH  14  15
HETATM   15  C   UNL     1       7.436  31.780  61.680  1.00  0.00    -0.030 A 
HETATM   16  C   UNL     1       7.087  31.628  60.331  1.00  0.00     0.051 A 
HETATM   17  C   UNL     1       8.061  31.703  59.336  1.00  0.00     0.117 A 
HETATM   18  F   UNL     1       7.683  31.596  58.057  1.00  0.00    -0.206 F 
HETATM   19  C   UNL     1       9.398  31.886  59.653  1.00  0.00     0.042 A 
HETATM   20  C   UNL     1       9.768  31.987  60.991  1.00  0.00     0.004 A 
HETATM   21  C   UNL     1       8.797  31.935  61.997  1.00  0.00     0.009 A 
ENDBRANCH  14  15
ENDBRANCH  10  14
ENDBRANCH   3   7
BRANCH   6  22
HETATM   22  C   UNL     1       4.740  35.262  60.956  1.00  0.00     0.315 C 
BRANCH  22  23
HETATM   23  N   UNL     1       3.668  34.931  59.905  1.00  0.00    -0.064 N 
HETATM   24  H   UNL     1       3.249  34.030  60.169  1.00  0.00     0.280 HD
HETATM   25  C   UNL     1       2.566  35.981  60.023  1.00  0.00     0.235 C 
HETATM   26  C   UNL     1       1.357  35.724  59.133  1.00  0.00     0.028 C 
HETATM   27  C   UNL     1       1.614  36.063  57.669  1.00  0.00     0.002 C 
HETATM   28  C   UNL     1       2.221  34.926  56.860  1.00  0.00     0.002 C 
HETATM   29  C   UNL     1       3.200  34.029  57.604  1.00  0.00     0.028 C 
HETATM   30  C   UNL     1       4.200  34.764  58.488  1.00  0.00     0.235 C 
ENDBRANCH  22  23
ENDBRANCH   6  22
TORSDOF 5
ENDMDL
MODEL 10
REMARK VINA RESULT:      -8.4     10.152     12.278
REMARK  5 active torsions:
REMARK  status: ('A' for Active; 'I' for Inactive)
REMARK    1  A    between atoms: C_3  and  C_4 
REMARK    2  A    between atoms: N_7  and  C_9 
REMARK    3  A    between atoms: C_9  and  C_10 
REMARK    4  A    between atoms: C_21  and  C_22 
REMARK    5  A    between atoms: C_22  and  N_23 
ROOT
HETATM    1  C   UNL     1       5.880  36.653  64.329  1.00  0.00     0.159 C 
HETATM    2  N   UNL     1       5.396  35.325  63.993  1.00  0.00    -0.323 N 
HETATM    3  C   UNL     1       5.117  33.926  65.181  1.00  0.00     0.134 A 
HETATM    4  N   UNL     1       4.335  32.702  64.351  1.00  0.00    -0.134 NA
HETATM    5  N   UNL     1       4.072  33.423  62.565  1.00  0.00    -0.133 NA
HETATM    6  C   UNL     1       4.689  34.905  62.411  1.00  0.00     0.155 A 
ENDROOT
BRANCH   3   7
HETATM    7  C   UNL     1       5.204  34.174  66.535  1.00  0.00     0.060 C 
HETATM    8  C   UNL     1       3.855  34.766  65.951  1.00  0.00     0.040 C 
HETATM    9  C   UNL     1       3.704  34.338  64.122  1.00  0.00     0.236 C 
HETATM   10  N   UNL     1       5.718  33.499  63.486  1.00  0.00    -0.067 N 
HETATM   11  H   UNL     1       6.227  33.934  62.725  1.00  0.00     0.280 HD
HETATM   12  C   UNL     1       7.127  33.397  64.731  1.00  0.00     0.236 C 
HETATM   13  C   UNL     1       6.744  34.165  66.165  1.00  0.00     0.040 C 
BRANCH  10  14
HETATM   14  C   UNL     1       5.878  31.892  62.809  1.00  0.00     0.273 C 
BRANCH  14  15
HETATM   15  C   UNL     1       7.188  31.737  62.054  1.00  0.00    -0.030 A 
HETATM   16  C   UNL     1       8.204  30.864  62.469  1.00  0.00     0.051 A 
HETATM   17  C   UNL     1       9.385  30.756  61.737  1.00  0.00     0.117 A 
HETATM   18  F   UNL     1      10.313  29.880  62.140  1.00  0.00    -0.206 F 
HETATM   19  C   UNL     1       9.607  31.534  60.612  1.00  0.00     0.042 A 
HETATM   20  C   UNL     1       8.630  32.444  60.216  1.00  0.00     0.004 A 
HETATM   21  C   UNL     1       7.432  32.545  60.930  1.00  0.00     0.009 A 
ENDBRANCH  14  15
ENDBRANCH  10  14
ENDBRANCH   3   7
BRANCH   6  22
HETATM   22  C   UNL     1       4.798  35.741  61.168  1.00  0.00     0.315 C 
BRANCH  22  23
HETATM   23  N   UNL     1       3.708  36.786  60.878  1.00  0.00    -0.064 N 
HETATM   24  H   UNL     1       2.861  36.491  61.380  1.00  0.00     0.280 HD
HETATM   25  C   UNL     1       4.155  38.105  61.502  1.00  0.00     0.235 C 
HETATM   26  C   UNL     1       3.123  39.221  61.417  1.00  0.00     0.028 C 
HETATM   27  C   UNL     1       3.027  39.836  60.026  1.00  0.00     0.002 C 
HETATM   28  C   UNL     1       2.062  39.122  59.090  1.00  0.00     0.002 C 
HETATM   29  C   UNL     1       1.980  37.611  59.247  1.00  0.00     0.028 C 
HETATM   30  C   UNL     1       3.322  36.907  59.410  1.00  0.00     0.235 C 
ENDBRANCH  22  23
ENDBRANCH   6  22
TORSDOF 5
ENDMDL
