MODEL 1
REMARK VINA RESULT:      -8.6      0.000      0.000
REMARK  5 active torsions:
REMARK  status: ('A' for Active; 'I' for Inactive)
REMARK    1  A    between atoms: C_8  and  N_9 
REMARK       I    between atoms: N_9  and  C_10 
REMARK    2  A    between atoms: C_10  and  C_11 
REMARK    3  A    between atoms: C_11  and  N_12 
REMARK    4  A    between atoms: N_12  and  C_13 
REMARK    5  A    between atoms: C_13  and  C_14 
ROOT
HETATM    1  C   UNL     1       7.045  26.918  57.144  1.00  0.00     0.372 C 
ENDROOT
BRANCH   1   2
HETATM    2  C   UNL     1       7.612  28.334  56.981  1.00  0.00     0.250 C 
HETATM    3  N   UNL     1       8.270  28.785  58.104  1.00  0.00    -0.322 N 
HETATM    4  H   UNL     1       8.345  28.109  58.857  1.00  0.00     0.169 HD
HETATM    5  O   UNL     1       7.509  28.916  55.906  1.00  0.00    -0.271 OA
BRANCH   3   6
HETATM    6  C   UNL     1       8.862  30.022  58.289  1.00  0.00     0.085 A 
HETATM    7  C   UNL     1      10.121  30.309  57.796  1.00  0.00     0.052 A 
HETATM    8  C   UNL     1      11.097  29.521  57.008  1.00  0.00     0.072 C 
HETATM    9  N   UNL     1      10.380  31.599  58.162  1.00  0.00    -0.280 N 
HETATM   10  H   UNL     1      11.208  32.153  57.968  1.00  0.00     0.189 HD
HETATM   11  N   UNL     1       9.399  32.170  58.864  1.00  0.00    -0.177 NA
HETATM   12  C   UNL     1       8.460  31.217  58.959  1.00  0.00     0.079 A 
HETATM   13  C   UNL     1       7.235  31.520  59.742  1.00  0.00     0.075 C 
ENDBRANCH   3   6
ENDBRANCH   1   2
BRANCH   1  14
HETATM   14  N   UNL     1       7.963  25.898  56.589  1.00  0.00     0.100 N 
HETATM   15  H   UNL     1       8.100  25.175  57.303  1.00  0.00     0.317 HD
BRANCH  14  16
HETATM   16  C   UNL     1       7.399  25.242  55.396  1.00  0.00     0.251 C 
HETATM   17  C   UNL     1       5.888  25.449  55.208  1.00  0.00     0.048 C 
BRANCH  16  18
HETATM   18  C   UNL     1       7.728  23.748  55.364  1.00  0.00    -0.002 A 
HETATM   19  C   UNL     1       7.825  22.967  54.189  1.00  0.00     0.064 A 
HETATM   20 CL   UNL     1       7.499  23.663  52.629  1.00  0.00    -0.082 Cl
HETATM   21  C   UNL     1       8.199  21.612  54.275  1.00  0.00     0.056 A 
HETATM   22 CL   UNL     1       8.342  20.592  52.882  1.00  0.00    -0.083 Cl
HETATM   23  C   UNL     1       8.481  21.030  55.514  1.00  0.00     0.026 A 
HETATM   24  C   UNL     1       8.389  21.787  56.674  1.00  0.00     0.002 A 
HETATM   25  C   UNL     1       8.016  23.129  56.601  1.00  0.00     0.011 A 
ENDBRANCH  16  18
ENDBRANCH  14  16
ENDBRANCH   1  14
TORSDOF 5
ENDMDL
MODEL 2
REMARK VINA RESULT:      -8.5      1.294      1.906
REMARK  5 active torsions:
REMARK  status: ('A' for Active; 'I' for Inactive)
REMARK    1  A    between atoms: C_8  and  N_9 
REMARK       I    between atoms: N_9  and  C_10 
REMARK    2  A    between atoms: C_10  and  C_11 
REMARK    3  A    between atoms: C_11  and  N_12 
REMARK    4  A    between atoms: N_12  and  C_13 
REMARK    5  A    between atoms: C_13  and  C_14 
ROOT
HETATM    1  C   UNL     1       6.741  27.207  57.002  1.00  0.00     0.372 C 
ENDROOT
BRANCH   1   2
HETATM    2  C   UNL     1       7.321  28.627  56.945  1.00  0.00     0.250 C 
HETATM    3  N   UNL     1       8.152  28.912  58.007  1.00  0.00    -0.322 N 
HETATM    4  H   UNL     1       8.317  28.138  58.642  1.00  0.00     0.169 HD
HETATM    5  O   UNL     1       7.077  29.351  55.987  1.00  0.00    -0.271 OA
BRANCH   3   6
HETATM    6  C   UNL     1       8.803  30.105  58.264  1.00  0.00     0.085 A 
HETATM    7  C   UNL     1      10.070  30.365  57.776  1.00  0.00     0.052 A 
HETATM    8  C   UNL     1      11.001  29.585  56.927  1.00  0.00     0.072 C 
HETATM    9  N   UNL     1      10.393  31.616  58.221  1.00  0.00    -0.280 N 
HETATM   10  H   UNL     1      11.243  32.141  58.053  1.00  0.00     0.189 HD
HETATM   11  N   UNL     1       9.445  32.185  58.970  1.00  0.00    -0.177 NA
HETATM   12  C   UNL     1       8.463  31.271  59.014  1.00  0.00     0.079 A 
HETATM   13  C   UNL     1       7.261  31.580  59.830  1.00  0.00     0.075 C 
ENDBRANCH   3   6
ENDBRANCH   1   2
BRANCH   1  14
HETATM   14  N   UNL     1       7.269  26.360  55.909  1.00  0.00     0.100 N 
HETATM   15  H   UNL     1       8.121  26.804  55.550  1.00  0.00     0.317 HD
BRANCH  14  16
HETATM   16  C   UNL     1       7.636  25.014  56.384  1.00  0.00     0.251 C 
HETATM   17  C   UNL     1       8.870  24.976  57.299  1.00  0.00     0.048 C 
BRANCH  16  18
HETATM   18  C   UNL     1       7.819  24.036  55.222  1.00  0.00    -0.002 A 
HETATM   19  C   UNL     1       8.036  22.646  55.364  1.00  0.00     0.064 A 
HETATM   20 CL   UNL     1       8.184  21.924  56.939  1.00  0.00    -0.082 Cl
HETATM   21  C   UNL     1       8.126  21.829  54.220  1.00  0.00     0.056 A 
HETATM   22 CL   UNL     1       8.388  20.119  54.312  1.00  0.00    -0.083 Cl
HETATM   23  C   UNL     1       7.996  22.379  52.942  1.00  0.00     0.026 A 
HETATM   24  C   UNL     1       7.783  23.743  52.791  1.00  0.00     0.002 A 
HETATM   25  C   UNL     1       7.696  24.561  53.916  1.00  0.00     0.011 A 
ENDBRANCH  16  18
ENDBRANCH  14  16
ENDBRANCH   1  14
TORSDOF 5
ENDMDL
MODEL 3
REMARK VINA RESULT:      -8.4      2.494      3.660
REMARK  5 active torsions:
REMARK  status: ('A' for Active; 'I' for Inactive)
REMARK    1  A    between atoms: C_8  and  N_9 
REMARK       I    between atoms: N_9  and  C_10 
REMARK    2  A    between atoms: C_10  and  C_11 
REMARK    3  A    between atoms: C_11  and  N_12 
REMARK    4  A    between atoms: N_12  and  C_13 
REMARK    5  A    between atoms: C_13  and  C_14 
ROOT
HETATM    1  C   UNL     1       5.459  26.271  53.769  1.00  0.00     0.372 C 
ENDROOT
BRANCH   1   2
HETATM    2  C   UNL     1       5.608  26.761  55.215  1.00  0.00     0.250 C 
HETATM    3  N   UNL     1       6.122  28.037  55.301  1.00  0.00    -0.322 N 
HETATM    4  H   UNL     1       6.274  28.500  54.411  1.00  0.00     0.169 HD
HETATM    5  O   UNL     1       5.224  26.058  56.143  1.00  0.00    -0.271 OA
BRANCH   3   6
HETATM    6  C   UNL     1       6.405  28.750  56.453  1.00  0.00     0.085 A 
HETATM    7  C   UNL     1       5.469  29.573  57.050  1.00  0.00     0.052 A 
HETATM    8  C   UNL     1       4.062  29.900  56.722  1.00  0.00     0.072 C 
HETATM    9  N   UNL     1       6.086  30.108  58.146  1.00  0.00    -0.280 N 
HETATM   10  H   UNL     1       5.704  30.752  58.829  1.00  0.00     0.189 HD
HETATM   11  N   UNL     1       7.350  29.710  58.302  1.00  0.00    -0.177 NA
HETATM   12  C   UNL     1       7.568  28.881  57.270  1.00  0.00     0.079 A 
HETATM   13  C   UNL     1       8.926  28.296  57.121  1.00  0.00     0.075 C 
ENDBRANCH   3   6
ENDBRANCH   1   2
BRANCH   1  14
HETATM   14  N   UNL     1       5.785  24.832  53.647  1.00  0.00     0.100 N 
HETATM   15  H   UNL     1       5.327  24.476  52.801  1.00  0.00     0.317 HD
BRANCH  14  16
HETATM   16  C   UNL     1       7.233  24.606  53.496  1.00  0.00     0.251 C 
HETATM   17  C   UNL     1       7.784  24.916  52.094  1.00  0.00     0.048 C 
BRANCH  16  18
HETATM   18  C   UNL     1       7.630  23.188  53.909  1.00  0.00    -0.002 A 
HETATM   19  C   UNL     1       7.831  22.762  55.243  1.00  0.00     0.064 A 
HETATM   20 CL   UNL     1       7.700  23.884  56.565  1.00  0.00    -0.082 Cl
HETATM   21  C   UNL     1       8.132  21.413  55.510  1.00  0.00     0.056 A 
HETATM   22 CL   UNL     1       8.388  20.814  57.116  1.00  0.00    -0.083 Cl
HETATM   23  C   UNL     1       8.228  20.486  54.470  1.00  0.00     0.026 A 
HETATM   24  C   UNL     1       8.034  20.893  53.156  1.00  0.00     0.002 A 
HETATM   25  C   UNL     1       7.739  22.227  52.879  1.00  0.00     0.011 A 
ENDBRANCH  16  18
ENDBRANCH  14  16
ENDBRANCH   1  14
TORSDOF 5
ENDMDL
MODEL 4
REMARK VINA RESULT:      -8.3      0.309      1.750
REMARK  5 active torsions:
REMARK  status: ('A' for Active; 'I' for Inactive)
REMARK    1  A    between atoms: C_8  and  N_9 
REMARK       I    between atoms: N_9  and  C_10 
REMARK    2  A    between atoms: C_10  and  C_11 
REMARK    3  A    between atoms: C_11  and  N_12 
REMARK    4  A    between atoms: N_12  and  C_13 
REMARK    5  A    between atoms: C_13  and  C_14 
ROOT
HETATM    1  C   UNL     1       6.987  27.129  56.660  1.00  0.00     0.372 C 
ENDROOT
BRANCH   1   2
HETATM    2  C   UNL     1       7.792  28.434  56.595  1.00  0.00     0.250 C 
HETATM    3  N   UNL     1       8.207  28.874  57.833  1.00  0.00    -0.322 N 
HETATM    4  H   UNL     1       7.982  28.255  58.606  1.00  0.00     0.169 HD
HETATM    5  O   UNL     1       8.056  28.938  55.509  1.00  0.00    -0.271 OA
BRANCH   3   6
HETATM    6  C   UNL     1       8.919  30.025  58.118  1.00  0.00     0.085 A 
HETATM    7  C   UNL     1       8.347  31.091  58.786  1.00  0.00     0.052 A 
HETATM    8  C   UNL     1       6.997  31.315  59.353  1.00  0.00     0.072 C 
HETATM    9  N   UNL     1       9.327  32.037  58.889  1.00  0.00    -0.280 N 
HETATM   10  H   UNL     1       9.274  32.951  59.326  1.00  0.00     0.189 HD
HETATM   11  N   UNL     1      10.486  31.679  58.331  1.00  0.00    -0.177 NA
HETATM   12  C   UNL     1      10.255  30.450  57.846  1.00  0.00     0.079 A 
HETATM   13  C   UNL     1      11.351  29.778  57.102  1.00  0.00     0.075 C 
ENDBRANCH   3   6
ENDBRANCH   1   2
BRANCH   1  14
HETATM   14  N   UNL     1       7.832  25.954  56.352  1.00  0.00     0.100 N 
HETATM   15  H   UNL     1       7.802  25.323  57.160  1.00  0.00     0.317 HD
BRANCH  14  16
HETATM   16  C   UNL     1       7.330  25.205  55.186  1.00  0.00     0.251 C 
HETATM   17  C   UNL     1       5.816  25.331  54.951  1.00  0.00     0.048 C 
BRANCH  16  18
HETATM   18  C   UNL     1       7.726  23.729  55.248  1.00  0.00    -0.002 A 
HETATM   19  C   UNL     1       7.937  22.901  54.122  1.00  0.00     0.064 A 
HETATM   20 CL   UNL     1       7.686  23.509  52.512  1.00  0.00    -0.082 Cl
HETATM   21  C   UNL     1       8.363  21.571  54.298  1.00  0.00     0.056 A 
HETATM   22 CL   UNL     1       8.646  20.496  52.968  1.00  0.00    -0.083 Cl
HETATM   23  C   UNL     1       8.587  21.060  55.579  1.00  0.00     0.026 A 
HETATM   24  C   UNL     1       8.383  21.864  56.693  1.00  0.00     0.002 A 
HETATM   25  C   UNL     1       7.958  23.181  56.530  1.00  0.00     0.011 A 
ENDBRANCH  16  18
ENDBRANCH  14  16
ENDBRANCH   1  14
TORSDOF 5
ENDMDL
MODEL 5
REMARK VINA RESULT:      -7.9      5.104      6.509
REMARK  5 active torsions:
REMARK  status: ('A' for Active; 'I' for Inactive)
REMARK    1  A    between atoms: C_8  and  N_9 
REMARK       I    between atoms: N_9  and  C_10 
REMARK    2  A    between atoms: C_10  and  C_11 
REMARK    3  A    between atoms: C_11  and  N_12 
REMARK    4  A    between atoms: N_12  and  C_13 
REMARK    5  A    between atoms: C_13  and  C_14 
ROOT
HETATM    1  C   UNL     1       5.627  26.179  54.243  1.00  0.00     0.372 C 
ENDROOT
BRANCH   1   2
HETATM    2  C   UNL     1       5.596  27.269  53.162  1.00  0.00     0.250 C 
HETATM    3  N   UNL     1       4.469  27.214  52.373  1.00  0.00    -0.322 N 
HETATM    4  H   UNL     1       3.789  26.511  52.644  1.00  0.00     0.169 HD
HETATM    5  O   UNL     1       6.489  28.108  53.113  1.00  0.00    -0.271 OA
BRANCH   3   6
HETATM    6  C   UNL     1       4.157  28.029  51.299  1.00  0.00     0.085 A 
HETATM    7  C   UNL     1       3.675  29.312  51.473  1.00  0.00     0.052 A 
HETATM    8  C   UNL     1       3.395  30.127  52.678  1.00  0.00     0.072 C 
HETATM    9  N   UNL     1       3.480  29.812  50.216  1.00  0.00    -0.280 N 
HETATM   10  H   UNL     1       3.140  30.730  49.952  1.00  0.00     0.189 HD
HETATM   11  N   UNL     1       3.783  28.954  49.240  1.00  0.00    -0.177 NA
HETATM   12  C   UNL     1       4.195  27.851  49.883  1.00  0.00     0.079 A 
HETATM   13  C   UNL     1       4.562  26.665  49.067  1.00  0.00     0.075 C 
ENDBRANCH   3   6
ENDBRANCH   1   2
BRANCH   1  14
HETATM   14  N   UNL     1       5.845  24.838  53.656  1.00  0.00     0.100 N 
HETATM   15  H   UNL     1       5.384  24.815  52.741  1.00  0.00     0.317 HD
BRANCH  14  16
HETATM   16  C   UNL     1       7.276  24.558  53.439  1.00  0.00     0.251 C 
HETATM   17  C   UNL     1       7.754  24.766  51.994  1.00  0.00     0.048 C 
BRANCH  16  18
HETATM   18  C   UNL     1       7.656  23.156  53.917  1.00  0.00    -0.002 A 
HETATM   19  C   UNL     1       7.822  22.780  55.270  1.00  0.00     0.064 A 
HETATM   20 CL   UNL     1       7.663  23.953  56.544  1.00  0.00    -0.082 Cl
HETATM   21  C   UNL     1       8.110  21.441  55.597  1.00  0.00     0.056 A 
HETATM   22 CL   UNL     1       8.323  20.903  57.230  1.00  0.00    -0.083 Cl
HETATM   23  C   UNL     1       8.227  20.475  54.595  1.00  0.00     0.026 A 
HETATM   24  C   UNL     1       8.067  20.831  53.263  1.00  0.00     0.002 A 
HETATM   25  C   UNL     1       7.785  22.155  52.928  1.00  0.00     0.011 A 
ENDBRANCH  16  18
ENDBRANCH  14  16
ENDBRANCH   1  14
TORSDOF 5
ENDMDL
MODEL 6
REMARK VINA RESULT:      -7.8      2.015      2.632
REMARK  5 active torsions:
REMARK  status: ('A' for Active; 'I' for Inactive)
REMARK    1  A    between atoms: C_8  and  N_9 
REMARK       I    between atoms: N_9  and  C_10 
REMARK    2  A    between atoms: C_10  and  C_11 
REMARK    3  A    between atoms: C_11  and  N_12 
REMARK    4  A    between atoms: N_12  and  C_13 
REMARK    5  A    between atoms: C_13  and  C_14 
ROOT
HETATM    1  C   UNL     1       7.754  25.990  57.860  1.00  0.00     0.372 C 
ENDROOT
BRANCH   1   2
HETATM    2  C   UNL     1       7.773  27.453  57.398  1.00  0.00     0.250 C 
HETATM    3  N   UNL     1       6.519  28.021  57.355  1.00  0.00    -0.322 N 
HETATM    4  H   UNL     1       5.767  27.427  57.688  1.00  0.00     0.169 HD
HETATM    5  O   UNL     1       8.842  28.010  57.172  1.00  0.00    -0.271 OA
BRANCH   3   6
HETATM    6  C   UNL     1       6.194  29.305  56.954  1.00  0.00     0.085 A 
HETATM    7  C   UNL     1       5.548  29.554  55.758  1.00  0.00     0.052 A 
HETATM    8  C   UNL     1       5.044  28.668  54.683  1.00  0.00     0.072 C 
HETATM    9  N   UNL     1       5.392  30.910  55.692  1.00  0.00    -0.280 N 
HETATM   10  H   UNL     1       4.953  31.456  54.960  1.00  0.00     0.189 HD
HETATM   11  N   UNL     1       5.897  31.563  56.741  1.00  0.00    -0.177 NA
HETATM   12  C   UNL     1       6.400  30.597  57.524  1.00  0.00     0.079 A 
HETATM   13  C   UNL     1       7.095  31.004  58.772  1.00  0.00     0.075 C 
ENDBRANCH   3   6
ENDBRANCH   1   2
BRANCH   1  14
HETATM   14  N   UNL     1       8.474  25.111  56.911  1.00  0.00     0.100 N 
HETATM   15  H   UNL     1       8.871  24.329  57.443  1.00  0.00     0.317 HD
BRANCH  14  16
HETATM   16  C   UNL     1       7.571  24.542  55.894  1.00  0.00     0.251 C 
HETATM   17  C   UNL     1       6.075  24.716  56.202  1.00  0.00     0.048 C 
BRANCH  16  18
HETATM   18  C   UNL     1       7.879  23.068  55.626  1.00  0.00    -0.002 A 
HETATM   19  C   UNL     1       7.920  22.472  54.344  1.00  0.00     0.064 A 
HETATM   20 CL   UNL     1       7.541  23.396  52.921  1.00  0.00    -0.082 Cl
HETATM   21  C   UNL     1       8.279  21.117  54.211  1.00  0.00     0.056 A 
HETATM   22 CL   UNL     1       8.355  20.317  52.676  1.00  0.00    -0.083 Cl
HETATM   23  C   UNL     1       8.602  20.354  55.336  1.00  0.00     0.026 A 
HETATM   24  C   UNL     1       8.566  20.928  56.600  1.00  0.00     0.002 A 
HETATM   25  C   UNL     1       8.208  22.268  56.743  1.00  0.00     0.011 A 
ENDBRANCH  16  18
ENDBRANCH  14  16
ENDBRANCH   1  14
TORSDOF 5
ENDMDL
MODEL 7
REMARK VINA RESULT:      -7.7      2.055      3.076
REMARK  5 active torsions:
REMARK  status: ('A' for Active; 'I' for Inactive)
REMARK    1  A    between atoms: C_8  and  N_9 
REMARK       I    between atoms: N_9  and  C_10 
REMARK    2  A    between atoms: C_10  and  C_11 
REMARK    3  A    between atoms: C_11  and  N_12 
REMARK    4  A    between atoms: N_12  and  C_13 
REMARK    5  A    between atoms: C_13  and  C_14 
ROOT
HETATM    1  C   UNL     1       7.844  26.657  57.549  1.00  0.00     0.372 C 
ENDROOT
BRANCH   1   2
HETATM    2  C   UNL     1       7.585  28.104  57.110  1.00  0.00     0.250 C 
HETATM    3  N   UNL     1       6.808  28.807  58.003  1.00  0.00    -0.322 N 
HETATM    4  H   UNL     1       6.564  28.304  58.850  1.00  0.00     0.169 HD
HETATM    5  O   UNL     1       8.106  28.536  56.088  1.00  0.00    -0.271 OA
BRANCH   3   6
HETATM    6  C   UNL     1       6.372  30.115  57.885  1.00  0.00     0.085 A 
HETATM    7  C   UNL     1       5.270  30.451  57.122  1.00  0.00     0.052 A 
HETATM    8  C   UNL     1       4.320  29.647  56.318  1.00  0.00     0.072 C 
HETATM    9  N   UNL     1       5.136  31.806  57.234  1.00  0.00    -0.280 N 
HETATM   10  H   UNL     1       4.432  32.404  56.815  1.00  0.00     0.189 HD
HETATM   11  N   UNL     1       6.069  32.381  57.997  1.00  0.00    -0.177 NA
HETATM   12  C   UNL     1       6.841  31.361  58.401  1.00  0.00     0.079 A 
HETATM   13  C   UNL     1       8.027  31.675  59.239  1.00  0.00     0.075 C 
ENDBRANCH   3   6
ENDBRANCH   1   2
BRANCH   1  14
HETATM   14  N   UNL     1       6.963  25.705  56.834  1.00  0.00     0.100 N 
HETATM   15  H   UNL     1       6.845  26.045  55.874  1.00  0.00     0.317 HD
BRANCH  14  16
HETATM   16  C   UNL     1       7.555  24.358  56.759  1.00  0.00     0.251 C 
HETATM   17  C   UNL     1       8.900  24.211  57.486  1.00  0.00     0.048 C 
BRANCH  16  18
HETATM   18  C   UNL     1       7.690  23.881  55.312  1.00  0.00    -0.002 A 
HETATM   19  C   UNL     1       7.757  22.526  54.911  1.00  0.00     0.064 A 
HETATM   20 CL   UNL     1       7.757  21.248  56.090  1.00  0.00    -0.082 Cl
HETATM   21  C   UNL     1       7.816  22.201  53.542  1.00  0.00     0.056 A 
HETATM   22 CL   UNL     1       7.896  20.566  52.972  1.00  0.00    -0.083 Cl
HETATM   23  C   UNL     1       7.802  23.206  52.572  1.00  0.00     0.026 A 
HETATM   24  C   UNL     1       7.737  24.540  52.953  1.00  0.00     0.002 A 
HETATM   25  C   UNL     1       7.682  24.873  54.306  1.00  0.00     0.011 A 
ENDBRANCH  16  18
ENDBRANCH  14  16
ENDBRANCH   1  14
TORSDOF 5
ENDMDL
MODEL 8
REMARK VINA RESULT:      -7.6      6.600      9.975
REMARK  5 active torsions:
REMARK  status: ('A' for Active; 'I' for Inactive)
REMARK    1  A    between atoms: C_8  and  N_9 
REMARK       I    between atoms: N_9  and  C_10 
REMARK    2  A    between atoms: C_10  and  C_11 
REMARK    3  A    between atoms: C_11  and  N_12 
REMARK    4  A    between atoms: N_12  and  C_13 
REMARK    5  A    between atoms: C_13  and  C_14 
ROOT
HETATM    1  C   UNL     1       4.266  32.205  59.433  1.00  0.00     0.372 C 
ENDROOT
BRANCH   1   2
HETATM    2  C   UNL     1       5.586  32.003  58.677  1.00  0.00     0.250 C 
HETATM    3  N   UNL     1       6.272  30.879  59.082  1.00  0.00    -0.322 N 
HETATM    4  H   UNL     1       5.794  30.309  59.772  1.00  0.00     0.169 HD
HETATM    5  O   UNL     1       5.897  32.768  57.771  1.00  0.00    -0.271 OA
BRANCH   3   6
HETATM    6  C   UNL     1       7.500  30.437  58.623  1.00  0.00     0.085 A 
HETATM    7  C   UNL     1       7.622  29.303  57.843  1.00  0.00     0.052 A 
HETATM    8  C   UNL     1       6.632  28.343  57.301  1.00  0.00     0.072 C 
HETATM    9  N   UNL     1       8.956  29.171  57.581  1.00  0.00    -0.280 N 
HETATM   10  H   UNL     1       9.420  28.456  57.030  1.00  0.00     0.189 HD
HETATM   11  N   UNL     1       9.713  30.118  58.138  1.00  0.00    -0.177 NA
HETATM   12  C   UNL     1       8.840  30.902  58.788  1.00  0.00     0.079 A 
HETATM   13  C   UNL     1       9.378  32.043  59.573  1.00  0.00     0.075 C 
ENDBRANCH   3   6
ENDBRANCH   1   2
BRANCH   1  14
HETATM   14  N   UNL     1       4.393  31.828  60.859  1.00  0.00     0.100 N 
HETATM   15  H   UNL     1       5.320  31.412  60.994  1.00  0.00     0.317 HD
BRANCH  14  16
HETATM   16  C   UNL     1       4.297  32.998  61.749  1.00  0.00     0.251 C 
HETATM   17  C   UNL     1       4.101  34.338  61.021  1.00  0.00     0.048 C 
BRANCH  16  18
HETATM   18  C   UNL     1       5.495  33.089  62.694  1.00  0.00    -0.002 A 
HETATM   19  C   UNL     1       5.435  33.538  64.034  1.00  0.00     0.064 A 
HETATM   20 CL   UNL     1       3.940  34.106  64.716  1.00  0.00    -0.082 Cl
HETATM   21  C   UNL     1       6.595  33.518  64.834  1.00  0.00     0.056 A 
HETATM   22 CL   UNL     1       6.600  34.047  66.484  1.00  0.00    -0.083 Cl
HETATM   23  C   UNL     1       7.806  33.053  64.318  1.00  0.00     0.026 A 
HETATM   24  C   UNL     1       7.877  32.610  63.003  1.00  0.00     0.002 A 
HETATM   25  C   UNL     1       6.737  32.628  62.201  1.00  0.00     0.011 A 
ENDBRANCH  16  18
ENDBRANCH  14  16
ENDBRANCH   1  14
TORSDOF 5
ENDMDL
MODEL 9
REMARK VINA RESULT:      -7.6      5.786      8.644
REMARK  5 active torsions:
REMARK  status: ('A' for Active; 'I' for Inactive)
REMARK    1  A    between atoms: C_8  and  N_9 
REMARK       I    between atoms: N_9  and  C_10 
REMARK    2  A    between atoms: C_10  and  C_11 
REMARK    3  A    between atoms: C_11  and  N_12 
REMARK    4  A    between atoms: N_12  and  C_13 
REMARK    5  A    between atoms: C_13  and  C_14 
ROOT
HETATM    1  C   UNL     1       7.413  25.594  52.408  1.00  0.00     0.372 C 
ENDROOT
BRANCH   1   2
HETATM    2  C   UNL     1       7.152  24.427  53.369  1.00  0.00     0.250 C 
HETATM    3  N   UNL     1       8.277  23.673  53.619  1.00  0.00    -0.322 N 
HETATM    4  H   UNL     1       9.130  24.019  53.190  1.00  0.00     0.169 HD
HETATM    5  O   UNL     1       6.044  24.286  53.875  1.00  0.00    -0.271 OA
BRANCH   3   6
HETATM    6  C   UNL     1       8.369  22.542  54.412  1.00  0.00     0.085 A 
HETATM    7  C   UNL     1       8.500  22.622  55.785  1.00  0.00     0.052 A 
HETATM    8  C   UNL     1       8.555  23.766  56.725  1.00  0.00     0.072 C 
HETATM    9  N   UNL     1       8.562  21.333  56.231  1.00  0.00    -0.280 N 
HETATM   10  H   UNL     1       8.652  21.002  57.185  1.00  0.00     0.189 HD
HETATM   11  N   UNL     1       8.496  20.421  55.259  1.00  0.00    -0.177 NA
HETATM   12  C   UNL     1       8.383  21.142  54.133  1.00  0.00     0.079 A 
HETATM   13  C   UNL     1       8.341  20.413  52.840  1.00  0.00     0.075 C 
ENDBRANCH   3   6
ENDBRANCH   1   2
BRANCH   1  14
HETATM   14  N   UNL     1       6.392  25.656  51.338  1.00  0.00     0.100 N 
HETATM   15  H   UNL     1       5.675  24.953  51.545  1.00  0.00     0.317 HD
BRANCH  14  16
HETATM   16  C   UNL     1       5.726  26.969  51.287  1.00  0.00     0.251 C 
HETATM   17  C   UNL     1       4.733  27.224  52.432  1.00  0.00     0.048 C 
BRANCH  16  18
HETATM   18  C   UNL     1       5.039  27.202  49.941  1.00  0.00    -0.002 A 
HETATM   19  C   UNL     1       5.065  28.419  49.221  1.00  0.00     0.064 A 
HETATM   20 CL   UNL     1       5.860  29.822  49.873  1.00  0.00    -0.082 Cl
HETATM   21  C   UNL     1       4.450  28.501  47.956  1.00  0.00     0.056 A 
HETATM   22 CL   UNL     1       4.442  29.954  47.013  1.00  0.00    -0.083 Cl
HETATM   23  C   UNL     1       3.817  27.386  47.401  1.00  0.00     0.026 A 
HETATM   24  C   UNL     1       3.785  26.186  48.099  1.00  0.00     0.002 A 
HETATM   25  C   UNL     1       4.387  26.095  49.353  1.00  0.00     0.011 A 
ENDBRANCH  16  18
ENDBRANCH  14  16
ENDBRANCH   1  14
TORSDOF 5
ENDMDL
MODEL 10
REMARK VINA RESULT:      -7.5      5.004      7.292
REMARK  5 active torsions:
REMARK  status: ('A' for Active; 'I' for Inactive)
REMARK    1  A    between atoms: C_8  and  N_9 
REMARK       I    between atoms: N_9  and  C_10 
REMARK    2  A    between atoms: C_10  and  C_11 
REMARK    3  A    between atoms: C_11  and  N_12 
REMARK    4  A    between atoms: N_12  and  C_13 
REMARK    5  A    between atoms: C_13  and  C_14 
ROOT
HETATM    1  C   UNL     1       4.744  26.647  53.248  1.00  0.00     0.372 C 
ENDROOT
BRANCH   1   2
HETATM    2  C   UNL     1       5.276  26.652  51.808  1.00  0.00     0.250 C 
HETATM    3  N   UNL     1       4.347  27.093  50.892  1.00  0.00    -0.322 N 
HETATM    4  H   UNL     1       3.469  27.409  51.289  1.00  0.00     0.169 HD
HETATM    5  O   UNL     1       6.442  26.345  51.585  1.00  0.00    -0.271 OA
BRANCH   3   6
HETATM    6  C   UNL     1       4.502  27.186  49.520  1.00  0.00     0.085 A 
HETATM    7  C   UNL     1       5.142  28.259  48.929  1.00  0.00     0.052 A 
HETATM    8  C   UNL     1       5.795  29.469  49.480  1.00  0.00     0.072 C 
HETATM    9  N   UNL     1       5.110  28.019  47.584  1.00  0.00    -0.280 N 
HETATM   10  H   UNL     1       5.490  28.588  46.836  1.00  0.00     0.189 HD
HETATM   11  N   UNL     1       4.489  26.885  47.252  1.00  0.00    -0.177 NA
HETATM   12  C   UNL     1       4.103  26.361  48.425  1.00  0.00     0.079 A 
HETATM   13  C   UNL     1       3.322  25.098  48.400  1.00  0.00     0.075 C 
ENDBRANCH   3   6
ENDBRANCH   1   2
BRANCH   1  14
HETATM   14  N   UNL     1       5.847  26.614  54.234  1.00  0.00     0.100 N 
HETATM   15  H   UNL     1       5.889  27.530  54.692  1.00  0.00     0.317 HD
BRANCH  14  16
HETATM   16  C   UNL     1       5.617  25.604  55.283  1.00  0.00     0.251 C 
HETATM   17  C   UNL     1       5.125  26.177  56.622  1.00  0.00     0.048 C 
BRANCH  16  18
HETATM   18  C   UNL     1       6.855  24.736  55.512  1.00  0.00    -0.002 A 
HETATM   19  C   UNL     1       7.360  23.790  54.590  1.00  0.00     0.064 A 
HETATM   20 CL   UNL     1       6.538  23.485  53.088  1.00  0.00    -0.082 Cl
HETATM   21  C   UNL     1       8.548  23.091  54.880  1.00  0.00     0.056 A 
HETATM   22 CL   UNL     1       9.231  21.921  53.800  1.00  0.00    -0.083 Cl
HETATM   23  C   UNL     1       9.238  23.327  56.072  1.00  0.00     0.026 A 
HETATM   24  C   UNL     1       8.751  24.252  56.986  1.00  0.00     0.002 A 
HETATM   25  C   UNL     1       7.574  24.947  56.710  1.00  0.00     0.011 A 
ENDBRANCH  16  18
ENDBRANCH  14  16
ENDBRANCH   1  14
TORSDOF 5
ENDMDL
