MODEL 1
REMARK VINA RESULT:      -9.9      0.000      0.000
REMARK  11 active torsions:
REMARK  status: ('A' for Active; 'I' for Inactive)
REMARK    1  A    between atoms: C_2  and  O_3 
REMARK    2  A    between atoms: O_3  and  C_4 
REMARK    3  A    between atoms: C_4  and  C_5 
REMARK    4  A    between atoms: C_5  and  C_6 
REMARK    5  A    between atoms: C_6  and  C_7 
REMARK    6  A    between atoms: C_13  and  C_14 
REMARK    7  A    between atoms: C_14  and  N_15 
REMARK    8  A    between atoms: N_15  and  C_18 
REMARK    9  A    between atoms: N_21  and  C_23 
REMARK   10  A    between atoms: C_23  and  C_24 
REMARK   11  A    between atoms: C_32  and  O_33 
ROOT
HETATM    1  C   UNL     1       5.890  33.968  62.754  1.00  0.00     0.025 A 
HETATM    2  C   UNL     1       5.328  33.966  61.375  1.00  0.00     0.295 A 
HETATM    3  O   UNL     1       4.400  34.686  61.029  1.00  0.00    -0.259 OA
HETATM    4  O   UNL     1       5.865  33.066  60.471  1.00  0.00    -0.274 OA
HETATM    5  C   UNL     1       6.986  32.279  60.772  1.00  0.00     0.101 A 
HETATM    6  C   UNL     1       7.577  32.348  62.034  1.00  0.00     0.005 A 
HETATM    7  C   UNL     1       7.450  31.434  59.751  1.00  0.00     0.035 A 
HETATM    8  C   UNL     1       8.568  30.642  60.019  1.00  0.00     0.076 A 
HETATM    9  C   UNL     1       9.208  30.701  61.250  1.00  0.00     0.038 A 
HETATM   10  C   UNL     1       8.711  31.551  62.248  1.00  0.00     0.017 A 
HETATM   11  C   UNL     1       6.967  33.213  63.070  1.00  0.00    -0.037 A 
HETATM   12  C   UNL     1       7.586  33.151  64.448  1.00  0.00     0.050 C 
ENDROOT
BRANCH   7  13
HETATM   13  C   UNL     1       6.768  31.366  58.416  1.00  0.00     0.276 C 
BRANCH  13  14
HETATM   14  N   UNL     1       6.335  29.947  58.118  1.00  0.00    -0.067 N 
HETATM   15  H   UNL     1       7.160  29.409  58.452  1.00  0.00     0.277 HD
HETATM   16  H   UNL     1       5.593  29.724  58.790  1.00  0.00     0.277 HD
BRANCH  14  17
HETATM   17  C   UNL     1       6.031  29.624  56.686  1.00  0.00     0.189 C 
HETATM   18  C   UNL     1       5.029  28.477  56.548  1.00  0.00     0.060 C 
HETATM   19  C   UNL     1       5.600  27.107  56.888  1.00  0.00     0.237 C 
HETATM   20  N   UNL     1       6.859  26.858  56.095  1.00  0.00    -0.067 N 
HETATM   21  H   UNL     1       6.597  26.796  55.098  1.00  0.00     0.280 HD
HETATM   22  C   UNL     1       7.902  27.927  56.262  1.00  0.00     0.237 C 
HETATM   23  C   UNL     1       7.323  29.298  55.933  1.00  0.00     0.060 C 
BRANCH  20  24
HETATM   24  C   UNL     1       7.464  25.476  56.389  1.00  0.00     0.273 C 
BRANCH  24  25
HETATM   25  C   UNL     1       7.585  24.609  55.169  1.00  0.00    -0.033 A 
HETATM   26  C   UNL     1       7.759  23.221  55.295  1.00  0.00     0.009 A 
HETATM   27  C   UNL     1       7.898  22.424  54.158  1.00  0.00     0.001 A 
HETATM   28  C   UNL     1       7.866  23.000  52.891  1.00  0.00     0.000 A 
HETATM   29  C   UNL     1       7.688  24.374  52.754  1.00  0.00     0.001 A 
HETATM   30  C   UNL     1       7.545  25.177  53.886  1.00  0.00     0.009 A 
ENDBRANCH  24  25
ENDBRANCH  20  24
ENDBRANCH  14  17
ENDBRANCH  13  14
ENDBRANCH   7  13
BRANCH   8  31
HETATM   31  O   UNL     1       8.990  29.771  59.050  1.00  0.00    -0.360 OA
HETATM   32  H   UNL     1       9.494  29.057  59.498  1.00  0.00     0.217 HD
ENDBRANCH   8  31
BRANCH   1  33
HETATM   33  C   UNL     1       5.130  34.881  63.705  1.00  0.00     0.055 C 
BRANCH  33  34
HETATM   34  C   UNL     1       3.947  34.225  64.421  1.00  0.00     0.116 C 
BRANCH  34  35
HETATM   35  C   UNL     1       3.894  34.564  65.890  1.00  0.00     0.259 C 
HETATM   36  O   UNL     1       3.090  35.350  66.378  1.00  0.00    -0.265 OA
BRANCH  35  37
HETATM   37  O   UNL     1       4.842  33.870  66.570  1.00  0.00    -0.322 OA
BRANCH  37  38
HETATM   38  C   UNL     1       5.183  34.362  67.876  1.00  0.00     0.174 C 
HETATM   39  C   UNL     1       6.689  34.388  68.042  1.00  0.00     0.034 C 
ENDBRANCH  37  38
ENDBRANCH  35  37
ENDBRANCH  34  35
ENDBRANCH  33  34
ENDBRANCH   1  33
TORSDOF 11
ENDMDL
MODEL 2
REMARK VINA RESULT:      -9.6      1.707      2.546
REMARK  11 active torsions:
REMARK  status: ('A' for Active; 'I' for Inactive)
REMARK    1  A    between atoms: C_2  and  O_3 
REMARK    2  A    between atoms: O_3  and  C_4 
REMARK    3  A    between atoms: C_4  and  C_5 
REMARK    4  A    between atoms: C_5  and  C_6 
REMARK    5  A    between atoms: C_6  and  C_7 
REMARK    6  A    between atoms: C_13  and  C_14 
REMARK    7  A    between atoms: C_14  and  N_15 
REMARK    8  A    between atoms: N_15  and  C_18 
REMARK    9  A    between atoms: N_21  and  C_23 
REMARK   10  A    between atoms: C_23  and  C_24 
REMARK   11  A    between atoms: C_32  and  O_33 
ROOT
HETATM    1  C   UNL     1       5.274  32.633  60.263  1.00  0.00     0.025 A 
HETATM    2  C   UNL     1       4.596  31.960  59.121  1.00  0.00     0.295 A 
HETATM    3  O   UNL     1       3.404  32.096  58.877  1.00  0.00    -0.259 OA
HETATM    4  O   UNL     1       5.358  31.107  58.342  1.00  0.00    -0.274 OA
HETATM    5  C   UNL     1       6.744  30.976  58.509  1.00  0.00     0.101 A 
HETATM    6  C   UNL     1       7.402  31.680  59.517  1.00  0.00     0.005 A 
HETATM    7  C   UNL     1       7.400  30.104  57.626  1.00  0.00     0.035 A 
HETATM    8  C   UNL     1       8.782  29.955  57.764  1.00  0.00     0.076 A 
HETATM    9  C   UNL     1       9.483  30.661  58.733  1.00  0.00     0.038 A 
HETATM   10  C   UNL     1       8.793  31.516  59.602  1.00  0.00     0.017 A 
HETATM   11  C   UNL     1       6.610  32.516  60.449  1.00  0.00    -0.037 A 
HETATM   12  C   UNL     1       7.368  33.157  61.589  1.00  0.00     0.050 C 
ENDROOT
BRANCH   7  13
HETATM   13  C   UNL     1       6.652  29.341  56.572  1.00  0.00     0.276 C 
BRANCH  13  14
HETATM   14  N   UNL     1       5.909  28.178  57.193  1.00  0.00    -0.067 N 
HETATM   15  H   UNL     1       6.678  27.691  57.695  1.00  0.00     0.277 HD
HETATM   16  H   UNL     1       5.325  28.573  57.939  1.00  0.00     0.277 HD
BRANCH  14  17
HETATM   17  C   UNL     1       5.212  27.245  56.250  1.00  0.00     0.189 C 
HETATM   18  C   UNL     1       4.991  25.859  56.857  1.00  0.00     0.060 C 
HETATM   19  C   UNL     1       6.259  25.023  56.977  1.00  0.00     0.237 C 
HETATM   20  N   UNL     1       6.962  24.953  55.644  1.00  0.00    -0.067 N 
HETATM   21  H   UNL     1       6.357  24.425  54.996  1.00  0.00     0.280 HD
HETATM   22  C   UNL     1       7.264  26.298  55.047  1.00  0.00     0.237 C 
HETATM   23  C   UNL     1       5.996  27.136  54.940  1.00  0.00     0.060 C 
BRANCH  20  24
HETATM   24  C   UNL     1       8.240  24.101  55.708  1.00  0.00     0.273 C 
BRANCH  24  25
HETATM   25  C   UNL     1       8.137  22.817  54.939  1.00  0.00    -0.033 A 
HETATM   26  C   UNL     1       8.085  21.585  55.612  1.00  0.00     0.009 A 
HETATM   27  C   UNL     1       8.017  20.392  54.891  1.00  0.00     0.001 A 
HETATM   28  C   UNL     1       8.002  20.416  53.499  1.00  0.00     0.000 A 
HETATM   29  C   UNL     1       8.047  21.631  52.822  1.00  0.00     0.001 A 
HETATM   30  C   UNL     1       8.112  22.828  53.536  1.00  0.00     0.009 A 
ENDBRANCH  24  25
ENDBRANCH  20  24
ENDBRANCH  14  17
ENDBRANCH  13  14
ENDBRANCH   7  13
BRANCH   8  31
HETATM   31  O   UNL     1       9.421  29.061  56.947  1.00  0.00    -0.360 OA
HETATM   32  H   UNL     1       9.028  28.177  57.117  1.00  0.00     0.217 HD
ENDBRANCH   8  31
BRANCH   1  33
HETATM   33  C   UNL     1       4.318  33.423  61.143  1.00  0.00     0.055 C 
BRANCH  33  34
HETATM   34  C   UNL     1       4.012  32.784  62.500  1.00  0.00     0.116 C 
BRANCH  34  35
HETATM   35  C   UNL     1       4.224  33.733  63.652  1.00  0.00     0.259 C 
HETATM   36  O   UNL     1       4.008  34.938  63.590  1.00  0.00    -0.265 OA
BRANCH  35  37
HETATM   37  O   UNL     1       4.667  33.059  64.745  1.00  0.00    -0.322 OA
BRANCH  37  38
HETATM   38  C   UNL     1       5.526  33.782  65.639  1.00  0.00     0.174 C 
HETATM   39  C   UNL     1       6.976  33.547  65.267  1.00  0.00     0.034 C 
ENDBRANCH  37  38
ENDBRANCH  35  37
ENDBRANCH  34  35
ENDBRANCH  33  34
ENDBRANCH   1  33
TORSDOF 11
ENDMDL
MODEL 3
REMARK VINA RESULT:      -9.5      3.976      6.664
REMARK  11 active torsions:
REMARK  status: ('A' for Active; 'I' for Inactive)
REMARK    1  A    between atoms: C_2  and  O_3 
REMARK    2  A    between atoms: O_3  and  C_4 
REMARK    3  A    between atoms: C_4  and  C_5 
REMARK    4  A    between atoms: C_5  and  C_6 
REMARK    5  A    between atoms: C_6  and  C_7 
REMARK    6  A    between atoms: C_13  and  C_14 
REMARK    7  A    between atoms: C_14  and  N_15 
REMARK    8  A    between atoms: N_15  and  C_18 
REMARK    9  A    between atoms: N_21  and  C_23 
REMARK   10  A    between atoms: C_23  and  C_24 
REMARK   11  A    between atoms: C_32  and  O_33 
ROOT
HETATM    1  C   UNL     1       7.124  29.518  57.215  1.00  0.00     0.025 A 
HETATM    2  C   UNL     1       7.153  28.541  56.092  1.00  0.00     0.295 A 
HETATM    3  O   UNL     1       7.951  27.613  56.033  1.00  0.00    -0.259 OA
HETATM    4  O   UNL     1       6.259  28.737  55.054  1.00  0.00    -0.274 OA
HETATM    5  C   UNL     1       5.261  29.721  55.100  1.00  0.00     0.101 A 
HETATM    6  C   UNL     1       5.168  30.579  56.196  1.00  0.00     0.005 A 
HETATM    7  C   UNL     1       4.398  29.788  53.995  1.00  0.00     0.035 A 
HETATM    8  C   UNL     1       3.390  30.754  54.014  1.00  0.00     0.076 A 
HETATM    9  C   UNL     1       3.240  31.609  55.098  1.00  0.00     0.038 A 
HETATM   10  C   UNL     1       4.126  31.518  56.180  1.00  0.00     0.017 A 
HETATM   11  C   UNL     1       6.175  30.481  57.278  1.00  0.00    -0.037 A 
HETATM   12  C   UNL     1       6.086  31.516  58.376  1.00  0.00     0.050 C 
ENDROOT
BRANCH   7  13
HETATM   13  C   UNL     1       4.549  28.865  52.821  1.00  0.00     0.276 C 
BRANCH  13  14
HETATM   14  N   UNL     1       4.390  27.425  53.260  1.00  0.00    -0.067 N 
HETATM   15  H   UNL     1       5.009  27.399  54.095  1.00  0.00     0.277 HD
HETATM   16  H   UNL     1       3.441  27.342  53.641  1.00  0.00     0.277 HD
BRANCH  14  17
HETATM   17  C   UNL     1       4.785  26.373  52.269  1.00  0.00     0.189 C 
HETATM   18  C   UNL     1       4.569  24.957  52.805  1.00  0.00     0.060 C 
HETATM   19  C   UNL     1       5.573  24.536  53.871  1.00  0.00     0.237 C 
HETATM   20  N   UNL     1       6.981  24.745  53.369  1.00  0.00    -0.067 N 
HETATM   21  H   UNL     1       7.137  24.091  52.586  1.00  0.00     0.280 HD
HETATM   22  C   UNL     1       7.256  26.146  52.901  1.00  0.00     0.237 C 
HETATM   23  C   UNL     1       6.243  26.568  51.844  1.00  0.00     0.060 C 
BRANCH  20  24
HETATM   24  C   UNL     1       8.033  24.314  54.404  1.00  0.00     0.273 C 
BRANCH  24  25
HETATM   25  C   UNL     1       8.231  22.828  54.467  1.00  0.00    -0.033 A 
HETATM   26  C   UNL     1       8.396  22.183  55.704  1.00  0.00     0.009 A 
HETATM   27  C   UNL     1       8.607  20.804  55.755  1.00  0.00     0.001 A 
HETATM   28  C   UNL     1       8.655  20.059  54.579  1.00  0.00     0.000 A 
HETATM   29  C   UNL     1       8.487  20.687  53.349  1.00  0.00     0.001 A 
HETATM   30  C   UNL     1       8.272  22.065  53.290  1.00  0.00     0.009 A 
ENDBRANCH  24  25
ENDBRANCH  20  24
ENDBRANCH  14  17
ENDBRANCH  13  14
ENDBRANCH   7  13
BRANCH   8  31
HETATM   31  O   UNL     1       2.582  30.866  52.914  1.00  0.00    -0.360 OA
HETATM   32  H   UNL     1       2.801  30.121  52.313  1.00  0.00     0.217 HD
ENDBRANCH   8  31
BRANCH   1  33
HETATM   33  C   UNL     1       8.243  29.303  58.222  1.00  0.00     0.055 C 
BRANCH  33  34
HETATM   34  C   UNL     1       9.530  30.079  57.932  1.00  0.00     0.116 C 
BRANCH  34  35
HETATM   35  C   UNL     1       9.746  31.228  58.884  1.00  0.00     0.259 C 
HETATM   36  O   UNL     1      10.166  32.328  58.540  1.00  0.00    -0.265 OA
BRANCH  35  37
HETATM   37  O   UNL     1       9.398  30.869  60.146  1.00  0.00    -0.322 OA
BRANCH  37  38
HETATM   38  C   UNL     1       9.382  31.916  61.129  1.00  0.00     0.174 C 
HETATM   39  C   UNL     1       8.485  31.525  62.287  1.00  0.00     0.034 C 
ENDBRANCH  37  38
ENDBRANCH  35  37
ENDBRANCH  34  35
ENDBRANCH  33  34
ENDBRANCH   1  33
TORSDOF 11
ENDMDL
MODEL 4
REMARK VINA RESULT:      -9.2      1.922      3.716
REMARK  11 active torsions:
REMARK  status: ('A' for Active; 'I' for Inactive)
REMARK    1  A    between atoms: C_2  and  O_3 
REMARK    2  A    between atoms: O_3  and  C_4 
REMARK    3  A    between atoms: C_4  and  C_5 
REMARK    4  A    between atoms: C_5  and  C_6 
REMARK    5  A    between atoms: C_6  and  C_7 
REMARK    6  A    between atoms: C_13  and  C_14 
REMARK    7  A    between atoms: C_14  and  N_15 
REMARK    8  A    between atoms: N_15  and  C_18 
REMARK    9  A    between atoms: N_21  and  C_23 
REMARK   10  A    between atoms: C_23  and  C_24 
REMARK   11  A    between atoms: C_32  and  O_33 
ROOT
HETATM    1  C   UNL     1       6.985  32.172  61.054  1.00  0.00     0.025 A 
HETATM    2  C   UNL     1       8.049  31.137  60.945  1.00  0.00     0.295 A 
HETATM    3  O   UNL     1       8.816  30.867  61.861  1.00  0.00    -0.259 OA
HETATM    4  O   UNL     1       8.191  30.495  59.727  1.00  0.00    -0.274 OA
HETATM    5  C   UNL     1       7.292  30.690  58.668  1.00  0.00     0.101 A 
HETATM    6  C   UNL     1       6.234  31.589  58.798  1.00  0.00     0.005 A 
HETATM    7  C   UNL     1       7.533  29.948  57.500  1.00  0.00     0.035 A 
HETATM    8  C   UNL     1       6.652  30.116  56.430  1.00  0.00     0.076 A 
HETATM    9  C   UNL     1       5.566  30.976  56.526  1.00  0.00     0.038 A 
HETATM   10  C   UNL     1       5.363  31.706  57.705  1.00  0.00     0.017 A 
HETATM   11  C   UNL     1       6.109  32.383  60.042  1.00  0.00    -0.037 A 
HETATM   12  C   UNL     1       5.012  33.422  60.071  1.00  0.00     0.050 C 
ENDROOT
BRANCH   7  13
HETATM   13  C   UNL     1       8.700  29.012  57.389  1.00  0.00     0.276 C 
BRANCH  13  14
HETATM   14  N   UNL     1       8.301  27.761  56.636  1.00  0.00    -0.067 N 
HETATM   15  H   UNL     1       7.619  28.145  55.953  1.00  0.00     0.277 HD
HETATM   16  H   UNL     1       9.113  27.495  56.068  1.00  0.00     0.277 HD
BRANCH  14  17
HETATM   17  C   UNL     1       7.687  26.658  57.444  1.00  0.00     0.189 C 
HETATM   18  C   UNL     1       8.505  25.367  57.384  1.00  0.00     0.060 C 
HETATM   19  C   UNL     1       8.417  24.636  56.051  1.00  0.00     0.237 C 
HETATM   20  N   UNL     1       6.973  24.411  55.677  1.00  0.00    -0.067 N 
HETATM   21  H   UNL     1       6.567  23.757  56.364  1.00  0.00     0.280 HD
HETATM   22  C   UNL     1       6.150  25.669  55.651  1.00  0.00     0.237 C 
HETATM   23  C   UNL     1       6.250  26.403  56.983  1.00  0.00     0.060 C 
BRANCH  20  24
HETATM   24  C   UNL     1       6.831  23.657  54.344  1.00  0.00     0.273 C 
BRANCH  24  25
HETATM   25  C   UNL     1       7.513  22.320  54.344  1.00  0.00    -0.033 A 
HETATM   26  C   UNL     1       7.644  21.586  55.533  1.00  0.00     0.009 A 
HETATM   27  C   UNL     1       8.304  20.356  55.532  1.00  0.00     0.001 A 
HETATM   28  C   UNL     1       8.837  19.849  54.350  1.00  0.00     0.000 A 
HETATM   29  C   UNL     1       8.709  20.566  53.164  1.00  0.00     0.001 A 
HETATM   30  C   UNL     1       8.048  21.795  53.157  1.00  0.00     0.009 A 
ENDBRANCH  24  25
ENDBRANCH  20  24
ENDBRANCH  14  17
ENDBRANCH  13  14
ENDBRANCH   7  13
BRANCH   8  31
HETATM   31  O   UNL     1       6.914  29.443  55.266  1.00  0.00    -0.360 OA
HETATM   32  H   UNL     1       7.744  29.813  54.894  1.00  0.00     0.217 HD
ENDBRANCH   8  31
BRANCH   1  33
HETATM   33  C   UNL     1       7.014  32.921  62.377  1.00  0.00     0.055 C 
BRANCH  33  34
HETATM   34  C   UNL     1       6.118  32.334  63.470  1.00  0.00     0.116 C 
BRANCH  34  35
HETATM   35  C   UNL     1       5.245  33.373  64.128  1.00  0.00     0.259 C 
HETATM   36  O   UNL     1       4.528  33.145  65.097  1.00  0.00    -0.265 OA
BRANCH  35  37
HETATM   37  O   UNL     1       5.382  34.571  63.506  1.00  0.00    -0.322 OA
BRANCH  37  38
HETATM   38  C   UNL     1       5.333  35.738  64.341  1.00  0.00     0.174 C 
HETATM   39  C   UNL     1       5.500  36.986  63.499  1.00  0.00     0.034 C 
ENDBRANCH  37  38
ENDBRANCH  35  37
ENDBRANCH  34  35
ENDBRANCH  33  34
ENDBRANCH   1  33
TORSDOF 11
ENDMDL
MODEL 5
REMARK VINA RESULT:      -9.2      1.506      2.160
REMARK  11 active torsions:
REMARK  status: ('A' for Active; 'I' for Inactive)
REMARK    1  A    between atoms: C_2  and  O_3 
REMARK    2  A    between atoms: O_3  and  C_4 
REMARK    3  A    between atoms: C_4  and  C_5 
REMARK    4  A    between atoms: C_5  and  C_6 
REMARK    5  A    between atoms: C_6  and  C_7 
REMARK    6  A    between atoms: C_13  and  C_14 
REMARK    7  A    between atoms: C_14  and  N_15 
REMARK    8  A    between atoms: N_15  and  C_18 
REMARK    9  A    between atoms: N_21  and  C_23 
REMARK   10  A    between atoms: C_23  and  C_24 
REMARK   11  A    between atoms: C_32  and  O_33 
ROOT
HETATM    1  C   UNL     1       5.567  33.351  63.053  1.00  0.00     0.025 A 
HETATM    2  C   UNL     1       4.884  33.199  61.739  1.00  0.00     0.295 A 
HETATM    3  O   UNL     1       3.745  33.597  61.527  1.00  0.00    -0.259 OA
HETATM    4  O   UNL     1       5.569  32.530  60.739  1.00  0.00    -0.274 OA
HETATM    5  C   UNL     1       6.905  32.130  60.885  1.00  0.00     0.101 A 
HETATM    6  C   UNL     1       7.582  32.357  62.083  1.00  0.00     0.005 A 
HETATM    7  C   UNL     1       7.490  31.493  59.779  1.00  0.00     0.035 A 
HETATM    8  C   UNL     1       8.821  31.087  59.891  1.00  0.00     0.076 A 
HETATM    9  C   UNL     1       9.545  31.321  61.053  1.00  0.00     0.038 A 
HETATM   10  C   UNL     1       8.924  31.952  62.140  1.00  0.00     0.017 A 
HETATM   11  C   UNL     1       6.854  32.966  63.220  1.00  0.00    -0.037 A 
HETATM   12  C   UNL     1       7.611  33.075  64.523  1.00  0.00     0.050 C 
ENDROOT
BRANCH   7  13
HETATM   13  C   UNL     1       6.719  31.241  58.517  1.00  0.00     0.276 C 
BRANCH  13  14
HETATM   14  N   UNL     1       6.730  29.765  58.180  1.00  0.00    -0.067 N 
HETATM   15  H   UNL     1       7.683  29.493  58.493  1.00  0.00     0.277 HD
HETATM   16  H   UNL     1       6.100  29.311  58.852  1.00  0.00     0.277 HD
BRANCH  14  17
HETATM   17  C   UNL     1       6.514  29.402  56.743  1.00  0.00     0.189 C 
HETATM   18  C   UNL     1       5.329  28.453  56.553  1.00  0.00     0.060 C 
HETATM   19  C   UNL     1       5.591  27.029  57.024  1.00  0.00     0.237 C 
HETATM   20  N   UNL     1       6.852  26.496  56.390  1.00  0.00    -0.067 N 
HETATM   21  H   UNL     1       6.684  26.412  55.375  1.00  0.00     0.280 HD
HETATM   22  C   UNL     1       8.058  27.363  56.618  1.00  0.00     0.237 C 
HETATM   23  C   UNL     1       7.788  28.790  56.156  1.00  0.00     0.060 C 
BRANCH  20  24
HETATM   24  C   UNL     1       7.150  25.050  56.820  1.00  0.00     0.273 C 
BRANCH  24  25
HETATM   25  C   UNL     1       7.577  24.168  55.683  1.00  0.00    -0.033 A 
HETATM   26  C   UNL     1       6.862  24.167  54.475  1.00  0.00     0.009 A 
HETATM   27  C   UNL     1       7.247  23.325  53.431  1.00  0.00     0.001 A 
HETATM   28  C   UNL     1       8.343  22.479  53.582  1.00  0.00     0.000 A 
HETATM   29  C   UNL     1       9.062  22.475  54.773  1.00  0.00     0.001 A 
HETATM   30  C   UNL     1       8.685  23.317  55.820  1.00  0.00     0.009 A 
ENDBRANCH  24  25
ENDBRANCH  20  24
ENDBRANCH  14  17
ENDBRANCH  13  14
ENDBRANCH   7  13
BRANCH   8  31
HETATM   31  O   UNL     1       9.382  30.412  58.839  1.00  0.00    -0.360 OA
HETATM   32  H   UNL     1       9.276  29.452  59.019  1.00  0.00     0.217 HD
ENDBRANCH   8  31
BRANCH   1  33
HETATM   33  C   UNL     1       4.673  33.960  64.123  1.00  0.00     0.055 C 
BRANCH  33  34
HETATM   34  C   UNL     1       5.041  35.386  64.536  1.00  0.00     0.116 C 
BRANCH  34  35
HETATM   35  C   UNL     1       4.647  36.413  63.504  1.00  0.00     0.259 C 
HETATM   36  O   UNL     1       3.499  36.815  63.349  1.00  0.00    -0.265 OA
BRANCH  35  37
HETATM   37  O   UNL     1       5.734  36.822  62.802  1.00  0.00    -0.322 OA
BRANCH  37  38
HETATM   38  C   UNL     1       5.836  38.230  62.540  1.00  0.00     0.174 C 
HETATM   39  C   UNL     1       6.341  38.951  63.774  1.00  0.00     0.034 C 
ENDBRANCH  37  38
ENDBRANCH  35  37
ENDBRANCH  34  35
ENDBRANCH  33  34
ENDBRANCH   1  33
TORSDOF 11
ENDMDL
MODEL 6
REMARK VINA RESULT:      -8.9      5.857     10.540
REMARK  11 active torsions:
REMARK  status: ('A' for Active; 'I' for Inactive)
REMARK    1  A    between atoms: C_2  and  O_3 
REMARK    2  A    between atoms: O_3  and  C_4 
REMARK    3  A    between atoms: C_4  and  C_5 
REMARK    4  A    between atoms: C_5  and  C_6 
REMARK    5  A    between atoms: C_6  and  C_7 
REMARK    6  A    between atoms: C_13  and  C_14 
REMARK    7  A    between atoms: C_14  and  N_15 
REMARK    8  A    between atoms: N_15  and  C_18 
REMARK    9  A    between atoms: N_21  and  C_23 
REMARK   10  A    between atoms: C_23  and  C_24 
REMARK   11  A    between atoms: C_32  and  O_33 
ROOT
HETATM    1  C   UNL     1       6.769  24.744  54.984  1.00  0.00     0.025 A 
HETATM    2  C   UNL     1       5.648  25.536  54.408  1.00  0.00     0.295 A 
HETATM    3  O   UNL     1       4.878  25.092  53.566  1.00  0.00    -0.259 OA
HETATM    4  O   UNL     1       5.518  26.850  54.824  1.00  0.00    -0.274 OA
HETATM    5  C   UNL     1       6.305  27.393  55.850  1.00  0.00     0.101 A 
HETATM    6  C   UNL     1       7.295  26.623  56.461  1.00  0.00     0.005 A 
HETATM    7  C   UNL     1       6.044  28.728  56.198  1.00  0.00     0.035 A 
HETATM    8  C   UNL     1       6.808  29.296  57.219  1.00  0.00     0.076 A 
HETATM    9  C   UNL     1       7.783  28.557  57.878  1.00  0.00     0.038 A 
HETATM   10  C   UNL     1       8.021  27.230  57.497  1.00  0.00     0.017 A 
HETATM   11  C   UNL     1       7.547  25.249  55.970  1.00  0.00    -0.037 A 
HETATM   12  C   UNL     1       8.710  24.513  56.596  1.00  0.00     0.050 C 
ENDROOT
BRANCH   7  13
HETATM   13  C   UNL     1       4.990  29.533  55.496  1.00  0.00     0.276 C 
BRANCH  13  14
HETATM   14  N   UNL     1       5.328  29.674  54.027  1.00  0.00    -0.067 N 
HETATM   15  H   UNL     1       6.098  30.371  54.063  1.00  0.00     0.277 HD
HETATM   16  H   UNL     1       5.786  28.798  53.751  1.00  0.00     0.277 HD
BRANCH  14  17
HETATM   17  C   UNL     1       4.225  30.140  53.126  1.00  0.00     0.189 C 
HETATM   18  C   UNL     1       3.263  29.013  52.751  1.00  0.00     0.060 C 
HETATM   19  C   UNL     1       3.839  28.005  51.764  1.00  0.00     0.237 C 
HETATM   20  N   UNL     1       4.379  28.719  50.550  1.00  0.00    -0.067 N 
HETATM   21  H   UNL     1       3.580  29.146  50.054  1.00  0.00     0.280 HD
HETATM   22  C   UNL     1       5.386  29.786  50.871  1.00  0.00     0.237 C 
HETATM   23  C   UNL     1       4.810  30.786  51.867  1.00  0.00     0.060 C 
BRANCH  20  24
HETATM   24  C   UNL     1       4.955  27.740  49.513  1.00  0.00     0.273 C 
BRANCH  24  25
HETATM   25  C   UNL     1       3.928  27.223  48.549  1.00  0.00    -0.033 A 
HETATM   26  C   UNL     1       2.905  28.063  48.078  1.00  0.00     0.009 A 
HETATM   27  C   UNL     1       1.936  27.569  47.204  1.00  0.00     0.001 A 
HETATM   28  C   UNL     1       1.976  26.239  46.793  1.00  0.00     0.000 A 
HETATM   29  C   UNL     1       2.988  25.399  47.249  1.00  0.00     0.001 A 
HETATM   30  C   UNL     1       3.963  25.887  48.121  1.00  0.00     0.009 A 
ENDBRANCH  24  25
ENDBRANCH  20  24
ENDBRANCH  14  17
ENDBRANCH  13  14
ENDBRANCH   7  13
BRANCH   8  31
HETATM   31  O   UNL     1       6.602  30.615  57.524  1.00  0.00    -0.360 OA
HETATM   32  H   UNL     1       6.624  30.696  58.502  1.00  0.00     0.217 HD
ENDBRANCH   8  31
BRANCH   1  33
HETATM   33  C   UNL     1       6.915  23.370  54.349  1.00  0.00     0.055 C 
BRANCH  33  34
HETATM   34  C   UNL     1       8.183  23.176  53.514  1.00  0.00     0.116 C 
BRANCH  34  35
HETATM   35  C   UNL     1       8.761  21.790  53.644  1.00  0.00     0.259 C 
HETATM   36  O   UNL     1       8.597  20.903  52.813  1.00  0.00    -0.265 OA
BRANCH  35  37
HETATM   37  O   UNL     1       9.486  21.684  54.787  1.00  0.00    -0.322 OA
BRANCH  37  38
HETATM   38  C   UNL     1       9.226  20.535  55.607  1.00  0.00     0.174 C 
HETATM   39  C   UNL     1       8.321  20.917  56.762  1.00  0.00     0.034 C 
ENDBRANCH  37  38
ENDBRANCH  35  37
ENDBRANCH  34  35
ENDBRANCH  33  34
ENDBRANCH   1  33
TORSDOF 11
ENDMDL
MODEL 7
REMARK VINA RESULT:      -8.9      4.615     11.842
REMARK  11 active torsions:
REMARK  status: ('A' for Active; 'I' for Inactive)
REMARK    1  A    between atoms: C_2  and  O_3 
REMARK    2  A    between atoms: O_3  and  C_4 
REMARK    3  A    between atoms: C_4  and  C_5 
REMARK    4  A    between atoms: C_5  and  C_6 
REMARK    5  A    between atoms: C_6  and  C_7 
REMARK    6  A    between atoms: C_13  and  C_14 
REMARK    7  A    between atoms: C_14  and  N_15 
REMARK    8  A    between atoms: N_15  and  C_18 
REMARK    9  A    between atoms: N_21  and  C_23 
REMARK   10  A    between atoms: C_23  and  C_24 
REMARK   11  A    between atoms: C_32  and  O_33 
ROOT
HETATM    1  C   UNL     1       5.889  25.479  52.679  1.00  0.00     0.025 A 
HETATM    2  C   UNL     1       5.231  26.329  53.709  1.00  0.00     0.295 A 
HETATM    3  O   UNL     1       4.276  27.056  53.467  1.00  0.00    -0.259 OA
HETATM    4  O   UNL     1       5.773  26.318  54.983  1.00  0.00    -0.274 OA
HETATM    5  C   UNL     1       6.805  25.444  55.351  1.00  0.00     0.101 A 
HETATM    6  C   UNL     1       7.361  24.575  54.413  1.00  0.00     0.005 A 
HETATM    7  C   UNL     1       7.236  25.513  56.686  1.00  0.00     0.035 A 
HETATM    8  C   UNL     1       8.259  24.651  57.085  1.00  0.00     0.076 A 
HETATM    9  C   UNL     1       8.821  23.747  56.193  1.00  0.00     0.038 A 
HETATM   10  C   UNL     1       8.371  23.713  54.866  1.00  0.00     0.017 A 
HETATM   11  C   UNL     1       6.892  24.632  53.009  1.00  0.00    -0.037 A 
HETATM   12  C   UNL     1       7.617  23.748  52.021  1.00  0.00     0.050 C 
ENDROOT
BRANCH   7  13
HETATM   13  C   UNL     1       6.632  26.483  57.659  1.00  0.00     0.276 C 
BRANCH  13  14
HETATM   14  N   UNL     1       7.602  27.608  57.949  1.00  0.00    -0.067 N 
HETATM   15  H   UNL     1       7.323  27.872  58.915  1.00  0.00     0.277 HD
HETATM   16  H   UNL     1       8.525  27.173  58.058  1.00  0.00     0.277 HD
BRANCH  14  17
HETATM   17  C   UNL     1       7.549  28.794  57.035  1.00  0.00     0.189 C 
HETATM   18  C   UNL     1       8.941  29.265  56.610  1.00  0.00     0.060 C 
HETATM   19  C   UNL     1       9.723  29.967  57.713  1.00  0.00     0.237 C 
HETATM   20  N   UNL     1       8.901  31.086  58.301  1.00  0.00    -0.067 N 
HETATM   21  H   UNL     1       8.774  31.803  57.569  1.00  0.00     0.280 HD
HETATM   22  C   UNL     1       7.552  30.649  58.799  1.00  0.00     0.237 C 
HETATM   23  C   UNL     1       6.777  29.937  57.697  1.00  0.00     0.060 C 
BRANCH  20  24
HETATM   24  C   UNL     1       9.657  31.840  59.408  1.00  0.00     0.273 C 
BRANCH  24  25
HETATM   25  C   UNL     1       8.826  32.084  60.634  1.00  0.00    -0.033 A 
HETATM   26  C   UNL     1       7.757  32.994  60.602  1.00  0.00     0.009 A 
HETATM   27  C   UNL     1       7.006  33.237  61.752  1.00  0.00     0.001 A 
HETATM   28  C   UNL     1       7.312  32.579  62.941  1.00  0.00     0.000 A 
HETATM   29  C   UNL     1       8.366  31.671  62.983  1.00  0.00     0.001 A 
HETATM   30  C   UNL     1       9.119  31.420  61.835  1.00  0.00     0.009 A 
ENDBRANCH  24  25
ENDBRANCH  20  24
ENDBRANCH  14  17
ENDBRANCH  13  14
ENDBRANCH   7  13
BRANCH   8  31
HETATM   31  O   UNL     1       8.727  24.753  58.369  1.00  0.00    -0.360 OA
HETATM   32  H   UNL     1       8.156  25.401  58.837  1.00  0.00     0.217 HD
ENDBRANCH   8  31
BRANCH   1  33
HETATM   33  C   UNL     1       5.315  25.681  51.285  1.00  0.00     0.055 C 
BRANCH  33  34
HETATM   34  C   UNL     1       5.503  27.085  50.707  1.00  0.00     0.116 C 
BRANCH  34  35
HETATM   35  C   UNL     1       4.537  27.390  49.590  1.00  0.00     0.259 C 
HETATM   36  O   UNL     1       3.743  28.324  49.614  1.00  0.00    -0.265 OA
BRANCH  35  37
HETATM   37  O   UNL     1       4.690  26.502  48.575  1.00  0.00    -0.322 OA
BRANCH  37  38
HETATM   38  C   UNL     1       3.564  26.326  47.702  1.00  0.00     0.174 C 
HETATM   39  C   UNL     1       2.992  24.932  47.867  1.00  0.00     0.034 C 
ENDBRANCH  37  38
ENDBRANCH  35  37
ENDBRANCH  34  35
ENDBRANCH  33  34
ENDBRANCH   1  33
TORSDOF 11
ENDMDL
MODEL 8
REMARK VINA RESULT:      -8.5      5.323     12.321
REMARK  11 active torsions:
REMARK  status: ('A' for Active; 'I' for Inactive)
REMARK    1  A    between atoms: C_2  and  O_3 
REMARK    2  A    between atoms: O_3  and  C_4 
REMARK    3  A    between atoms: C_4  and  C_5 
REMARK    4  A    between atoms: C_5  and  C_6 
REMARK    5  A    between atoms: C_6  and  C_7 
REMARK    6  A    between atoms: C_13  and  C_14 
REMARK    7  A    between atoms: C_14  and  N_15 
REMARK    8  A    between atoms: N_15  and  C_18 
REMARK    9  A    between atoms: N_21  and  C_23 
REMARK   10  A    between atoms: C_23  and  C_24 
REMARK   11  A    between atoms: C_32  and  O_33 
ROOT
HETATM    1  C   UNL     1       5.104  28.242  50.062  1.00  0.00     0.025 A 
HETATM    2  C   UNL     1       5.737  29.241  50.965  1.00  0.00     0.295 A 
HETATM    3  O   UNL     1       5.843  30.428  50.681  1.00  0.00    -0.259 OA
HETATM    4  O   UNL     1       6.267  28.776  52.156  1.00  0.00    -0.274 OA
HETATM    5  C   UNL     1       6.101  27.451  52.584  1.00  0.00     0.101 A 
HETATM    6  C   UNL     1       5.422  26.532  51.784  1.00  0.00     0.005 A 
HETATM    7  C   UNL     1       6.658  27.122  53.830  1.00  0.00     0.035 A 
HETATM    8  C   UNL     1       6.505  25.812  54.286  1.00  0.00     0.076 A 
HETATM    9  C   UNL     1       5.809  24.871  53.538  1.00  0.00     0.038 A 
HETATM   10  C   UNL     1       5.273  25.234  52.295  1.00  0.00     0.017 A 
HETATM   11  C   UNL     1       4.938  26.955  50.450  1.00  0.00    -0.037 A 
HETATM   12  C   UNL     1       4.317  25.881  49.587  1.00  0.00     0.050 C 
ENDROOT
BRANCH   7  13
HETATM   13  C   UNL     1       7.407  28.132  54.648  1.00  0.00     0.276 C 
BRANCH  13  14
HETATM   14  N   UNL     1       6.441  29.075  55.333  1.00  0.00    -0.067 N 
HETATM   15  H   UNL     1       6.998  29.952  55.360  1.00  0.00     0.277 HD
HETATM   16  H   UNL     1       5.694  29.265  54.656  1.00  0.00     0.277 HD
BRANCH  14  17
HETATM   17  C   UNL     1       5.986  28.688  56.708  1.00  0.00     0.189 C 
HETATM   18  C   UNL     1       5.182  29.797  57.388  1.00  0.00     0.060 C 
HETATM   19  C   UNL     1       6.020  30.985  57.842  1.00  0.00     0.237 C 
HETATM   20  N   UNL     1       7.170  30.513  58.696  1.00  0.00    -0.067 N 
HETATM   21  H   UNL     1       6.777  30.120  59.565  1.00  0.00     0.280 HD
HETATM   22  C   UNL     1       8.031  29.475  58.033  1.00  0.00     0.237 C 
HETATM   23  C   UNL     1       7.187  28.294  57.570  1.00  0.00     0.060 C 
BRANCH  20  24
HETATM   24  C   UNL     1       8.037  31.681  59.196  1.00  0.00     0.273 C 
BRANCH  24  25
HETATM   25  C   UNL     1       7.741  32.075  60.614  1.00  0.00    -0.033 A 
HETATM   26  C   UNL     1       6.596  32.827  60.921  1.00  0.00     0.009 A 
HETATM   27  C   UNL     1       6.341  33.214  62.237  1.00  0.00     0.001 A 
HETATM   28  C   UNL     1       7.222  32.857  63.255  1.00  0.00     0.000 A 
HETATM   29  C   UNL     1       8.357  32.106  62.963  1.00  0.00     0.001 A 
HETATM   30  C   UNL     1       8.617  31.713  61.650  1.00  0.00     0.009 A 
ENDBRANCH  24  25
ENDBRANCH  20  24
ENDBRANCH  14  17
ENDBRANCH  13  14
ENDBRANCH   7  13
BRANCH   8  31
HETATM   31  O   UNL     1       7.098  25.466  55.472  1.00  0.00    -0.360 OA
HETATM   32  H   UNL     1       7.977  25.084  55.258  1.00  0.00     0.217 HD
ENDBRANCH   8  31
BRANCH   1  33
HETATM   33  C   UNL     1       4.694  28.828  48.719  1.00  0.00     0.055 C 
BRANCH  33  34
HETATM   34  C   UNL     1       3.383  29.617  48.733  1.00  0.00     0.116 C 
BRANCH  34  35
HETATM   35  C   UNL     1       2.168  28.734  48.600  1.00  0.00     0.259 C 
HETATM   36  O   UNL     1       1.513  28.329  49.554  1.00  0.00    -0.265 OA
BRANCH  35  37
HETATM   37  O   UNL     1       1.912  28.474  47.292  1.00  0.00    -0.322 OA
BRANCH  37  38
HETATM   38  C   UNL     1       1.316  27.202  46.995  1.00  0.00     0.174 C 
HETATM   39  C   UNL     1       2.395  26.154  46.811  1.00  0.00     0.034 C 
ENDBRANCH  37  38
ENDBRANCH  35  37
ENDBRANCH  34  35
ENDBRANCH  33  34
ENDBRANCH   1  33
TORSDOF 11
ENDMDL
MODEL 9
REMARK VINA RESULT:      -8.4      6.923     11.686
REMARK  11 active torsions:
REMARK  status: ('A' for Active; 'I' for Inactive)
REMARK    1  A    between atoms: C_2  and  O_3 
REMARK    2  A    between atoms: O_3  and  C_4 
REMARK    3  A    between atoms: C_4  and  C_5 
REMARK    4  A    between atoms: C_5  and  C_6 
REMARK    5  A    between atoms: C_6  and  C_7 
REMARK    6  A    between atoms: C_13  and  C_14 
REMARK    7  A    between atoms: C_14  and  N_15 
REMARK    8  A    between atoms: N_15  and  C_18 
REMARK    9  A    between atoms: N_21  and  C_23 
REMARK   10  A    between atoms: C_23  and  C_24 
REMARK   11  A    between atoms: C_32  and  O_33 
ROOT
HETATM    1  C   UNL     1       7.412  24.569  53.793  1.00  0.00     0.025 A 
HETATM    2  C   UNL     1       6.644  25.265  52.723  1.00  0.00     0.295 A 
HETATM    3  O   UNL     1       6.678  24.926  51.547  1.00  0.00    -0.259 OA
HETATM    4  O   UNL     1       5.902  26.374  53.091  1.00  0.00    -0.274 OA
HETATM    5  C   UNL     1       5.747  26.761  54.430  1.00  0.00     0.101 A 
HETATM    6  C   UNL     1       6.386  26.053  55.447  1.00  0.00     0.005 A 
HETATM    7  C   UNL     1       4.937  27.884  54.666  1.00  0.00     0.035 A 
HETATM    8  C   UNL     1       4.758  28.291  55.989  1.00  0.00     0.076 A 
HETATM    9  C   UNL     1       5.350  27.598  57.037  1.00  0.00     0.038 A 
HETATM   10  C   UNL     1       6.158  26.486  56.762  1.00  0.00     0.017 A 
HETATM   11  C   UNL     1       7.283  24.929  55.092  1.00  0.00    -0.037 A 
HETATM   12  C   UNL     1       8.036  24.282  56.231  1.00  0.00     0.050 C 
ENDROOT
BRANCH   7  13
HETATM   13  C   UNL     1       4.290  28.637  53.541  1.00  0.00     0.276 C 
BRANCH  13  14
HETATM   14  N   UNL     1       5.329  29.067  52.529  1.00  0.00    -0.067 N 
HETATM   15  H   UNL     1       6.091  29.404  53.151  1.00  0.00     0.277 HD
HETATM   16  H   UNL     1       5.700  28.206  52.112  1.00  0.00     0.277 HD
BRANCH  14  17
HETATM   17  C   UNL     1       4.922  30.134  51.559  1.00  0.00     0.189 C 
HETATM   18  C   UNL     1       3.412  30.152  51.313  1.00  0.00     0.060 C 
HETATM   19  C   UNL     1       2.904  28.988  50.471  1.00  0.00     0.237 C 
HETATM   20  N   UNL     1       3.687  28.898  49.185  1.00  0.00    -0.067 N 
HETATM   21  H   UNL     1       3.475  29.740  48.627  1.00  0.00     0.280 HD
HETATM   22  C   UNL     1       5.174  28.803  49.386  1.00  0.00     0.237 C 
HETATM   23  C   UNL     1       5.676  29.962  50.238  1.00  0.00     0.060 C 
BRANCH  20  24
HETATM   24  C   UNL     1       3.198  27.748  48.290  1.00  0.00     0.273 C 
BRANCH  24  25
HETATM   25  C   UNL     1       2.035  28.126  47.419  1.00  0.00    -0.033 A 
HETATM   26  C   UNL     1       1.829  29.465  47.047  1.00  0.00     0.009 A 
HETATM   27  C   UNL     1       0.731  29.815  46.261  1.00  0.00     0.001 A 
HETATM   28  C   UNL     1      -0.169  28.839  45.841  1.00  0.00     0.000 A 
HETATM   29  C   UNL     1       0.028  27.509  46.200  1.00  0.00     0.001 A 
HETATM   30  C   UNL     1       1.126  27.150  46.983  1.00  0.00     0.009 A 
ENDBRANCH  24  25
ENDBRANCH  20  24
ENDBRANCH  14  17
ENDBRANCH  13  14
ENDBRANCH   7  13
BRANCH   8  31
HETATM   31  O   UNL     1       4.020  29.421  56.224  1.00  0.00    -0.360 OA
HETATM   32  H   UNL     1       4.443  30.155  55.727  1.00  0.00     0.217 HD
ENDBRANCH   8  31
BRANCH   1  33
HETATM   33  C   UNL     1       8.310  23.464  53.259  1.00  0.00     0.055 C 
BRANCH  33  34
HETATM   34  C   UNL     1       7.612  22.123  53.022  1.00  0.00     0.116 C 
BRANCH  34  35
HETATM   35  C   UNL     1       8.445  20.946  53.463  1.00  0.00     0.259 C 
HETATM   36  O   UNL     1       8.735  20.005  52.732  1.00  0.00    -0.265 OA
BRANCH  35  37
HETATM   37  O   UNL     1       8.827  21.094  54.757  1.00  0.00    -0.322 OA
BRANCH  37  38
HETATM   38  C   UNL     1       7.967  20.513  55.749  1.00  0.00     0.174 C 
HETATM   39  C   UNL     1       8.418  20.931  57.135  1.00  0.00     0.034 C 
ENDBRANCH  37  38
ENDBRANCH  35  37
ENDBRANCH  34  35
ENDBRANCH  33  34
ENDBRANCH   1  33
TORSDOF 11
ENDMDL
MODEL 10
REMARK VINA RESULT:      -8.4      2.227      3.688
REMARK  11 active torsions:
REMARK  status: ('A' for Active; 'I' for Inactive)
REMARK    1  A    between atoms: C_2  and  O_3 
REMARK    2  A    between atoms: O_3  and  C_4 
REMARK    3  A    between atoms: C_4  and  C_5 
REMARK    4  A    between atoms: C_5  and  C_6 
REMARK    5  A    between atoms: C_6  and  C_7 
REMARK    6  A    between atoms: C_13  and  C_14 
REMARK    7  A    between atoms: C_14  and  N_15 
REMARK    8  A    between atoms: N_15  and  C_18 
REMARK    9  A    between atoms: N_21  and  C_23 
REMARK   10  A    between atoms: C_23  and  C_24 
REMARK   11  A    between atoms: C_32  and  O_33 
ROOT
HETATM    1  C   UNL     1       3.841  33.693  60.879  1.00  0.00     0.025 A 
HETATM    2  C   UNL     1       3.742  32.215  60.735  1.00  0.00     0.295 A 
HETATM    3  O   UNL     1       3.454  31.470  61.663  1.00  0.00    -0.259 OA
HETATM    4  O   UNL     1       4.040  31.674  59.496  1.00  0.00    -0.274 OA
HETATM    5  C   UNL     1       4.287  32.473  58.370  1.00  0.00     0.101 A 
HETATM    6  C   UNL     1       4.285  33.863  58.478  1.00  0.00     0.005 A 
HETATM    7  C   UNL     1       4.540  31.795  57.166  1.00  0.00     0.035 A 
HETATM    8  C   UNL     1       4.784  32.562  56.026  1.00  0.00     0.076 A 
HETATM    9  C   UNL     1       4.761  33.950  56.080  1.00  0.00     0.038 A 
HETATM   10  C   UNL     1       4.513  34.591  57.300  1.00  0.00     0.017 A 
HETATM   11  C   UNL     1       4.085  34.484  59.807  1.00  0.00    -0.037 A 
HETATM   12  C   UNL     1       4.213  35.989  59.874  1.00  0.00     0.050 C 
ENDROOT
BRANCH   7  13
HETATM   13  C   UNL     1       4.562  30.296  57.097  1.00  0.00     0.276 C 
BRANCH  13  14
HETATM   14  N   UNL     1       5.796  29.756  57.786  1.00  0.00    -0.067 N 
HETATM   15  H   UNL     1       6.021  30.534  58.438  1.00  0.00     0.277 HD
HETATM   16  H   UNL     1       5.477  28.994  58.395  1.00  0.00     0.277 HD
BRANCH  14  17
HETATM   17  C   UNL     1       6.969  29.437  56.910  1.00  0.00     0.189 C 
HETATM   18  C   UNL     1       6.546  28.906  55.540  1.00  0.00     0.060 C 
HETATM   19  C   UNL     1       5.994  27.487  55.565  1.00  0.00     0.237 C 
HETATM   20  N   UNL     1       6.968  26.564  56.255  1.00  0.00    -0.067 N 
HETATM   21  H   UNL     1       7.816  26.507  55.670  1.00  0.00     0.280 HD
HETATM   22  C   UNL     1       7.352  27.012  57.637  1.00  0.00     0.237 C 
HETATM   23  C   UNL     1       7.893  28.436  57.609  1.00  0.00     0.060 C 
BRANCH  20  24
HETATM   24  C   UNL     1       6.464  25.112  56.289  1.00  0.00     0.273 C 
BRANCH  24  25
HETATM   25  C   UNL     1       7.059  24.251  55.213  1.00  0.00    -0.033 A 
HETATM   26  C   UNL     1       7.295  24.774  53.931  1.00  0.00     0.009 A 
HETATM   27  C   UNL     1       7.824  23.961  52.927  1.00  0.00     0.001 A 
HETATM   28  C   UNL     1       8.120  22.626  53.190  1.00  0.00     0.000 A 
HETATM   29  C   UNL     1       7.895  22.099  54.458  1.00  0.00     0.001 A 
HETATM   30  C   UNL     1       7.371  22.906  55.469  1.00  0.00     0.009 A 
ENDBRANCH  24  25
ENDBRANCH  20  24
ENDBRANCH  14  17
ENDBRANCH  13  14
ENDBRANCH   7  13
BRANCH   8  31
HETATM   31  O   UNL     1       5.092  31.910  54.862  1.00  0.00    -0.360 OA
HETATM   32  H   UNL     1       5.865  31.333  55.045  1.00  0.00     0.217 HD
ENDBRANCH   8  31
BRANCH   1  33
HETATM   33  C   UNL     1       3.645  34.167  62.311  1.00  0.00     0.055 C 
BRANCH  33  34
HETATM   34  C   UNL     1       4.938  34.472  63.072  1.00  0.00     0.116 C 
BRANCH  34  35
HETATM   35  C   UNL     1       5.243  33.449  64.136  1.00  0.00     0.259 C 
HETATM   36  O   UNL     1       4.433  33.079  64.978  1.00  0.00    -0.265 OA
BRANCH  35  37
HETATM   37  O   UNL     1       6.519  33.001  64.010  1.00  0.00    -0.322 OA
BRANCH  37  38
HETATM   38  C   UNL     1       6.828  32.272  62.812  1.00  0.00     0.174 C 
HETATM   39  C   UNL     1       8.312  31.972  62.757  1.00  0.00     0.034 C 
ENDBRANCH  37  38
ENDBRANCH  35  37
ENDBRANCH  34  35
ENDBRANCH  33  34
ENDBRANCH   1  33
TORSDOF 11
ENDMDL
