MODEL 1
REMARK VINA RESULT:      -9.3      0.000      0.000
REMARK  5 active torsions:
REMARK  status: ('A' for Active; 'I' for Inactive)
REMARK    1  A    between atoms: C_5  and  C_6 
REMARK    2  A    between atoms: C_9  and  O_10 
REMARK    3  A    between atoms: N_14  and  C_15 
REMARK    4  A    between atoms: C_15  and  C_16 
REMARK       I    between atoms: C_16  and  N_17 
REMARK    5  A    between atoms: N_17  and  C_18 
ROOT
HETATM    1  C   UNL     1       5.601  25.609  51.439  1.00  0.00     0.156 C 
HETATM    2  N   UNL     1       6.081  25.634  52.800  1.00  0.00    -0.346 N 
HETATM    3  C   UNL     1       5.721  26.526  53.751  1.00  0.00     0.113 A 
HETATM    4  C   UNL     1       6.389  26.254  54.912  1.00  0.00     0.014 A 
HETATM    5  C   UNL     1       5.995  27.214  55.975  1.00  0.00     0.158 A 
HETATM    6  N   UNL     1       4.946  27.982  55.253  1.00  0.00    -0.325 N 
HETATM    7  C   UNL     1       4.794  27.595  53.913  1.00  0.00     0.272 A 
HETATM    8  O   UNL     1       3.980  28.015  53.109  1.00  0.00    -0.266 OA
HETATM    9  C   UNL     1       7.163  25.098  54.714  1.00  0.00     0.002 A 
HETATM   10  C   UNL     1       6.956  24.717  53.372  1.00  0.00     0.045 A 
HETATM   11  C   UNL     1       8.004  24.318  55.528  1.00  0.00     0.014 A 
HETATM   12  C   UNL     1       8.611  23.178  54.992  1.00  0.00     0.001 A 
HETATM   13  C   UNL     1       8.395  22.814  53.665  1.00  0.00     0.002 A 
HETATM   14  C   UNL     1       7.570  23.575  52.832  1.00  0.00     0.030 A 
ENDROOT
BRANCH   6  15
HETATM   15  C   UNL     1       3.817  28.529  55.978  1.00  0.00     0.229 C 
BRANCH  15  16
HETATM   16  C   UNL     1       3.932  30.006  56.328  1.00  0.00     0.235 C 
HETATM   17  N   UNL     1       3.759  30.292  57.666  1.00  0.00    -0.355 N 
HETATM   18  H   UNL     1       3.591  29.515  58.295  1.00  0.00     0.162 HD
HETATM   19  O   UNL     1       4.274  30.840  55.492  1.00  0.00    -0.272 OA
BRANCH  17  20
HETATM   20  C   UNL     1       4.190  31.563  58.205  1.00  0.00     0.084 C 
HETATM   21  C   UNL     1       3.594  31.873  59.572  1.00  0.00     0.025 C 
HETATM   22  C   UNL     1       4.522  32.957  60.101  1.00  0.00     0.002 C 
HETATM   23  C   UNL     1       5.913  32.517  59.659  1.00  0.00     0.002 C 
HETATM   24  C   UNL     1       5.705  31.606  58.450  1.00  0.00     0.025 C 
ENDBRANCH  17  20
ENDBRANCH  15  16
ENDBRANCH   6  15
BRANCH   5  25
HETATM   25  C   UNL     1       7.192  28.061  56.362  1.00  0.00    -0.030 A 
HETATM   26  C   UNL     1       8.115  28.591  55.444  1.00  0.00     0.012 A 
HETATM   27  C   UNL     1       9.206  29.354  55.873  1.00  0.00     0.037 A 
HETATM   28  C   UNL     1       9.390  29.637  57.225  1.00  0.00     0.068 A 
HETATM   29  C   UNL     1       8.467  29.151  58.147  1.00  0.00     0.037 A 
HETATM   30  C   UNL     1       7.383  28.371  57.720  1.00  0.00     0.012 A 
BRANCH  28  31
HETATM   31  O   UNL     1      10.498  30.388  57.506  1.00  0.00    -0.356 OA
HETATM   32  C   UNL     1      10.310  31.526  58.337  1.00  0.00     0.210 C 
ENDBRANCH  28  31
ENDBRANCH   5  25
TORSDOF 5
ENDMDL
MODEL 2
REMARK VINA RESULT:      -9.3      2.398      8.153
REMARK  5 active torsions:
REMARK  status: ('A' for Active; 'I' for Inactive)
REMARK    1  A    between atoms: C_5  and  C_6 
REMARK    2  A    between atoms: C_9  and  O_10 
REMARK    3  A    between atoms: N_14  and  C_15 
REMARK    4  A    between atoms: C_15  and  C_16 
REMARK       I    between atoms: C_16  and  N_17 
REMARK    5  A    between atoms: N_17  and  C_18 
ROOT
HETATM    1  C   UNL     1       7.937  30.255  58.002  1.00  0.00     0.156 C 
HETATM    2  N   UNL     1       6.830  29.629  57.318  1.00  0.00    -0.346 N 
HETATM    3  C   UNL     1       6.744  28.323  56.979  1.00  0.00     0.113 A 
HETATM    4  C   UNL     1       5.564  28.094  56.328  1.00  0.00     0.014 A 
HETATM    5  C   UNL     1       5.444  26.660  55.960  1.00  0.00     0.158 A 
HETATM    6  N   UNL     1       6.681  26.127  56.591  1.00  0.00    -0.325 N 
HETATM    7  C   UNL     1       7.479  27.119  57.179  1.00  0.00     0.272 A 
HETATM    8  O   UNL     1       8.512  26.963  57.806  1.00  0.00    -0.266 OA
HETATM    9  C   UNL     1       4.834  29.294  56.307  1.00  0.00     0.002 A 
HETATM   10  C   UNL     1       5.648  30.257  56.939  1.00  0.00     0.045 A 
HETATM   11  C   UNL     1       3.562  29.671  55.839  1.00  0.00     0.014 A 
HETATM   12  C   UNL     1       3.129  30.989  56.016  1.00  0.00     0.001 A 
HETATM   13  C   UNL     1       3.945  31.927  56.644  1.00  0.00     0.002 A 
HETATM   14  C   UNL     1       5.216  31.581  57.113  1.00  0.00     0.030 A 
ENDROOT
BRANCH   6  15
HETATM   15  C   UNL     1       6.705  24.776  57.115  1.00  0.00     0.229 C 
BRANCH  15  16
HETATM   16  C   UNL     1       7.756  23.866  56.497  1.00  0.00     0.235 C 
HETATM   17  N   UNL     1       7.250  22.884  55.672  1.00  0.00    -0.355 N 
HETATM   18  H   UNL     1       6.245  22.860  55.533  1.00  0.00     0.162 HD
HETATM   19  O   UNL     1       8.958  24.083  56.637  1.00  0.00    -0.272 OA
BRANCH  17  20
HETATM   20  C   UNL     1       8.112  22.189  54.743  1.00  0.00     0.084 C 
HETATM   21  C   UNL     1       8.211  20.694  55.012  1.00  0.00     0.025 C 
HETATM   22  C   UNL     1       8.749  20.154  53.695  1.00  0.00     0.002 C 
HETATM   23  C   UNL     1       8.021  20.962  52.627  1.00  0.00     0.002 C 
HETATM   24  C   UNL     1       7.595  22.266  53.300  1.00  0.00     0.025 C 
ENDBRANCH  17  20
ENDBRANCH  15  16
ENDBRANCH   6  15
BRANCH   5  25
HETATM   25  C   UNL     1       5.439  26.523  54.450  1.00  0.00    -0.030 A 
HETATM   26  C   UNL     1       5.789  27.555  53.561  1.00  0.00     0.012 A 
HETATM   27  C   UNL     1       5.749  27.363  52.177  1.00  0.00     0.037 A 
HETATM   28  C   UNL     1       5.391  26.128  51.638  1.00  0.00     0.068 A 
HETATM   29  C   UNL     1       5.076  25.082  52.502  1.00  0.00     0.037 A 
HETATM   30  C   UNL     1       5.099  25.279  53.890  1.00  0.00     0.012 A 
BRANCH  28  31
HETATM   31  O   UNL     1       5.390  26.080  50.272  1.00  0.00    -0.356 OA
HETATM   32  C   UNL     1       4.505  26.963  49.597  1.00  0.00     0.210 C 
ENDBRANCH  28  31
ENDBRANCH   5  25
TORSDOF 5
ENDMDL
MODEL 3
REMARK VINA RESULT:      -9.1      3.081      7.527
REMARK  5 active torsions:
REMARK  status: ('A' for Active; 'I' for Inactive)
REMARK    1  A    between atoms: C_5  and  C_6 
REMARK    2  A    between atoms: C_9  and  O_10 
REMARK    3  A    between atoms: N_14  and  C_15 
REMARK    4  A    between atoms: C_15  and  C_16 
REMARK       I    between atoms: C_16  and  N_17 
REMARK    5  A    between atoms: N_17  and  C_18 
ROOT
HETATM    1  C   UNL     1       3.862  29.841  56.056  1.00  0.00     0.156 C 
HETATM    2  N   UNL     1       5.097  29.189  55.694  1.00  0.00    -0.346 N 
HETATM    3  C   UNL     1       5.345  28.553  54.526  1.00  0.00     0.113 A 
HETATM    4  C   UNL     1       6.612  28.041  54.541  1.00  0.00     0.014 A 
HETATM    5  C   UNL     1       6.909  27.351  53.260  1.00  0.00     0.158 A 
HETATM    6  N   UNL     1       5.659  27.647  52.511  1.00  0.00    -0.325 N 
HETATM    7  C   UNL     1       4.706  28.343  53.270  1.00  0.00     0.272 A 
HETATM    8  O   UNL     1       3.622  28.758  52.898  1.00  0.00    -0.266 OA
HETATM    9  C   UNL     1       7.225  28.421  55.747  1.00  0.00     0.002 A 
HETATM   10  C   UNL     1       6.254  29.149  56.465  1.00  0.00     0.045 A 
HETATM   11  C   UNL     1       8.504  28.247  56.306  1.00  0.00     0.014 A 
HETATM   12  C   UNL     1       8.788  28.804  57.556  1.00  0.00     0.001 A 
HETATM   13  C   UNL     1       7.818  29.521  58.252  1.00  0.00     0.002 A 
HETATM   14  C   UNL     1       6.536  29.704  57.723  1.00  0.00     0.030 A 
ENDROOT
BRANCH   6  15
HETATM   15  C   UNL     1       5.696  27.813  51.072  1.00  0.00     0.229 C 
BRANCH  15  16
HETATM   16  C   UNL     1       4.597  27.082  50.313  1.00  0.00     0.235 C 
HETATM   17  N   UNL     1       3.617  27.902  49.796  1.00  0.00    -0.355 N 
HETATM   18  H   UNL     1       3.713  28.901  49.944  1.00  0.00     0.162 HD
HETATM   19  O   UNL     1       4.665  25.876  50.085  1.00  0.00    -0.272 OA
BRANCH  17  20
HETATM   20  C   UNL     1       2.725  27.420  48.764  1.00  0.00     0.084 C 
HETATM   21  C   UNL     1       1.274  27.825  48.981  1.00  0.00     0.025 C 
HETATM   22  C   UNL     1       0.663  27.626  47.602  1.00  0.00     0.002 C 
HETATM   23  C   UNL     1       1.737  28.116  46.636  1.00  0.00     0.002 C 
HETATM   24  C   UNL     1       3.064  28.001  47.385  1.00  0.00     0.025 C 
ENDBRANCH  17  20
ENDBRANCH  15  16
ENDBRANCH   6  15
BRANCH   5  25
HETATM   25  C   UNL     1       7.112  25.870  53.517  1.00  0.00    -0.030 A 
HETATM   26  C   UNL     1       6.657  25.197  54.665  1.00  0.00     0.012 A 
HETATM   27  C   UNL     1       6.891  23.830  54.842  1.00  0.00     0.037 A 
HETATM   28  C   UNL     1       7.557  23.088  53.869  1.00  0.00     0.068 A 
HETATM   29  C   UNL     1       7.984  23.728  52.709  1.00  0.00     0.037 A 
HETATM   30  C   UNL     1       7.765  25.102  52.537  1.00  0.00     0.012 A 
BRANCH  28  31
HETATM   31  O   UNL     1       7.722  21.765  54.173  1.00  0.00    -0.356 OA
HETATM   32  C   UNL     1       8.277  20.937  53.161  1.00  0.00     0.210 C 
ENDBRANCH  28  31
ENDBRANCH   5  25
TORSDOF 5
ENDMDL
MODEL 4
REMARK VINA RESULT:      -8.7      2.534      4.913
REMARK  5 active torsions:
REMARK  status: ('A' for Active; 'I' for Inactive)
REMARK    1  A    between atoms: C_5  and  C_6 
REMARK    2  A    between atoms: C_9  and  O_10 
REMARK    3  A    between atoms: N_14  and  C_15 
REMARK    4  A    between atoms: C_15  and  C_16 
REMARK       I    between atoms: C_16  and  N_17 
REMARK    5  A    between atoms: N_17  and  C_18 
ROOT
HETATM    1  C   UNL     1       7.859  23.739  57.411  1.00  0.00     0.156 C 
HETATM    2  N   UNL     1       7.787  24.468  56.167  1.00  0.00    -0.346 N 
HETATM    3  C   UNL     1       7.711  25.812  56.039  1.00  0.00     0.113 A 
HETATM    4  C   UNL     1       7.640  26.144  54.714  1.00  0.00     0.014 A 
HETATM    5  C   UNL     1       7.571  27.619  54.552  1.00  0.00     0.158 A 
HETATM    6  N   UNL     1       7.715  28.042  55.971  1.00  0.00    -0.325 N 
HETATM    7  C   UNL     1       7.772  26.967  56.870  1.00  0.00     0.272 A 
HETATM    8  O   UNL     1       7.940  27.019  58.076  1.00  0.00    -0.266 OA
HETATM    9  C   UNL     1       7.739  24.963  53.960  1.00  0.00     0.002 A 
HETATM   10  C   UNL     1       7.833  23.911  54.893  1.00  0.00     0.045 A 
HETATM   11  C   UNL     1       7.778  24.667  52.585  1.00  0.00     0.014 A 
HETATM   12  C   UNL     1       7.918  23.338  52.174  1.00  0.00     0.001 A 
HETATM   13  C   UNL     1       8.011  22.310  53.109  1.00  0.00     0.002 A 
HETATM   14  C   UNL     1       7.967  22.575  54.481  1.00  0.00     0.030 A 
ENDROOT
BRANCH   6  15
HETATM   15  C   UNL     1       8.380  29.289  56.293  1.00  0.00     0.229 C 
BRANCH  15  16
HETATM   16  C   UNL     1       7.853  29.996  57.533  1.00  0.00     0.235 C 
HETATM   17  N   UNL     1       8.717  29.988  58.607  1.00  0.00    -0.355 N 
HETATM   18  H   UNL     1       9.618  29.538  58.482  1.00  0.00     0.162 HD
HETATM   19  O   UNL     1       6.795  30.623  57.516  1.00  0.00    -0.272 OA
BRANCH  17  20
HETATM   20  C   UNL     1       8.528  30.906  59.708  1.00  0.00     0.084 C 
HETATM   21  C   UNL     1       8.642  30.244  61.075  1.00  0.00     0.025 C 
HETATM   22  C   UNL     1       8.876  31.429  62.000  1.00  0.00     0.002 C 
HETATM   23  C   UNL     1       9.811  32.344  61.217  1.00  0.00     0.002 C 
HETATM   24  C   UNL     1       9.604  32.000  59.742  1.00  0.00     0.025 C 
ENDBRANCH  17  20
ENDBRANCH  15  16
ENDBRANCH   6  15
BRANCH   5  25
HETATM   25  C   UNL     1       6.232  28.000  53.950  1.00  0.00    -0.030 A 
HETATM   26  C   UNL     1       5.114  28.403  54.701  1.00  0.00     0.012 A 
HETATM   27  C   UNL     1       3.905  28.728  54.079  1.00  0.00     0.037 A 
HETATM   28  C   UNL     1       3.783  28.693  52.692  1.00  0.00     0.068 A 
HETATM   29  C   UNL     1       4.890  28.332  51.928  1.00  0.00     0.037 A 
HETATM   30  C   UNL     1       6.098  27.989  52.550  1.00  0.00     0.012 A 
BRANCH  28  31
HETATM   31  O   UNL     1       2.546  29.031  52.217  1.00  0.00    -0.356 OA
HETATM   32  C   UNL     1       2.501  29.767  51.003  1.00  0.00     0.210 C 
ENDBRANCH  28  31
ENDBRANCH   5  25
TORSDOF 5
ENDMDL
MODEL 5
REMARK VINA RESULT:      -8.6      2.283      7.012
REMARK  5 active torsions:
REMARK  status: ('A' for Active; 'I' for Inactive)
REMARK    1  A    between atoms: C_5  and  C_6 
REMARK    2  A    between atoms: C_9  and  O_10 
REMARK    3  A    between atoms: N_14  and  C_15 
REMARK    4  A    between atoms: C_15  and  C_16 
REMARK       I    between atoms: C_16  and  N_17 
REMARK    5  A    between atoms: N_17  and  C_18 
ROOT
HETATM    1  C   UNL     1       5.977  31.001  58.573  1.00  0.00     0.156 C 
HETATM    2  N   UNL     1       6.631  30.241  57.535  1.00  0.00    -0.346 N 
HETATM    3  C   UNL     1       6.014  29.523  56.569  1.00  0.00     0.113 A 
HETATM    4  C   UNL     1       6.949  28.922  55.774  1.00  0.00     0.014 A 
HETATM    5  C   UNL     1       6.290  28.140  54.697  1.00  0.00     0.158 A 
HETATM    6  N   UNL     1       4.867  28.483  54.963  1.00  0.00    -0.325 N 
HETATM    7  C   UNL     1       4.691  29.288  56.098  1.00  0.00     0.272 A 
HETATM    8  O   UNL     1       3.647  29.758  56.516  1.00  0.00    -0.266 OA
HETATM    9  C   UNL     1       8.222  29.326  56.211  1.00  0.00     0.002 A 
HETATM   10  C   UNL     1       8.004  30.162  57.326  1.00  0.00     0.045 A 
HETATM   11  C   UNL     1       9.539  29.092  55.775  1.00  0.00     0.014 A 
HETATM   12  C   UNL     1      10.602  29.698  56.451  1.00  0.00     0.001 A 
HETATM   13  C   UNL     1      10.370  30.523  57.549  1.00  0.00     0.002 A 
HETATM   14  C   UNL     1       9.072  30.767  58.008  1.00  0.00     0.030 A 
ENDROOT
BRANCH   6  15
HETATM   15  C   UNL     1       3.922  28.562  53.867  1.00  0.00     0.229 C 
BRANCH  15  16
HETATM   16  C   UNL     1       4.548  28.626  52.482  1.00  0.00     0.235 C 
HETATM   17  N   UNL     1       4.289  27.531  51.685  1.00  0.00    -0.355 N 
HETATM   18  H   UNL     1       3.702  26.798  52.070  1.00  0.00     0.162 HD
HETATM   19  O   UNL     1       5.128  29.634  52.084  1.00  0.00    -0.272 OA
BRANCH  17  20
HETATM   20  C   UNL     1       4.495  27.598  50.256  1.00  0.00     0.084 C 
HETATM   21  C   UNL     1       4.754  26.240  49.617  1.00  0.00     0.025 C 
HETATM   22  C   UNL     1       4.470  26.505  48.146  1.00  0.00     0.002 C 
HETATM   23  C   UNL     1       3.255  27.426  48.152  1.00  0.00     0.002 C 
HETATM   24  C   UNL     1       3.257  28.120  49.514  1.00  0.00     0.025 C 
ENDBRANCH  17  20
ENDBRANCH  15  16
ENDBRANCH   6  15
BRANCH   5  25
HETATM   25  C   UNL     1       6.592  26.666  54.885  1.00  0.00    -0.030 A 
HETATM   26  C   UNL     1       7.104  25.829  53.877  1.00  0.00     0.012 A 
HETATM   27  C   UNL     1       7.346  24.473  54.116  1.00  0.00     0.037 A 
HETATM   28  C   UNL     1       7.117  23.919  55.374  1.00  0.00     0.068 A 
HETATM   29  C   UNL     1       6.645  24.738  56.396  1.00  0.00     0.037 A 
HETATM   30  C   UNL     1       6.384  26.094  56.152  1.00  0.00     0.012 A 
BRANCH  28  31
HETATM   31  O   UNL     1       7.392  22.582  55.468  1.00  0.00    -0.356 OA
HETATM   32  C   UNL     1       7.870  21.940  54.294  1.00  0.00     0.210 C 
ENDBRANCH  28  31
ENDBRANCH   5  25
TORSDOF 5
ENDMDL
MODEL 6
REMARK VINA RESULT:      -8.6      2.457      4.824
REMARK  5 active torsions:
REMARK  status: ('A' for Active; 'I' for Inactive)
REMARK    1  A    between atoms: C_5  and  C_6 
REMARK    2  A    between atoms: C_9  and  O_10 
REMARK    3  A    between atoms: N_14  and  C_15 
REMARK    4  A    between atoms: C_15  and  C_16 
REMARK       I    between atoms: C_16  and  N_17 
REMARK    5  A    between atoms: N_17  and  C_18 
ROOT
HETATM    1  C   UNL     1       6.640  24.439  56.405  1.00  0.00     0.156 C 
HETATM    2  N   UNL     1       6.432  25.664  55.669  1.00  0.00    -0.346 N 
HETATM    3  C   UNL     1       6.619  26.916  56.144  1.00  0.00     0.113 A 
HETATM    4  C   UNL     1       6.307  27.828  55.174  1.00  0.00     0.014 A 
HETATM    5  C   UNL     1       6.521  29.210  55.673  1.00  0.00     0.158 A 
HETATM    6  N   UNL     1       7.086  28.916  57.017  1.00  0.00    -0.325 N 
HETATM    7  C   UNL     1       7.123  27.547  57.318  1.00  0.00     0.272 A 
HETATM    8  O   UNL     1       7.581  27.021  58.318  1.00  0.00    -0.266 OA
HETATM    9  C   UNL     1       5.967  27.126  54.005  1.00  0.00     0.002 A 
HETATM   10  C   UNL     1       6.052  25.757  54.334  1.00  0.00     0.045 A 
HETATM   11  C   UNL     1       5.613  27.497  52.696  1.00  0.00     0.014 A 
HETATM   12  C   UNL     1       5.361  26.502  51.746  1.00  0.00     0.001 A 
HETATM   13  C   UNL     1       5.451  25.154  52.086  1.00  0.00     0.002 A 
HETATM   14  C   UNL     1       5.794  24.757  53.382  1.00  0.00     0.030 A 
ENDROOT
BRANCH   6  15
HETATM   15  C   UNL     1       8.061  29.812  57.607  1.00  0.00     0.229 C 
BRANCH  15  16
HETATM   16  C   UNL     1       7.487  30.837  58.574  1.00  0.00     0.235 C 
HETATM   17  N   UNL     1       7.891  30.677  59.883  1.00  0.00    -0.355 N 
HETATM   18  H   UNL     1       8.535  29.920  60.087  1.00  0.00     0.162 HD
HETATM   19  O   UNL     1       6.822  31.793  58.180  1.00  0.00    -0.272 OA
BRANCH  17  20
HETATM   20  C   UNL     1       7.737  31.755  60.835  1.00  0.00     0.084 C 
HETATM   21  C   UNL     1       6.394  31.739  61.554  1.00  0.00     0.025 C 
HETATM   22  C   UNL     1       6.656  32.619  62.767  1.00  0.00     0.002 C 
HETATM   23  C   UNL     1       8.066  32.247  63.210  1.00  0.00     0.002 C 
HETATM   24  C   UNL     1       8.761  31.674  61.975  1.00  0.00     0.025 C 
ENDBRANCH  17  20
ENDBRANCH  15  16
ENDBRANCH   6  15
BRANCH   5  25
HETATM   25  C   UNL     1       5.191  29.938  55.733  1.00  0.00    -0.030 A 
HETATM   26  C   UNL     1       4.324  29.910  56.839  1.00  0.00     0.012 A 
HETATM   27  C   UNL     1       3.105  30.595  56.820  1.00  0.00     0.037 A 
HETATM   28  C   UNL     1       2.730  31.353  55.713  1.00  0.00     0.068 A 
HETATM   29  C   UNL     1       3.591  31.424  54.622  1.00  0.00     0.037 A 
HETATM   30  C   UNL     1       4.806  30.723  54.632  1.00  0.00     0.012 A 
BRANCH  28  31
HETATM   31  O   UNL     1       1.513  31.967  55.827  1.00  0.00    -0.356 OA
HETATM   32  C   UNL     1       1.274  33.084  54.981  1.00  0.00     0.210 C 
ENDBRANCH  28  31
ENDBRANCH   5  25
TORSDOF 5
ENDMDL
MODEL 7
REMARK VINA RESULT:      -8.5      2.126      7.683
REMARK  5 active torsions:
REMARK  status: ('A' for Active; 'I' for Inactive)
REMARK    1  A    between atoms: C_5  and  C_6 
REMARK    2  A    between atoms: C_9  and  O_10 
REMARK    3  A    between atoms: N_14  and  C_15 
REMARK    4  A    between atoms: C_15  and  C_16 
REMARK       I    between atoms: C_16  and  N_17 
REMARK    5  A    between atoms: N_17  and  C_18 
ROOT
HETATM    1  C   UNL     1      10.476  29.394  56.956  1.00  0.00     0.156 C 
HETATM    2  N   UNL     1       9.154  29.676  57.462  1.00  0.00    -0.346 N 
HETATM    3  C   UNL     1       8.024  29.004  57.145  1.00  0.00     0.113 A 
HETATM    4  C   UNL     1       6.959  29.561  57.797  1.00  0.00     0.014 A 
HETATM    5  C   UNL     1       5.710  28.827  57.474  1.00  0.00     0.158 A 
HETATM    6  N   UNL     1       6.264  27.733  56.631  1.00  0.00    -0.325 N 
HETATM    7  C   UNL     1       7.643  27.847  56.407  1.00  0.00     0.272 A 
HETATM    8  O   UNL     1       8.361  27.070  55.801  1.00  0.00    -0.266 OA
HETATM    9  C   UNL     1       7.440  30.595  58.619  1.00  0.00     0.002 A 
HETATM   10  C   UNL     1       8.831  30.655  58.396  1.00  0.00     0.045 A 
HETATM   11  C   UNL     1       6.854  31.479  59.543  1.00  0.00     0.014 A 
HETATM   12  C   UNL     1       7.663  32.391  60.227  1.00  0.00     0.001 A 
HETATM   13  C   UNL     1       9.036  32.436  59.997  1.00  0.00     0.002 A 
HETATM   14  C   UNL     1       9.644  31.574  59.079  1.00  0.00     0.030 A 
ENDROOT
BRANCH   6  15
HETATM   15  C   UNL     1       5.638  26.426  56.634  1.00  0.00     0.229 C 
BRANCH  15  16
HETATM   16  C   UNL     1       5.884  25.593  55.384  1.00  0.00     0.235 C 
HETATM   17  N   UNL     1       6.836  24.607  55.533  1.00  0.00    -0.355 N 
HETATM   18  H   UNL     1       7.272  24.507  56.444  1.00  0.00     0.162 HD
HETATM   19  O   UNL     1       5.193  25.725  54.377  1.00  0.00    -0.272 OA
BRANCH  17  20
HETATM   20  C   UNL     1       6.923  23.521  54.582  1.00  0.00     0.084 C 
HETATM   21  C   UNL     1       7.798  23.841  53.377  1.00  0.00     0.025 C 
HETATM   22  C   UNL     1       8.100  22.461  52.811  1.00  0.00     0.002 C 
HETATM   23  C   UNL     1       8.316  21.584  54.038  1.00  0.00     0.002 C 
HETATM   24  C   UNL     1       7.575  22.271  55.185  1.00  0.00     0.025 C 
ENDBRANCH  17  20
ENDBRANCH  15  16
ENDBRANCH   6  15
BRANCH   5  25
HETATM   25  C   UNL     1       4.766  29.742  56.717  1.00  0.00    -0.030 A 
HETATM   26  C   UNL     1       3.970  30.731  57.320  1.00  0.00     0.012 A 
HETATM   27  C   UNL     1       3.111  31.531  56.561  1.00  0.00     0.037 A 
HETATM   28  C   UNL     1       3.044  31.391  55.176  1.00  0.00     0.068 A 
HETATM   29  C   UNL     1       3.851  30.443  54.555  1.00  0.00     0.037 A 
HETATM   30  C   UNL     1       4.700  29.628  55.317  1.00  0.00     0.012 A 
BRANCH  28  31
HETATM   31  O   UNL     1       2.161  32.234  54.559  1.00  0.00    -0.356 OA
HETATM   32  C   UNL     1       2.598  32.858  53.360  1.00  0.00     0.210 C 
ENDBRANCH  28  31
ENDBRANCH   5  25
TORSDOF 5
ENDMDL
MODEL 8
REMARK VINA RESULT:      -8.5      2.765      5.437
REMARK  5 active torsions:
REMARK  status: ('A' for Active; 'I' for Inactive)
REMARK    1  A    between atoms: C_5  and  C_6 
REMARK    2  A    between atoms: C_9  and  O_10 
REMARK    3  A    between atoms: N_14  and  C_15 
REMARK    4  A    between atoms: C_15  and  C_16 
REMARK       I    between atoms: C_16  and  N_17 
REMARK    5  A    between atoms: N_17  and  C_18 
ROOT
HETATM    1  C   UNL     1       5.613  30.613  50.184  1.00  0.00     0.156 C 
HETATM    2  N   UNL     1       5.288  29.226  50.420  1.00  0.00    -0.346 N 
HETATM    3  C   UNL     1       5.181  28.632  51.630  1.00  0.00     0.113 A 
HETATM    4  C   UNL     1       4.879  27.309  51.467  1.00  0.00     0.014 A 
HETATM    5  C   UNL     1       4.742  26.641  52.786  1.00  0.00     0.158 A 
HETATM    6  N   UNL     1       4.915  27.812  53.688  1.00  0.00    -0.325 N 
HETATM    7  C   UNL     1       5.206  29.002  53.005  1.00  0.00     0.272 A 
HETATM    8  O   UNL     1       5.343  30.115  53.483  1.00  0.00    -0.266 OA
HETATM    9  C   UNL     1       4.723  27.060  50.093  1.00  0.00     0.002 A 
HETATM   10  C   UNL     1       4.984  28.284  49.443  1.00  0.00     0.045 A 
HETATM   11  C   UNL     1       4.371  25.936  49.324  1.00  0.00     0.014 A 
HETATM   12  C   UNL     1       4.278  26.057  47.934  1.00  0.00     0.001 A 
HETATM   13  C   UNL     1       4.538  27.274  47.308  1.00  0.00     0.002 A 
HETATM   14  C   UNL     1       4.897  28.405  48.047  1.00  0.00     0.030 A 
ENDROOT
BRANCH   6  15
HETATM   15  C   UNL     1       4.221  27.859  54.959  1.00  0.00     0.229 C 
BRANCH  15  16
HETATM   16  C   UNL     1       5.124  27.860  56.184  1.00  0.00     0.235 C 
HETATM   17  N   UNL     1       5.872  29.007  56.343  1.00  0.00    -0.355 N 
HETATM   18  H   UNL     1       5.751  29.746  55.658  1.00  0.00     0.162 HD
HETATM   19  O   UNL     1       5.080  26.956  57.016  1.00  0.00    -0.272 OA
BRANCH  17  20
HETATM   20  C   UNL     1       6.486  29.312  57.616  1.00  0.00     0.084 C 
HETATM   21  C   UNL     1       7.992  29.086  57.631  1.00  0.00     0.025 C 
HETATM   22  C   UNL     1       8.436  29.890  58.844  1.00  0.00     0.002 C 
HETATM   23  C   UNL     1       7.585  31.153  58.797  1.00  0.00     0.002 C 
HETATM   24  C   UNL     1       6.335  30.792  57.993  1.00  0.00     0.025 C 
ENDBRANCH  17  20
ENDBRANCH  15  16
ENDBRANCH   6  15
BRANCH   5  25
HETATM   25  C   UNL     1       5.836  25.602  52.944  1.00  0.00    -0.030 A 
HETATM   26  C   UNL     1       6.926  25.461  52.068  1.00  0.00     0.012 A 
HETATM   27  C   UNL     1       7.891  24.470  52.267  1.00  0.00     0.037 A 
HETATM   28  C   UNL     1       7.817  23.612  53.362  1.00  0.00     0.068 A 
HETATM   29  C   UNL     1       6.765  23.758  54.262  1.00  0.00     0.037 A 
HETATM   30  C   UNL     1       5.786  24.739  54.054  1.00  0.00     0.012 A 
BRANCH  28  31
HETATM   31  O   UNL     1       8.823  22.688  53.433  1.00  0.00    -0.356 OA
HETATM   32  C   UNL     1       9.146  22.187  54.723  1.00  0.00     0.210 C 
ENDBRANCH  28  31
ENDBRANCH   5  25
TORSDOF 5
ENDMDL
MODEL 9
REMARK VINA RESULT:      -8.5      2.671      7.465
REMARK  5 active torsions:
REMARK  status: ('A' for Active; 'I' for Inactive)
REMARK    1  A    between atoms: C_5  and  C_6 
REMARK    2  A    between atoms: C_9  and  O_10 
REMARK    3  A    between atoms: N_14  and  C_15 
REMARK    4  A    between atoms: C_15  and  C_16 
REMARK       I    between atoms: C_16  and  N_17 
REMARK    5  A    between atoms: N_17  and  C_18 
ROOT
HETATM    1  C   UNL     1       3.931  32.697  61.811  1.00  0.00     0.156 C 
HETATM    2  N   UNL     1       5.105  32.356  61.043  1.00  0.00    -0.346 N 
HETATM    3  C   UNL     1       5.140  32.120  59.712  1.00  0.00     0.113 A 
HETATM    4  C   UNL     1       6.417  31.808  59.335  1.00  0.00     0.014 A 
HETATM    5  C   UNL     1       6.480  31.559  57.872  1.00  0.00     0.158 A 
HETATM    6  N   UNL     1       5.077  31.878  57.495  1.00  0.00    -0.325 N 
HETATM    7  C   UNL     1       4.261  32.187  58.594  1.00  0.00     0.272 A 
HETATM    8  O   UNL     1       3.093  32.534  58.574  1.00  0.00    -0.266 OA
HETATM    9  C   UNL     1       7.247  31.912  60.464  1.00  0.00     0.002 A 
HETATM   10  C   UNL     1       6.401  32.261  61.538  1.00  0.00     0.045 A 
HETATM   11  C   UNL     1       8.626  31.767  60.695  1.00  0.00     0.014 A 
HETATM   12  C   UNL     1       9.132  31.980  61.982  1.00  0.00     0.001 A 
HETATM   13  C   UNL     1       8.284  32.326  63.031  1.00  0.00     0.002 A 
HETATM   14  C   UNL     1       6.907  32.470  62.831  1.00  0.00     0.030 A 
ENDROOT
BRANCH   6  15
HETATM   15  C   UNL     1       4.785  32.449  56.195  1.00  0.00     0.229 C 
BRANCH  15  16
HETATM   16  C   UNL     1       3.926  31.579  55.290  1.00  0.00     0.235 C 
HETATM   17  N   UNL     1       4.622  30.931  54.290  1.00  0.00    -0.355 N 
HETATM   18  H   UNL     1       5.627  31.070  54.252  1.00  0.00     0.162 HD
HETATM   19  O   UNL     1       2.735  31.386  55.523  1.00  0.00    -0.272 OA
BRANCH  17  20
HETATM   20  C   UNL     1       4.032  29.811  53.593  1.00  0.00     0.084 C 
HETATM   21  C   UNL     1       4.597  29.603  52.195  1.00  0.00     0.025 C 
HETATM   22  C   UNL     1       4.193  28.169  51.882  1.00  0.00     0.002 C 
HETATM   23  C   UNL     1       4.393  27.423  53.196  1.00  0.00     0.002 C 
HETATM   24  C   UNL     1       4.307  28.477  54.300  1.00  0.00     0.025 C 
ENDBRANCH  17  20
ENDBRANCH  15  16
ENDBRANCH   6  15
BRANCH   5  25
HETATM   25  C   UNL     1       6.850  30.110  57.619  1.00  0.00    -0.030 A 
HETATM   26  C   UNL     1       5.916  29.075  57.440  1.00  0.00     0.012 A 
HETATM   27  C   UNL     1       6.328  27.757  57.224  1.00  0.00     0.037 A 
HETATM   28  C   UNL     1       7.683  27.437  57.148  1.00  0.00     0.068 A 
HETATM   29  C   UNL     1       8.624  28.454  57.287  1.00  0.00     0.037 A 
HETATM   30  C   UNL     1       8.211  29.773  57.522  1.00  0.00     0.012 A 
BRANCH  28  31
HETATM   31  O   UNL     1       7.945  26.112  56.937  1.00  0.00    -0.356 OA
HETATM   32  C   UNL     1       6.863  25.206  57.107  1.00  0.00     0.210 C 
ENDBRANCH  28  31
ENDBRANCH   5  25
TORSDOF 5
ENDMDL
MODEL 10
REMARK VINA RESULT:      -8.4      1.731      2.317
REMARK  5 active torsions:
REMARK  status: ('A' for Active; 'I' for Inactive)
REMARK    1  A    between atoms: C_5  and  C_6 
REMARK    2  A    between atoms: C_9  and  O_10 
REMARK    3  A    between atoms: N_14  and  C_15 
REMARK    4  A    between atoms: C_15  and  C_16 
REMARK       I    between atoms: C_16  and  N_17 
REMARK    5  A    between atoms: N_17  and  C_18 
ROOT
HETATM    1  C   UNL     1       5.515  25.703  51.469  1.00  0.00     0.156 C 
HETATM    2  N   UNL     1       6.004  25.705  52.827  1.00  0.00    -0.346 N 
HETATM    3  C   UNL     1       5.664  26.591  53.791  1.00  0.00     0.113 A 
HETATM    4  C   UNL     1       6.335  26.296  54.944  1.00  0.00     0.014 A 
HETATM    5  C   UNL     1       5.963  27.250  56.020  1.00  0.00     0.158 A 
HETATM    6  N   UNL     1       4.921  28.042  55.314  1.00  0.00    -0.325 N 
HETATM    7  C   UNL     1       4.755  27.673  53.971  1.00  0.00     0.272 A 
HETATM    8  O   UNL     1       3.942  28.115  53.177  1.00  0.00    -0.266 OA
HETATM    9  C   UNL     1       7.089  25.130  54.728  1.00  0.00     0.002 A 
HETATM   10  C   UNL     1       6.868  24.768  53.383  1.00  0.00     0.045 A 
HETATM   11  C   UNL     1       7.923  24.328  55.527  1.00  0.00     0.014 A 
HETATM   12  C   UNL     1       8.509  23.185  54.975  1.00  0.00     0.001 A 
HETATM   13  C   UNL     1       8.279  22.840  53.645  1.00  0.00     0.002 A 
HETATM   14  C   UNL     1       7.460  23.623  52.826  1.00  0.00     0.030 A 
ENDROOT
BRANCH   6  15
HETATM   15  C   UNL     1       3.805  28.599  56.053  1.00  0.00     0.229 C 
BRANCH  15  16
HETATM   16  C   UNL     1       3.860  30.105  56.261  1.00  0.00     0.235 C 
HETATM   17  N   UNL     1       3.592  30.849  55.132  1.00  0.00    -0.355 N 
HETATM   18  H   UNL     1       3.368  30.346  54.279  1.00  0.00     0.162 HD
HETATM   19  O   UNL     1       4.009  30.595  57.379  1.00  0.00    -0.272 OA
BRANCH  17  20
HETATM   20  C   UNL     1       3.250  32.250  55.240  1.00  0.00     0.084 C 
HETATM   21  C   UNL     1       3.964  33.127  54.221  1.00  0.00     0.025 C 
HETATM   22  C   UNL     1       3.121  34.394  54.224  1.00  0.00     0.002 C 
HETATM   23  C   UNL     1       1.685  33.894  54.325  1.00  0.00     0.002 C 
HETATM   24  C   UNL     1       1.762  32.507  54.963  1.00  0.00     0.025 C 
ENDBRANCH  17  20
ENDBRANCH  15  16
ENDBRANCH   6  15
BRANCH   5  25
HETATM   25  C   UNL     1       7.175  28.073  56.409  1.00  0.00    -0.030 A 
HETATM   26  C   UNL     1       8.113  28.581  55.493  1.00  0.00     0.012 A 
HETATM   27  C   UNL     1       9.217  29.323  55.924  1.00  0.00     0.037 A 
HETATM   28  C   UNL     1       9.402  29.607  57.275  1.00  0.00     0.068 A 
HETATM   29  C   UNL     1       8.465  29.144  58.195  1.00  0.00     0.037 A 
HETATM   30  C   UNL     1       7.367  28.385  57.767  1.00  0.00     0.012 A 
BRANCH  28  31
HETATM   31  O   UNL     1      10.523  30.337  57.558  1.00  0.00    -0.356 OA
HETATM   32  C   UNL     1      10.337  31.555  58.267  1.00  0.00     0.210 C 
ENDBRANCH  28  31
ENDBRANCH   5  25
TORSDOF 5
ENDMDL
