MODEL 1
REMARK VINA RESULT:      -8.9      0.000      0.000
REMARK  6 active torsions:
REMARK  status: ('A' for Active; 'I' for Inactive)
REMARK    1  A    between atoms: C_2  and  O_3 
REMARK    2  A    between atoms: C_2  and  C_4 
REMARK    3  A    between atoms: C_6  and  C_16 
REMARK    4  A    between atoms: C_9  and  C_10 
REMARK       I    between atoms: C_16  and  N_18 
REMARK    5  A    between atoms: N_18  and  C_19 
REMARK    6  A    between atoms: C_19  and  C_21 
ROOT
HETATM    1  C   UNL     1       6.105  32.579  61.653  1.00  0.00    -0.018 A 
HETATM    2  C   UNL     1       5.450  32.972  62.841  1.00  0.00     0.027 A 
HETATM    3  C   UNL     1       6.123  33.027  64.071  1.00  0.00     0.032 A 
HETATM    4  C   UNL     1       7.470  32.666  64.130  1.00  0.00     0.018 A 
HETATM    5  C   UNL     1       8.141  32.297  62.961  1.00  0.00     0.014 A 
HETATM    6  C   UNL     1       7.475  32.259  61.723  1.00  0.00    -0.014 A 
ENDROOT
BRANCH   3   7
HETATM    7  C   UNL     1       5.355  33.467  65.270  1.00  0.00     0.252 C 
HETATM    8  O   UNL     1       4.134  33.558  65.217  1.00  0.00    -0.268 OA
HETATM    9  N   UNL     1       6.087  33.800  66.391  1.00  0.00    -0.349 N 
HETATM   10  H   UNL     1       7.091  33.872  66.324  1.00  0.00     0.163 HD
BRANCH   9  11
HETATM   11  C   UNL     1       5.449  34.409  67.549  1.00  0.00     0.114 C 
HETATM   12  C   UNL     1       5.110  35.876  67.276  1.00  0.00     0.037 C 
BRANCH  11  13
HETATM   13  C   UNL     1       6.325  34.258  68.782  1.00  0.00    -0.036 A 
HETATM   14  C   UNL     1       7.574  34.903  68.826  1.00  0.00     0.012 A 
HETATM   15  C   UNL     1       8.406  34.769  69.939  1.00  0.00     0.043 A 
HETATM   16  C   UNL     1       7.991  33.996  71.015  1.00  0.00     0.116 A 
HETATM   17  F   UNL     1       8.789  33.866  72.083  1.00  0.00    -0.206 F 
HETATM   18  C   UNL     1       6.760  33.352  70.999  1.00  0.00     0.043 A 
HETATM   19  C   UNL     1       5.928  33.480  69.884  1.00  0.00     0.012 A 
ENDBRANCH  11  13
ENDBRANCH   9  11
ENDBRANCH   3   7
BRANCH   1  20
HETATM   20  C   UNL     1       5.329  32.580  60.346  1.00  0.00     0.148 C 
HETATM   21  C   UNL     1       4.585  33.891  60.129  1.00  0.00     0.044 C 
BRANCH  20  22
HETATM   22  O   UNL     1       4.377  31.513  60.318  1.00  0.00    -0.391 OA
HETATM   23  H   UNL     1       3.509  31.905  60.123  1.00  0.00     0.210 HD
ENDBRANCH  20  22
ENDBRANCH   1  20
BRANCH   6  24
HETATM   24  C   UNL     1       8.255  31.918  60.554  1.00  0.00     0.011 A 
HETATM   25  C   UNL     1       9.299  32.618  59.915  1.00  0.00     0.152 A 
HETATM   26  N   UNL     1       9.788  31.953  58.864  1.00  0.00    -0.187 NA
HETATM   27  N   UNL     1       9.064  30.822  58.839  1.00  0.00    -0.289 N 
HETATM   28  H   UNL     1       9.258  30.143  58.110  1.00  0.00     0.188 HD
HETATM   29  C   UNL     1       8.139  30.745  59.843  1.00  0.00     0.123 A 
ENDBRANCH   6  24
TORSDOF 6
ENDMDL
MODEL 2
REMARK VINA RESULT:      -8.9      8.110     11.967
REMARK  6 active torsions:
REMARK  status: ('A' for Active; 'I' for Inactive)
REMARK    1  A    between atoms: C_2  and  O_3 
REMARK    2  A    between atoms: C_2  and  C_4 
REMARK    3  A    between atoms: C_6  and  C_16 
REMARK    4  A    between atoms: C_9  and  C_10 
REMARK       I    between atoms: C_16  and  N_18 
REMARK    5  A    between atoms: N_18  and  C_19 
REMARK    6  A    between atoms: C_19  and  C_21 
ROOT
HETATM    1  C   UNL     1       7.277  24.038  54.419  1.00  0.00    -0.018 A 
HETATM    2  C   UNL     1       7.124  25.176  55.241  1.00  0.00     0.027 A 
HETATM    3  C   UNL     1       7.578  25.194  56.569  1.00  0.00     0.032 A 
HETATM    4  C   UNL     1       8.180  24.053  57.100  1.00  0.00     0.018 A 
HETATM    5  C   UNL     1       8.363  22.925  56.296  1.00  0.00     0.014 A 
HETATM    6  C   UNL     1       7.926  22.910  54.959  1.00  0.00    -0.014 A 
ENDROOT
BRANCH   3   7
HETATM    7  C   UNL     1       7.387  26.444  57.358  1.00  0.00     0.252 C 
HETATM    8  O   UNL     1       7.655  26.461  58.554  1.00  0.00    -0.268 OA
HETATM    9  N   UNL     1       6.863  27.530  56.688  1.00  0.00    -0.349 N 
HETATM   10  H   UNL     1       6.501  27.408  55.754  1.00  0.00     0.163 HD
BRANCH   9  11
HETATM   11  C   UNL     1       6.473  28.735  57.404  1.00  0.00     0.114 C 
HETATM   12  C   UNL     1       5.452  29.543  56.599  1.00  0.00     0.037 C 
BRANCH  11  13
HETATM   13  C   UNL     1       7.696  29.569  57.750  1.00  0.00    -0.036 A 
HETATM   14  C   UNL     1       7.618  30.515  58.788  1.00  0.00     0.012 A 
HETATM   15  C   UNL     1       8.721  31.304  59.117  1.00  0.00     0.043 A 
HETATM   16  C   UNL     1       9.908  31.149  58.414  1.00  0.00     0.116 A 
HETATM   17  F   UNL     1      10.967  31.907  58.728  1.00  0.00    -0.206 F 
HETATM   18  C   UNL     1      10.014  30.218  57.388  1.00  0.00     0.043 A 
HETATM   19  C   UNL     1       8.910  29.430  57.054  1.00  0.00     0.012 A 
ENDBRANCH  11  13
ENDBRANCH   9  11
ENDBRANCH   3   7
BRANCH   1  20
HETATM   20  C   UNL     1       6.800  24.098  52.978  1.00  0.00     0.148 C 
HETATM   21  C   UNL     1       7.652  25.039  52.136  1.00  0.00     0.044 C 
BRANCH  20  22
HETATM   22  O   UNL     1       5.442  24.540  52.909  1.00  0.00    -0.391 OA
HETATM   23  H   UNL     1       5.143  24.414  51.992  1.00  0.00     0.210 HD
ENDBRANCH  20  22
ENDBRANCH   1  20
BRANCH   6  24
HETATM   24  C   UNL     1       8.200  21.723  54.179  1.00  0.00     0.011 A 
HETATM   25  C   UNL     1       8.873  20.534  54.529  1.00  0.00     0.152 A 
HETATM   26  N   UNL     1       8.898  19.651  53.526  1.00  0.00    -0.187 NA
HETATM   27  N   UNL     1       8.230  20.272  52.539  1.00  0.00    -0.289 N 
HETATM   28  H   UNL     1       8.118  19.786  51.656  1.00  0.00     0.188 HD
HETATM   29  C   UNL     1       7.777  21.513  52.886  1.00  0.00     0.123 A 
ENDBRANCH   6  24
TORSDOF 6
ENDMDL
MODEL 3
REMARK VINA RESULT:      -8.9      7.725     12.770
REMARK  6 active torsions:
REMARK  status: ('A' for Active; 'I' for Inactive)
REMARK    1  A    between atoms: C_2  and  O_3 
REMARK    2  A    between atoms: C_2  and  C_4 
REMARK    3  A    between atoms: C_6  and  C_16 
REMARK    4  A    between atoms: C_9  and  C_10 
REMARK       I    between atoms: C_16  and  N_18 
REMARK    5  A    between atoms: N_18  and  C_19 
REMARK    6  A    between atoms: C_19  and  C_21 
ROOT
HETATM    1  C   UNL     1       7.131  30.086  57.528  1.00  0.00    -0.018 A 
HETATM    2  C   UNL     1       6.858  29.287  56.396  1.00  0.00     0.027 A 
HETATM    3  C   UNL     1       7.840  28.470  55.814  1.00  0.00     0.032 A 
HETATM    4  C   UNL     1       9.126  28.458  56.355  1.00  0.00     0.018 A 
HETATM    5  C   UNL     1       9.410  29.224  57.489  1.00  0.00     0.014 A 
HETATM    6  C   UNL     1       8.424  30.030  58.085  1.00  0.00    -0.014 A 
ENDROOT
BRANCH   3   7
HETATM    7  C   UNL     1       7.457  27.649  54.631  1.00  0.00     0.252 C 
HETATM    8  O   UNL     1       7.284  28.186  53.542  1.00  0.00    -0.268 OA
HETATM    9  N   UNL     1       7.270  26.299  54.843  1.00  0.00    -0.349 N 
HETATM   10  H   UNL     1       7.256  25.944  55.787  1.00  0.00     0.163 HD
BRANCH   9  11
HETATM   11  C   UNL     1       6.724  25.445  53.799  1.00  0.00     0.114 C 
HETATM   12  C   UNL     1       5.198  25.551  53.748  1.00  0.00     0.037 C 
BRANCH  11  13
HETATM   13  C   UNL     1       7.178  24.008  53.994  1.00  0.00    -0.036 A 
HETATM   14  C   UNL     1       7.218  23.465  55.291  1.00  0.00     0.012 A 
HETATM   15  C   UNL     1       7.645  22.153  55.501  1.00  0.00     0.043 A 
HETATM   16  C   UNL     1       8.028  21.375  54.416  1.00  0.00     0.116 A 
HETATM   17  F   UNL     1       8.439  20.117  54.617  1.00  0.00    -0.206 F 
HETATM   18  C   UNL     1       7.993  21.885  53.124  1.00  0.00     0.043 A 
HETATM   19  C   UNL     1       7.571  23.200  52.912  1.00  0.00     0.012 A 
ENDBRANCH  11  13
ENDBRANCH   9  11
ENDBRANCH   3   7
BRANCH   1  20
HETATM   20  C   UNL     1       6.013  30.918  58.133  1.00  0.00     0.148 C 
HETATM   21  C   UNL     1       4.640  30.428  57.694  1.00  0.00     0.044 C 
BRANCH  20  22
HETATM   22  O   UNL     1       6.140  32.292  57.758  1.00  0.00    -0.391 OA
HETATM   23  H   UNL     1       6.217  32.322  56.789  1.00  0.00     0.210 HD
ENDBRANCH  20  22
ENDBRANCH   1  20
BRANCH   6  24
HETATM   24  C   UNL     1       8.785  30.750  59.287  1.00  0.00     0.011 A 
HETATM   25  C   UNL     1       8.573  30.430  60.644  1.00  0.00     0.152 A 
HETATM   26  N   UNL     1       9.081  31.350  61.468  1.00  0.00    -0.187 NA
HETATM   27  N   UNL     1       9.630  32.253  60.638  1.00  0.00    -0.289 N 
HETATM   28  H   UNL     1      10.086  33.063  61.043  1.00  0.00     0.188 HD
HETATM   29  C   UNL     1       9.492  31.931  59.317  1.00  0.00     0.123 A 
ENDBRANCH   6  24
TORSDOF 6
ENDMDL
MODEL 4
REMARK VINA RESULT:      -8.8      4.556      7.305
REMARK  6 active torsions:
REMARK  status: ('A' for Active; 'I' for Inactive)
REMARK    1  A    between atoms: C_2  and  O_3 
REMARK    2  A    between atoms: C_2  and  C_4 
REMARK    3  A    between atoms: C_6  and  C_16 
REMARK    4  A    between atoms: C_9  and  C_10 
REMARK       I    between atoms: C_16  and  N_18 
REMARK    5  A    between atoms: N_18  and  C_19 
REMARK    6  A    between atoms: C_19  and  C_21 
ROOT
HETATM    1  C   UNL     1       5.746  28.999  56.812  1.00  0.00    -0.018 A 
HETATM    2  C   UNL     1       6.409  29.845  57.729  1.00  0.00     0.027 A 
HETATM    3  C   UNL     1       7.750  29.639  58.087  1.00  0.00     0.032 A 
HETATM    4  C   UNL     1       8.445  28.561  57.539  1.00  0.00     0.018 A 
HETATM    5  C   UNL     1       7.815  27.726  56.613  1.00  0.00     0.014 A 
HETATM    6  C   UNL     1       6.477  27.940  56.237  1.00  0.00    -0.014 A 
ENDROOT
BRANCH   3   7
HETATM    7  C   UNL     1       8.371  30.591  59.051  1.00  0.00     0.252 C 
HETATM    8  O   UNL     1       9.235  31.374  58.669  1.00  0.00    -0.268 OA
HETATM    9  N   UNL     1       7.960  30.506  60.365  1.00  0.00    -0.349 N 
HETATM   10  H   UNL     1       7.378  29.733  60.652  1.00  0.00     0.163 HD
BRANCH   9  11
HETATM   11  C   UNL     1       8.630  31.264  61.410  1.00  0.00     0.114 C 
HETATM   12  C   UNL     1       9.651  30.393  62.147  1.00  0.00     0.037 C 
BRANCH  11  13
HETATM   13  C   UNL     1       7.614  31.866  62.368  1.00  0.00    -0.036 A 
HETATM   14  C   UNL     1       8.062  32.610  63.474  1.00  0.00     0.012 A 
HETATM   15  C   UNL     1       7.152  33.161  64.378  1.00  0.00     0.043 A 
HETATM   16  C   UNL     1       5.791  32.975  64.178  1.00  0.00     0.116 A 
HETATM   17  F   UNL     1       4.917  33.502  65.045  1.00  0.00    -0.206 F 
HETATM   18  C   UNL     1       5.322  32.249  63.090  1.00  0.00     0.043 A 
HETATM   19  C   UNL     1       6.230  31.692  62.187  1.00  0.00     0.012 A 
ENDBRANCH  11  13
ENDBRANCH   9  11
ENDBRANCH   3   7
BRANCH   1  20
HETATM   20  C   UNL     1       4.305  29.300  56.436  1.00  0.00     0.148 C 
HETATM   21  C   UNL     1       4.213  30.369  55.356  1.00  0.00     0.044 C 
BRANCH  20  22
HETATM   22  O   UNL     1       3.565  29.747  57.574  1.00  0.00    -0.391 OA
HETATM   23  H   UNL     1       4.159  30.304  58.106  1.00  0.00     0.210 HD
ENDBRANCH  20  22
ENDBRANCH   1  20
BRANCH   6  24
HETATM   24  C   UNL     1       5.915  27.064  55.233  1.00  0.00     0.011 A 
HETATM   25  C   UNL     1       5.734  27.258  53.847  1.00  0.00     0.152 A 
HETATM   26  N   UNL     1       5.197  26.190  53.251  1.00  0.00    -0.187 NA
HETATM   27  N   UNL     1       5.045  25.308  54.254  1.00  0.00    -0.289 N 
HETATM   28  H   UNL     1       4.644  24.401  54.040  1.00  0.00     0.188 HD
HETATM   29  C   UNL     1       5.476  25.780  55.462  1.00  0.00     0.123 A 
ENDBRANCH   6  24
TORSDOF 6
ENDMDL
MODEL 5
REMARK VINA RESULT:      -8.7      7.010     10.810
REMARK  6 active torsions:
REMARK  status: ('A' for Active; 'I' for Inactive)
REMARK    1  A    between atoms: C_2  and  O_3 
REMARK    2  A    between atoms: C_2  and  C_4 
REMARK    3  A    between atoms: C_6  and  C_16 
REMARK    4  A    between atoms: C_9  and  C_10 
REMARK       I    between atoms: C_16  and  N_18 
REMARK    5  A    between atoms: N_18  and  C_19 
REMARK    6  A    between atoms: C_19  and  C_21 
ROOT
HETATM    1  C   UNL     1       7.471  24.629  55.058  1.00  0.00    -0.018 A 
HETATM    2  C   UNL     1       7.445  26.020  55.299  1.00  0.00     0.027 A 
HETATM    3  C   UNL     1       8.030  26.582  56.445  1.00  0.00     0.032 A 
HETATM    4  C   UNL     1       8.640  25.745  57.380  1.00  0.00     0.018 A 
HETATM    5  C   UNL     1       8.697  24.368  57.148  1.00  0.00     0.014 A 
HETATM    6  C   UNL     1       8.128  23.804  55.992  1.00  0.00    -0.014 A 
ENDROOT
BRANCH   3   7
HETATM    7  C   UNL     1       7.967  28.061  56.610  1.00  0.00     0.252 C 
HETATM    8  O   UNL     1       7.072  28.701  56.068  1.00  0.00    -0.268 OA
HETATM    9  N   UNL     1       8.974  28.650  57.347  1.00  0.00    -0.349 N 
HETATM   10  H   UNL     1       9.773  28.099  57.621  1.00  0.00     0.163 HD
BRANCH   9  11
HETATM   11  C   UNL     1       9.102  30.098  57.417  1.00  0.00     0.114 C 
HETATM   12  C   UNL     1      10.565  30.524  57.266  1.00  0.00     0.037 C 
BRANCH  11  13
HETATM   13  C   UNL     1       8.498  30.625  58.708  1.00  0.00    -0.036 A 
HETATM   14  C   UNL     1       7.262  31.297  58.670  1.00  0.00     0.012 A 
HETATM   15  C   UNL     1       6.692  31.804  59.838  1.00  0.00     0.043 A 
HETATM   16  C   UNL     1       7.349  31.638  61.050  1.00  0.00     0.116 A 
HETATM   17  F   UNL     1       6.802  32.127  62.171  1.00  0.00    -0.206 F 
HETATM   18  C   UNL     1       8.567  30.974  61.116  1.00  0.00     0.043 A 
HETATM   19  C   UNL     1       9.143  30.469  59.948  1.00  0.00     0.012 A 
ENDBRANCH  11  13
ENDBRANCH   9  11
ENDBRANCH   3   7
BRANCH   1  20
HETATM   20  C   UNL     1       6.854  24.089  53.779  1.00  0.00     0.148 C 
HETATM   21  C   UNL     1       7.758  24.312  52.574  1.00  0.00     0.044 C 
BRANCH  20  22
HETATM   22  O   UNL     1       5.595  24.714  53.517  1.00  0.00    -0.391 OA
HETATM   23  H   UNL     1       5.274  25.082  54.359  1.00  0.00     0.210 HD
ENDBRANCH  20  22
ENDBRANCH   1  20
BRANCH   6  24
HETATM   24  C   UNL     1       8.276  22.377  55.801  1.00  0.00     0.011 A 
HETATM   25  C   UNL     1       9.182  21.652  54.999  1.00  0.00     0.152 A 
HETATM   26  N   UNL     1       9.015  20.331  55.113  1.00  0.00    -0.187 NA
HETATM   27  N   UNL     1       8.011  20.213  55.997  1.00  0.00    -0.289 N 
HETATM   28  H   UNL     1       7.699  19.280  56.248  1.00  0.00     0.188 HD
HETATM   29  C   UNL     1       7.542  21.413  56.453  1.00  0.00     0.123 A 
ENDBRANCH   6  24
TORSDOF 6
ENDMDL
MODEL 6
REMARK VINA RESULT:      -8.7     13.024     16.547
REMARK  6 active torsions:
REMARK  status: ('A' for Active; 'I' for Inactive)
REMARK    1  A    between atoms: C_2  and  O_3 
REMARK    2  A    between atoms: C_2  and  C_4 
REMARK    3  A    between atoms: C_6  and  C_16 
REMARK    4  A    between atoms: C_9  and  C_10 
REMARK       I    between atoms: C_16  and  N_18 
REMARK    5  A    between atoms: N_18  and  C_19 
REMARK    6  A    between atoms: C_19  and  C_21 
ROOT
HETATM    1  C   UNL     1       7.197  24.364  55.046  1.00  0.00    -0.018 A 
HETATM    2  C   UNL     1       6.740  25.511  54.360  1.00  0.00     0.027 A 
HETATM    3  C   UNL     1       6.884  25.647  52.971  1.00  0.00     0.032 A 
HETATM    4  C   UNL     1       7.512  24.632  52.247  1.00  0.00     0.018 A 
HETATM    5  C   UNL     1       7.949  23.479  52.904  1.00  0.00     0.014 A 
HETATM    6  C   UNL     1       7.789  23.331  54.293  1.00  0.00    -0.014 A 
ENDROOT
BRANCH   3   7
HETATM    7  C   UNL     1       6.359  26.886  52.330  1.00  0.00     0.252 C 
HETATM    8  O   UNL     1       6.731  27.985  52.725  1.00  0.00    -0.268 OA
HETATM    9  N   UNL     1       5.424  26.721  51.329  1.00  0.00    -0.349 N 
HETATM   10  H   UNL     1       5.029  25.807  51.166  1.00  0.00     0.163 HD
BRANCH   9  11
HETATM   11  C   UNL     1       4.721  27.864  50.766  1.00  0.00     0.114 C 
HETATM   12  C   UNL     1       3.859  28.552  51.828  1.00  0.00     0.037 C 
BRANCH  11  13
HETATM   13  C   UNL     1       3.893  27.441  49.564  1.00  0.00    -0.036 A 
HETATM   14  C   UNL     1       2.743  28.175  49.222  1.00  0.00     0.012 A 
HETATM   15  C   UNL     1       1.955  27.800  48.133  1.00  0.00     0.043 A 
HETATM   16  C   UNL     1       2.316  26.694  47.375  1.00  0.00     0.116 A 
HETATM   17  F   UNL     1       1.561  26.333  46.330  1.00  0.00    -0.206 F 
HETATM   18  C   UNL     1       3.450  25.955  47.688  1.00  0.00     0.043 A 
HETATM   19  C   UNL     1       4.237  26.324  48.781  1.00  0.00     0.012 A 
ENDBRANCH  11  13
ENDBRANCH   9  11
ENDBRANCH   3   7
BRANCH   1  20
HETATM   20  C   UNL     1       6.974  24.262  56.546  1.00  0.00     0.148 C 
HETATM   21  C   UNL     1       5.874  25.200  57.021  1.00  0.00     0.044 C 
BRANCH  20  22
HETATM   22  O   UNL     1       8.172  24.575  57.261  1.00  0.00    -0.391 OA
HETATM   23  H   UNL     1       8.110  24.146  58.131  1.00  0.00     0.210 HD
ENDBRANCH  20  22
ENDBRANCH   1  20
BRANCH   6  24
HETATM   24  C   UNL     1       8.222  22.085  54.888  1.00  0.00     0.011 A 
HETATM   25  C   UNL     1       7.500  20.905  55.165  1.00  0.00     0.152 A 
HETATM   26  N   UNL     1       8.269  19.954  55.702  1.00  0.00    -0.187 NA
HETATM   27  N   UNL     1       9.486  20.522  55.757  1.00  0.00    -0.289 N 
HETATM   28  H   UNL     1      10.253  19.979  56.139  1.00  0.00     0.188 HD
HETATM   29  C   UNL     1       9.513  21.797  55.266  1.00  0.00     0.123 A 
ENDBRANCH   6  24
TORSDOF 6
ENDMDL
MODEL 7
REMARK VINA RESULT:      -8.5      9.364     13.381
REMARK  6 active torsions:
REMARK  status: ('A' for Active; 'I' for Inactive)
REMARK    1  A    between atoms: C_2  and  O_3 
REMARK    2  A    between atoms: C_2  and  C_4 
REMARK    3  A    between atoms: C_6  and  C_16 
REMARK    4  A    between atoms: C_9  and  C_10 
REMARK       I    between atoms: C_16  and  N_18 
REMARK    5  A    between atoms: N_18  and  C_19 
REMARK    6  A    between atoms: C_19  and  C_21 
ROOT
HETATM    1  C   UNL     1       4.594  29.503  56.566  1.00  0.00    -0.018 A 
HETATM    2  C   UNL     1       4.993  28.200  56.935  1.00  0.00     0.027 A 
HETATM    3  C   UNL     1       5.227  27.200  55.977  1.00  0.00     0.032 A 
HETATM    4  C   UNL     1       5.045  27.494  54.625  1.00  0.00     0.018 A 
HETATM    5  C   UNL     1       4.673  28.785  54.239  1.00  0.00     0.014 A 
HETATM    6  C   UNL     1       4.456  29.793  55.194  1.00  0.00    -0.014 A 
ENDROOT
BRANCH   3   7
HETATM    7  C   UNL     1       5.660  25.858  56.458  1.00  0.00     0.252 C 
HETATM    8  O   UNL     1       5.027  25.290  57.341  1.00  0.00    -0.268 OA
HETATM    9  N   UNL     1       6.806  25.334  55.896  1.00  0.00    -0.349 N 
HETATM   10  H   UNL     1       7.377  25.917  55.303  1.00  0.00     0.163 HD
BRANCH   9  11
HETATM   11  C   UNL     1       7.408  24.118  56.420  1.00  0.00     0.114 C 
HETATM   12  C   UNL     1       8.724  24.426  57.139  1.00  0.00     0.037 C 
BRANCH  11  13
HETATM   13  C   UNL     1       7.605  23.099  55.309  1.00  0.00    -0.036 A 
HETATM   14  C   UNL     1       7.750  21.738  55.636  1.00  0.00     0.012 A 
HETATM   15  C   UNL     1       7.947  20.783  54.637  1.00  0.00     0.043 A 
HETATM   16  C   UNL     1       7.994  21.182  53.308  1.00  0.00     0.116 A 
HETATM   17  F   UNL     1       8.184  20.266  52.350  1.00  0.00    -0.206 F 
HETATM   18  C   UNL     1       7.847  22.518  52.958  1.00  0.00     0.043 A 
HETATM   19  C   UNL     1       7.655  23.477  53.955  1.00  0.00     0.012 A 
ENDBRANCH  11  13
ENDBRANCH   9  11
ENDBRANCH   3   7
BRANCH   1  20
HETATM   20  C   UNL     1       4.395  30.550  57.650  1.00  0.00     0.148 C 
HETATM   21  C   UNL     1       5.722  31.079  58.178  1.00  0.00     0.044 C 
BRANCH  20  22
HETATM   22  O   UNL     1       3.657  30.011  58.749  1.00  0.00    -0.391 OA
HETATM   23  H   UNL     1       4.043  30.376  59.564  1.00  0.00     0.210 HD
ENDBRANCH  20  22
ENDBRANCH   1  20
BRANCH   6  24
HETATM   24  C   UNL     1       4.125  31.115  54.709  1.00  0.00     0.011 A 
HETATM   25  C   UNL     1       4.860  32.318  54.758  1.00  0.00     0.152 A 
HETATM   26  N   UNL     1       4.217  33.331  54.172  1.00  0.00    -0.187 NA
HETATM   27  N   UNL     1       3.074  32.773  53.737  1.00  0.00    -0.289 N 
HETATM   28  H   UNL     1       2.407  33.362  53.250  1.00  0.00     0.188 HD
HETATM   29  C   UNL     1       2.978  31.440  54.021  1.00  0.00     0.123 A 
ENDBRANCH   6  24
TORSDOF 6
ENDMDL
MODEL 8
REMARK VINA RESULT:      -8.4      9.075     12.375
REMARK  6 active torsions:
REMARK  status: ('A' for Active; 'I' for Inactive)
REMARK    1  A    between atoms: C_2  and  O_3 
REMARK    2  A    between atoms: C_2  and  C_4 
REMARK    3  A    between atoms: C_6  and  C_16 
REMARK    4  A    between atoms: C_9  and  C_10 
REMARK       I    between atoms: C_16  and  N_18 
REMARK    5  A    between atoms: N_18  and  C_19 
REMARK    6  A    between atoms: C_19  and  C_21 
ROOT
HETATM    1  C   UNL     1       7.636  24.140  54.687  1.00  0.00    -0.018 A 
HETATM    2  C   UNL     1       7.569  25.428  55.263  1.00  0.00     0.027 A 
HETATM    3  C   UNL     1       8.108  25.699  56.530  1.00  0.00     0.032 A 
HETATM    4  C   UNL     1       8.712  24.668  57.250  1.00  0.00     0.018 A 
HETATM    5  C   UNL     1       8.810  23.393  56.688  1.00  0.00     0.014 A 
HETATM    6  C   UNL     1       8.287  23.121  55.411  1.00  0.00    -0.014 A 
ENDROOT
BRANCH   3   7
HETATM    7  C   UNL     1       8.004  27.091  57.052  1.00  0.00     0.252 C 
HETATM    8  O   UNL     1       7.641  27.287  58.206  1.00  0.00    -0.268 OA
HETATM    9  N   UNL     1       8.287  28.112  56.167  1.00  0.00    -0.349 N 
HETATM   10  H   UNL     1       8.410  27.898  55.189  1.00  0.00     0.163 HD
BRANCH   9  11
HETATM   11  C   UNL     1       8.043  29.501  56.524  1.00  0.00     0.114 C 
HETATM   12  C   UNL     1       8.754  29.862  57.830  1.00  0.00     0.037 C 
BRANCH  11  13
HETATM   13  C   UNL     1       6.550  29.776  56.606  1.00  0.00    -0.036 A 
HETATM   14  C   UNL     1       5.715  29.388  55.542  1.00  0.00     0.012 A 
HETATM   15  C   UNL     1       4.344  29.642  55.584  1.00  0.00     0.043 A 
HETATM   16  C   UNL     1       3.799  30.280  56.691  1.00  0.00     0.116 A 
HETATM   17  F   UNL     1       2.483  30.525  56.731  1.00  0.00    -0.206 F 
HETATM   18  C   UNL     1       4.600  30.669  57.757  1.00  0.00     0.043 A 
HETATM   19  C   UNL     1       5.974  30.420  57.715  1.00  0.00     0.012 A 
ENDBRANCH  11  13
ENDBRANCH   9  11
ENDBRANCH   3   7
BRANCH   1  20
HETATM   20  C   UNL     1       7.068  23.922  53.295  1.00  0.00     0.148 C 
HETATM   21  C   UNL     1       7.832  24.711  52.240  1.00  0.00     0.044 C 
BRANCH  20  22
HETATM   22  O   UNL     1       5.693  24.311  53.239  1.00  0.00    -0.391 OA
HETATM   23  H   UNL     1       5.626  25.194  53.640  1.00  0.00     0.210 HD
ENDBRANCH  20  22
ENDBRANCH   1  20
BRANCH   6  24
HETATM   24  C   UNL     1       8.477  21.789  54.879  1.00  0.00     0.011 A 
HETATM   25  C   UNL     1       8.559  21.340  53.545  1.00  0.00     0.152 A 
HETATM   26  N   UNL     1       8.764  20.023  53.464  1.00  0.00    -0.187 NA
HETATM   27  N   UNL     1       8.825  19.631  54.748  1.00  0.00    -0.289 N 
HETATM   28  H   UNL     1       8.977  18.647  54.943  1.00  0.00     0.188 HD
HETATM   29  C   UNL     1       8.674  20.657  55.637  1.00  0.00     0.123 A 
ENDBRANCH   6  24
TORSDOF 6
ENDMDL
MODEL 9
REMARK VINA RESULT:      -8.4      4.853      9.484
REMARK  6 active torsions:
REMARK  status: ('A' for Active; 'I' for Inactive)
REMARK    1  A    between atoms: C_2  and  O_3 
REMARK    2  A    between atoms: C_2  and  C_4 
REMARK    3  A    between atoms: C_6  and  C_16 
REMARK    4  A    between atoms: C_9  and  C_10 
REMARK       I    between atoms: C_16  and  N_18 
REMARK    5  A    between atoms: N_18  and  C_19 
REMARK    6  A    between atoms: C_19  and  C_21 
ROOT
HETATM    1  C   UNL     1       5.922  33.225  61.932  1.00  0.00    -0.018 A 
HETATM    2  C   UNL     1       6.747  32.342  61.202  1.00  0.00     0.027 A 
HETATM    3  C   UNL     1       7.933  31.822  61.743  1.00  0.00     0.032 A 
HETATM    4  C   UNL     1       8.320  32.200  63.030  1.00  0.00     0.018 A 
HETATM    5  C   UNL     1       7.505  33.055  63.777  1.00  0.00     0.014 A 
HETATM    6  C   UNL     1       6.306  33.563  63.245  1.00  0.00    -0.014 A 
ENDROOT
BRANCH   3   7
HETATM    7  C   UNL     1       8.733  30.884  60.906  1.00  0.00     0.252 C 
HETATM    8  O   UNL     1       9.471  30.063  61.440  1.00  0.00    -0.268 OA
HETATM    9  N   UNL     1       8.630  31.028  59.537  1.00  0.00    -0.349 N 
HETATM   10  H   UNL     1       8.146  31.828  59.159  1.00  0.00     0.163 HD
BRANCH   9  11
HETATM   11  C   UNL     1       9.501  30.285  58.639  1.00  0.00     0.114 C 
HETATM   12  C   UNL     1      10.486  31.222  57.936  1.00  0.00     0.037 C 
BRANCH  11  13
HETATM   13  C   UNL     1       8.680  29.487  57.640  1.00  0.00    -0.036 A 
HETATM   14  C   UNL     1       7.550  28.776  58.083  1.00  0.00     0.012 A 
HETATM   15  C   UNL     1       6.787  28.022  57.190  1.00  0.00     0.043 A 
HETATM   16  C   UNL     1       7.145  27.980  55.849  1.00  0.00     0.116 A 
HETATM   17  F   UNL     1       6.414  27.256  54.992  1.00  0.00    -0.206 F 
HETATM   18  C   UNL     1       8.253  28.677  55.384  1.00  0.00     0.043 A 
HETATM   19  C   UNL     1       9.022  29.428  56.277  1.00  0.00     0.012 A 
ENDBRANCH  11  13
ENDBRANCH   9  11
ENDBRANCH   3   7
BRANCH   1  20
HETATM   20  C   UNL     1       4.630  33.720  61.303  1.00  0.00     0.148 C 
HETATM   21  C   UNL     1       3.493  32.724  61.483  1.00  0.00     0.044 C 
BRANCH  20  22
HETATM   22  O   UNL     1       4.803  33.957  59.904  1.00  0.00    -0.391 OA
HETATM   23  H   UNL     1       4.000  33.642  59.455  1.00  0.00     0.210 HD
ENDBRANCH  20  22
ENDBRANCH   1  20
BRANCH   6  24
HETATM   24  C   UNL     1       5.494  34.399  64.102  1.00  0.00     0.011 A 
HETATM   25  C   UNL     1       5.379  35.803  64.167  1.00  0.00     0.152 A 
HETATM   26  N   UNL     1       4.494  36.198  65.086  1.00  0.00    -0.187 NA
HETATM   27  N   UNL     1       4.035  35.045  65.601  1.00  0.00    -0.289 N 
HETATM   28  H   UNL     1       3.337  35.092  66.336  1.00  0.00     0.188 HD
HETATM   29  C   UNL     1       4.593  33.935  65.033  1.00  0.00     0.123 A 
ENDBRANCH   6  24
TORSDOF 6
ENDMDL
MODEL 10
REMARK VINA RESULT:      -8.4      4.569      9.566
REMARK  6 active torsions:
REMARK  status: ('A' for Active; 'I' for Inactive)
REMARK    1  A    between atoms: C_2  and  O_3 
REMARK    2  A    between atoms: C_2  and  C_4 
REMARK    3  A    between atoms: C_6  and  C_16 
REMARK    4  A    between atoms: C_9  and  C_10 
REMARK       I    between atoms: C_16  and  N_18 
REMARK    5  A    between atoms: N_18  and  C_19 
REMARK    6  A    between atoms: C_19  and  C_21 
ROOT
HETATM    1  C   UNL     1       5.911  33.282  62.081  1.00  0.00    -0.018 A 
HETATM    2  C   UNL     1       6.270  32.743  60.826  1.00  0.00     0.027 A 
HETATM    3  C   UNL     1       7.408  31.938  60.667  1.00  0.00     0.032 A 
HETATM    4  C   UNL     1       8.219  31.675  61.772  1.00  0.00     0.018 A 
HETATM    5  C   UNL     1       7.868  32.179  63.027  1.00  0.00     0.014 A 
HETATM    6  C   UNL     1       6.718  32.971  63.194  1.00  0.00    -0.014 A 
ENDROOT
BRANCH   3   7
HETATM    7  C   UNL     1       7.701  31.400  59.308  1.00  0.00     0.252 C 
HETATM    8  O   UNL     1       8.717  31.749  58.717  1.00  0.00    -0.268 OA
HETATM    9  N   UNL     1       6.764  30.550  58.758  1.00  0.00    -0.349 N 
HETATM   10  H   UNL     1       5.872  30.436  59.215  1.00  0.00     0.163 HD
BRANCH   9  11
HETATM   11  C   UNL     1       6.869  30.114  57.374  1.00  0.00     0.114 C 
HETATM   12  C   UNL     1       5.797  30.783  56.509  1.00  0.00     0.037 C 
BRANCH  11  13
HETATM   13  C   UNL     1       6.793  28.599  57.284  1.00  0.00    -0.036 A 
HETATM   14  C   UNL     1       5.562  27.984  56.994  1.00  0.00     0.012 A 
HETATM   15  C   UNL     1       5.460  26.594  56.920  1.00  0.00     0.043 A 
HETATM   16  C   UNL     1       6.588  25.812  57.131  1.00  0.00     0.116 A 
HETATM   17  F   UNL     1       6.491  24.478  57.062  1.00  0.00    -0.206 F 
HETATM   18  C   UNL     1       7.817  26.395  57.414  1.00  0.00     0.043 A 
HETATM   19  C   UNL     1       7.921  27.786  57.493  1.00  0.00     0.012 A 
ENDBRANCH  11  13
ENDBRANCH   9  11
ENDBRANCH   3   7
BRANCH   1  20
HETATM   20  C   UNL     1       4.644  34.114  62.193  1.00  0.00     0.148 C 
HETATM   21  C   UNL     1       3.537  33.585  61.292  1.00  0.00     0.044 C 
BRANCH  20  22
HETATM   22  O   UNL     1       4.897  35.476  61.842  1.00  0.00    -0.391 OA
HETATM   23  H   UNL     1       5.051  35.965  62.669  1.00  0.00     0.210 HD
ENDBRANCH  20  22
ENDBRANCH   1  20
BRANCH   6  24
HETATM   24  C   UNL     1       6.396  33.410  64.534  1.00  0.00     0.011 A 
HETATM   25  C   UNL     1       5.153  33.498  65.194  1.00  0.00     0.152 A 
HETATM   26  N   UNL     1       5.274  33.933  66.451  1.00  0.00    -0.187 NA
HETATM   27  N   UNL     1       6.598  34.112  66.599  1.00  0.00    -0.289 N 
HETATM   28  H   UNL     1       6.940  34.448  67.493  1.00  0.00     0.188 HD
HETATM   29  C   UNL     1       7.317  33.797  65.480  1.00  0.00     0.123 A 
ENDBRANCH   6  24
TORSDOF 6
ENDMDL
