MODEL 1
REMARK VINA RESULT:      -9.8      0.000      0.000
REMARK  5 active torsions:
REMARK  status: ('A' for Active; 'I' for Inactive)
REMARK    1  A    between atoms: C_7  and  C_8 
REMARK    2  A    between atoms: N_9  and  N_10 
REMARK       I    between atoms: N_10  and  C_11 
REMARK    3  A    between atoms: C_11  and  C_12 
REMARK    4  A    between atoms: C_12  and  N_13 
REMARK       I    between atoms: N_13  and  C_14 
REMARK    5  A    between atoms: C_14  and  C_15 
ROOT
HETATM    1  N   UNL     1       5.506  26.145  56.378  1.00  0.00    -0.246 N 
HETATM    2  C   UNL     1       5.200  27.421  55.930  1.00  0.00     0.255 C 
HETATM    3  O   UNL     1       5.139  27.772  54.752  1.00  0.00    -0.270 OA
HETATM    4  H   UNL     1       5.517  25.961  57.385  1.00  0.00     0.192 HD
ENDROOT
BRANCH   1   5
HETATM    5  N   UNL     1       5.795  25.153  55.489  1.00  0.00    -0.184 NA
HETATM    6  C   UNL     1       7.054  24.917  55.304  1.00  0.00     0.153 C 
BRANCH   6   7
HETATM    7  C   UNL     1       7.473  23.894  54.363  1.00  0.00     0.018 A 
HETATM    8  C   UNL     1       7.615  24.033  52.987  1.00  0.00     0.018 A 
HETATM    9  C   UNL     1       7.390  25.201  52.091  1.00  0.00     0.069 C 
HETATM   10  N   UNL     1       8.039  22.827  52.486  1.00  0.00    -0.358 N 
HETATM   11  H   UNL     1       8.228  22.640  51.511  1.00  0.00     0.166 HD
HETATM   12  C   UNL     1       8.181  21.905  53.493  1.00  0.00     0.043 A 
HETATM   13  C   UNL     1       7.830  22.541  54.684  1.00  0.00     0.004 A 
HETATM   14  C   UNL     1       8.594  20.569  53.437  1.00  0.00     0.030 A 
HETATM   15  C   UNL     1       7.897  21.796  55.882  1.00  0.00     0.014 A 
HETATM   16  C   UNL     1       8.309  20.457  55.844  1.00  0.00     0.001 A 
HETATM   17  C   UNL     1       8.651  19.855  54.637  1.00  0.00     0.002 A 
ENDBRANCH   6   7
ENDBRANCH   1   5
BRANCH   2  18
HETATM   18  C   UNL     1       5.030  28.425  57.071  1.00  0.00     0.227 C 
BRANCH  18  19
HETATM   19  N   UNL     1       6.213  29.233  57.321  1.00  0.00    -0.348 N 
HETATM   20  C   UNL     1       7.380  28.707  57.812  1.00  0.00     0.253 C 
HETATM   21  O   UNL     1       7.446  27.529  58.162  1.00  0.00    -0.268 OA
HETATM   22  H   UNL     1       6.141  30.229  57.147  1.00  0.00     0.163 HD
BRANCH  20  23
HETATM   23  C   UNL     1       8.583  29.591  57.901  1.00  0.00     0.053 A 
HETATM   24  C   UNL     1       8.704  30.745  58.691  1.00  0.00     0.049 A 
HETATM   25 CL   UNL     1       7.477  31.319  59.767  1.00  0.00    -0.083 Cl
HETATM   26  C   UNL     1       9.886  31.500  58.657  1.00  0.00     0.025 A 
HETATM   27  C   UNL     1      10.955  31.112  57.850  1.00  0.00     0.002 A 
HETATM   28  C   UNL     1      10.853  29.963  57.075  1.00  0.00     0.001 A 
HETATM   29  C   UNL     1       9.678  29.209  57.102  1.00  0.00     0.019 A 
ENDBRANCH  20  23
ENDBRANCH  18  19
ENDBRANCH   2  18
TORSDOF 5
ENDMDL
MODEL 2
REMARK VINA RESULT:      -9.5      2.424      8.051
REMARK  5 active torsions:
REMARK  status: ('A' for Active; 'I' for Inactive)
REMARK    1  A    between atoms: C_7  and  C_8 
REMARK    2  A    between atoms: N_9  and  N_10 
REMARK       I    between atoms: N_10  and  C_11 
REMARK    3  A    between atoms: C_11  and  C_12 
REMARK    4  A    between atoms: C_12  and  N_13 
REMARK       I    between atoms: N_13  and  C_14 
REMARK    5  A    between atoms: C_14  and  C_15 
ROOT
HETATM    1  N   UNL     1       6.742  27.311  53.362  1.00  0.00    -0.246 N 
HETATM    2  C   UNL     1       5.533  26.810  52.904  1.00  0.00     0.255 C 
HETATM    3  O   UNL     1       4.418  27.181  53.270  1.00  0.00    -0.270 OA
HETATM    4  H   UNL     1       7.613  26.935  52.978  1.00  0.00     0.192 HD
ENDROOT
BRANCH   1   5
HETATM    5  N   UNL     1       6.768  28.283  54.317  1.00  0.00    -0.184 NA
HETATM    6  C   UNL     1       7.303  27.945  55.445  1.00  0.00     0.153 C 
BRANCH   6   7
HETATM    7  C   UNL     1       7.364  28.898  56.539  1.00  0.00     0.018 A 
HETATM    8  C   UNL     1       6.311  29.311  57.348  1.00  0.00     0.018 A 
HETATM    9  C   UNL     1       4.871  28.935  57.348  1.00  0.00     0.069 C 
HETATM   10  N   UNL     1       6.809  30.210  58.257  1.00  0.00    -0.358 N 
HETATM   11  H   UNL     1       6.264  30.671  58.973  1.00  0.00     0.166 HD
HETATM   12  C   UNL     1       8.156  30.397  58.069  1.00  0.00     0.043 A 
HETATM   13  C   UNL     1       8.536  29.591  56.996  1.00  0.00     0.004 A 
HETATM   14  C   UNL     1       9.057  31.210  58.767  1.00  0.00     0.030 A 
HETATM   15  C   UNL     1       9.892  29.602  56.602  1.00  0.00     0.014 A 
HETATM   16  C   UNL     1      10.807  30.409  57.290  1.00  0.00     0.001 A 
HETATM   17  C   UNL     1      10.392  31.201  58.356  1.00  0.00     0.002 A 
ENDBRANCH   6   7
ENDBRANCH   1   5
BRANCH   2  18
HETATM   18  C   UNL     1       5.706  25.643  51.931  1.00  0.00     0.227 C 
BRANCH  18  19
HETATM   19  N   UNL     1       6.056  24.389  52.578  1.00  0.00    -0.348 N 
HETATM   20  C   UNL     1       7.351  24.038  52.863  1.00  0.00     0.253 C 
HETATM   21  O   UNL     1       8.293  24.735  52.488  1.00  0.00    -0.268 OA
HETATM   22  H   UNL     1       5.300  23.748  52.793  1.00  0.00     0.163 HD
BRANCH  20  23
HETATM   23  C   UNL     1       7.599  22.795  53.657  1.00  0.00     0.053 A 
HETATM   24  C   UNL     1       7.530  22.679  55.054  1.00  0.00     0.049 A 
HETATM   25 CL   UNL     1       7.075  23.967  56.115  1.00  0.00    -0.083 Cl
HETATM   26  C   UNL     1       7.815  21.452  55.672  1.00  0.00     0.025 A 
HETATM   27  C   UNL     1       8.161  20.335  54.912  1.00  0.00     0.002 A 
HETATM   28  C   UNL     1       8.218  20.434  53.527  1.00  0.00     0.001 A 
HETATM   29  C   UNL     1       7.939  21.653  52.905  1.00  0.00     0.019 A 
ENDBRANCH  20  23
ENDBRANCH  18  19
ENDBRANCH   2  18
TORSDOF 5
ENDMDL
MODEL 3
REMARK VINA RESULT:      -9.3      2.207      2.838
REMARK  5 active torsions:
REMARK  status: ('A' for Active; 'I' for Inactive)
REMARK    1  A    between atoms: C_7  and  C_8 
REMARK    2  A    between atoms: N_9  and  N_10 
REMARK       I    between atoms: N_10  and  C_11 
REMARK    3  A    between atoms: C_11  and  C_12 
REMARK    4  A    between atoms: C_12  and  N_13 
REMARK       I    between atoms: N_13  and  C_14 
REMARK    5  A    between atoms: C_14  and  C_15 
ROOT
HETATM    1  N   UNL     1       6.957  27.449  55.710  1.00  0.00    -0.246 N 
HETATM    2  C   UNL     1       7.582  28.205  56.691  1.00  0.00     0.255 C 
HETATM    3  O   UNL     1       8.724  28.027  57.115  1.00  0.00    -0.270 OA
HETATM    4  H   UNL     1       6.005  27.695  55.425  1.00  0.00     0.192 HD
ENDROOT
BRANCH   1   5
HETATM    5  N   UNL     1       7.600  26.390  55.142  1.00  0.00    -0.184 NA
HETATM    6  C   UNL     1       6.906  25.303  55.041  1.00  0.00     0.153 C 
BRANCH   6   7
HETATM    7  C   UNL     1       7.501  24.108  54.470  1.00  0.00     0.018 A 
HETATM    8  C   UNL     1       7.792  23.878  53.130  1.00  0.00     0.018 A 
HETATM    9  C   UNL     1       7.593  24.728  51.924  1.00  0.00     0.069 C 
HETATM   10  N   UNL     1       8.353  22.629  53.031  1.00  0.00    -0.358 N 
HETATM   11  H   UNL     1       8.666  22.202  52.170  1.00  0.00     0.166 HD
HETATM   12  C   UNL     1       8.441  22.036  54.267  1.00  0.00     0.043 A 
HETATM   13  C   UNL     1       7.911  22.936  55.192  1.00  0.00     0.004 A 
HETATM   14  C   UNL     1       8.948  20.783  54.628  1.00  0.00     0.030 A 
HETATM   15  C   UNL     1       7.890  22.558  56.552  1.00  0.00     0.014 A 
HETATM   16  C   UNL     1       8.395  21.307  56.932  1.00  0.00     0.001 A 
HETATM   17  C   UNL     1       8.915  20.434  55.981  1.00  0.00     0.002 A 
ENDBRANCH   6   7
ENDBRANCH   1   5
BRANCH   2  18
HETATM   18  C   UNL     1       6.663  29.266  57.296  1.00  0.00     0.227 C 
BRANCH  18  19
HETATM   19  N   UNL     1       7.156  29.825  58.544  1.00  0.00    -0.348 N 
HETATM   20  C   UNL     1       7.044  31.156  58.857  1.00  0.00     0.253 C 
HETATM   21  O   UNL     1       6.604  31.964  58.040  1.00  0.00    -0.268 OA
HETATM   22  H   UNL     1       7.627  29.194  59.183  1.00  0.00     0.163 HD
BRANCH  20  23
HETATM   23  C   UNL     1       7.454  31.608  60.223  1.00  0.00     0.053 A 
HETATM   24  C   UNL     1       6.636  32.264  61.156  1.00  0.00     0.049 A 
HETATM   25 CL   UNL     1       4.961  32.612  60.904  1.00  0.00    -0.083 Cl
HETATM   26  C   UNL     1       7.161  32.658  62.396  1.00  0.00     0.025 A 
HETATM   27  C   UNL     1       8.492  32.399  62.721  1.00  0.00     0.002 A 
HETATM   28  C   UNL     1       9.307  31.737  61.810  1.00  0.00     0.001 A 
HETATM   29  C   UNL     1       8.792  31.345  60.573  1.00  0.00     0.019 A 
ENDBRANCH  20  23
ENDBRANCH  18  19
ENDBRANCH   2  18
TORSDOF 5
ENDMDL
MODEL 4
REMARK VINA RESULT:      -9.3      5.322      8.082
REMARK  5 active torsions:
REMARK  status: ('A' for Active; 'I' for Inactive)
REMARK    1  A    between atoms: C_7  and  C_8 
REMARK    2  A    between atoms: N_9  and  N_10 
REMARK       I    between atoms: N_10  and  C_11 
REMARK    3  A    between atoms: C_11  and  C_12 
REMARK    4  A    between atoms: C_12  and  N_13 
REMARK       I    between atoms: N_13  and  C_14 
REMARK    5  A    between atoms: C_14  and  C_15 
ROOT
HETATM    1  N   UNL     1       5.789  26.560  53.458  1.00  0.00    -0.246 N 
HETATM    2  C   UNL     1       5.235  26.452  52.191  1.00  0.00     0.255 C 
HETATM    3  O   UNL     1       4.992  25.400  51.602  1.00  0.00    -0.270 OA
HETATM    4  H   UNL     1       5.937  27.491  53.858  1.00  0.00     0.192 HD
ENDROOT
BRANCH   1   5
HETATM    5  N   UNL     1       6.136  25.442  54.156  1.00  0.00    -0.184 NA
HETATM    6  C   UNL     1       7.405  25.266  54.335  1.00  0.00     0.153 C 
BRANCH   6   7
HETATM    7  C   UNL     1       7.886  24.096  55.047  1.00  0.00     0.018 A 
HETATM    8  C   UNL     1       8.248  24.024  56.388  1.00  0.00     0.018 A 
HETATM    9  C   UNL     1       8.263  25.061  57.456  1.00  0.00     0.069 C 
HETATM   10  N   UNL     1       8.634  22.733  56.649  1.00  0.00    -0.358 N 
HETATM   11  H   UNL     1       8.945  22.392  57.548  1.00  0.00     0.166 HD
HETATM   12  C   UNL     1       8.533  21.957  55.520  1.00  0.00     0.043 A 
HETATM   13  C   UNL     1       8.070  22.783  54.495  1.00  0.00     0.004 A 
HETATM   14  C   UNL     1       8.813  20.598  55.335  1.00  0.00     0.030 A 
HETATM   15  C   UNL     1       7.878  22.214  53.217  1.00  0.00     0.014 A 
HETATM   16  C   UNL     1       8.151  20.855  53.015  1.00  0.00     0.001 A 
HETATM   17  C   UNL     1       8.613  20.062  54.060  1.00  0.00     0.002 A 
ENDBRANCH   6   7
ENDBRANCH   1   5
BRANCH   2  18
HETATM   18  C   UNL     1       5.029  27.810  51.518  1.00  0.00     0.227 C 
BRANCH  18  19
HETATM   19  N   UNL     1       3.917  27.835  50.581  1.00  0.00    -0.348 N 
HETATM   20  C   UNL     1       4.093  27.917  49.223  1.00  0.00     0.253 C 
HETATM   21  O   UNL     1       5.213  28.077  48.738  1.00  0.00    -0.268 OA
HETATM   22  H   UNL     1       2.981  27.820  50.969  1.00  0.00     0.163 HD
BRANCH  20  23
HETATM   23  C   UNL     1       2.895  27.793  48.336  1.00  0.00     0.053 A 
HETATM   24  C   UNL     1       2.435  26.615  47.729  1.00  0.00     0.049 A 
HETATM   25 CL   UNL     1       3.154  25.059  47.958  1.00  0.00    -0.083 Cl
HETATM   26  C   UNL     1       1.307  26.648  46.894  1.00  0.00     0.025 A 
HETATM   27  C   UNL     1       0.627  27.843  46.664  1.00  0.00     0.002 A 
HETATM   28  C   UNL     1       1.065  29.014  47.272  1.00  0.00     0.001 A 
HETATM   29  C   UNL     1       2.188  28.989  48.101  1.00  0.00     0.019 A 
ENDBRANCH  20  23
ENDBRANCH  18  19
ENDBRANCH   2  18
TORSDOF 5
ENDMDL
MODEL 5
REMARK VINA RESULT:      -9.1      4.267      7.042
REMARK  5 active torsions:
REMARK  status: ('A' for Active; 'I' for Inactive)
REMARK    1  A    between atoms: C_7  and  C_8 
REMARK    2  A    between atoms: N_9  and  N_10 
REMARK       I    between atoms: N_10  and  C_11 
REMARK    3  A    between atoms: C_11  and  C_12 
REMARK    4  A    between atoms: C_12  and  N_13 
REMARK       I    between atoms: N_13  and  C_14 
REMARK    5  A    between atoms: C_14  and  C_15 
ROOT
HETATM    1  N   UNL     1       4.857  26.396  53.694  1.00  0.00    -0.246 N 
HETATM    2  C   UNL     1       4.702  27.654  54.257  1.00  0.00     0.255 C 
HETATM    3  O   UNL     1       5.055  27.981  55.390  1.00  0.00    -0.270 OA
HETATM    4  H   UNL     1       4.536  26.239  52.734  1.00  0.00     0.192 HD
ENDROOT
BRANCH   1   5
HETATM    5  N   UNL     1       5.421  25.384  54.411  1.00  0.00    -0.184 NA
HETATM    6  C   UNL     1       6.694  25.225  54.247  1.00  0.00     0.153 C 
BRANCH   6   7
HETATM    7  C   UNL     1       7.392  24.162  54.949  1.00  0.00     0.018 A 
HETATM    8  C   UNL     1       7.826  24.176  56.270  1.00  0.00     0.018 A 
HETATM    9  C   UNL     1       7.726  25.225  57.322  1.00  0.00     0.069 C 
HETATM   10  N   UNL     1       8.428  22.970  56.527  1.00  0.00    -0.358 N 
HETATM   11  H   UNL     1       8.834  22.703  57.413  1.00  0.00     0.166 HD
HETATM   12  C   UNL     1       8.399  22.165  55.414  1.00  0.00     0.043 A 
HETATM   13  C   UNL     1       7.759  22.885  54.405  1.00  0.00     0.004 A 
HETATM   14  C   UNL     1       8.884  20.865  55.232  1.00  0.00     0.030 A 
HETATM   15  C   UNL     1       7.598  22.266  53.146  1.00  0.00     0.014 A 
HETATM   16  C   UNL     1       8.077  20.964  52.946  1.00  0.00     0.001 A 
HETATM   17  C   UNL     1       8.711  20.277  53.977  1.00  0.00     0.002 A 
ENDBRANCH   6   7
ENDBRANCH   1   5
BRANCH   2  18
HETATM   18  C   UNL     1       3.939  28.620  53.350  1.00  0.00     0.227 C 
BRANCH  18  19
HETATM   19  N   UNL     1       3.553  28.041  52.073  1.00  0.00    -0.348 N 
HETATM   20  C   UNL     1       3.977  28.547  50.871  1.00  0.00     0.253 C 
HETATM   21  O   UNL     1       4.631  29.588  50.817  1.00  0.00    -0.268 OA
HETATM   22  H   UNL     1       2.920  27.249  52.093  1.00  0.00     0.163 HD
BRANCH  20  23
HETATM   23  C   UNL     1       3.643  27.799  49.620  1.00  0.00     0.053 A 
HETATM   24  C   UNL     1       2.508  27.995  48.818  1.00  0.00     0.049 A 
HETATM   25 CL   UNL     1       1.307  29.205  49.113  1.00  0.00    -0.083 Cl
HETATM   26  C   UNL     1       2.304  27.199  47.680  1.00  0.00     0.025 A 
HETATM   27  C   UNL     1       3.225  26.214  47.327  1.00  0.00     0.002 A 
HETATM   28  C   UNL     1       4.361  26.020  48.105  1.00  0.00     0.001 A 
HETATM   29  C   UNL     1       4.567  26.807  49.241  1.00  0.00     0.019 A 
ENDBRANCH  20  23
ENDBRANCH  18  19
ENDBRANCH   2  18
TORSDOF 5
ENDMDL
MODEL 6
REMARK VINA RESULT:      -9.0      3.326      4.866
REMARK  5 active torsions:
REMARK  status: ('A' for Active; 'I' for Inactive)
REMARK    1  A    between atoms: C_7  and  C_8 
REMARK    2  A    between atoms: N_9  and  N_10 
REMARK       I    between atoms: N_10  and  C_11 
REMARK    3  A    between atoms: C_11  and  C_12 
REMARK    4  A    between atoms: C_12  and  N_13 
REMARK       I    between atoms: N_13  and  C_14 
REMARK    5  A    between atoms: C_14  and  C_15 
ROOT
HETATM    1  N   UNL     1       7.753  29.413  56.682  1.00  0.00    -0.246 N 
HETATM    2  C   UNL     1       7.750  29.821  58.008  1.00  0.00     0.255 C 
HETATM    3  O   UNL     1       8.145  29.156  58.964  1.00  0.00    -0.270 OA
HETATM    4  H   UNL     1       7.410  30.057  55.964  1.00  0.00     0.192 HD
ENDROOT
BRANCH   1   5
HETATM    5  N   UNL     1       8.198  28.170  56.345  1.00  0.00    -0.184 NA
HETATM    6  C   UNL     1       7.281  27.318  56.019  1.00  0.00     0.153 C 
BRANCH   6   7
HETATM    7  C   UNL     1       7.645  25.957  55.662  1.00  0.00     0.018 A 
HETATM    8  C   UNL     1       8.082  24.956  56.521  1.00  0.00     0.018 A 
HETATM    9  C   UNL     1       8.311  24.959  57.992  1.00  0.00     0.069 C 
HETATM   10  N   UNL     1       8.305  23.828  55.772  1.00  0.00    -0.358 N 
HETATM   11  H   UNL     1       8.626  22.943  56.139  1.00  0.00     0.166 HD
HETATM   12  C   UNL     1       8.023  24.061  54.448  1.00  0.00     0.043 A 
HETATM   13  C   UNL     1       7.610  25.389  54.344  1.00  0.00     0.004 A 
HETATM   14  C   UNL     1       8.101  23.199  53.348  1.00  0.00     0.030 A 
HETATM   15  C   UNL     1       7.256  25.878  53.067  1.00  0.00     0.014 A 
HETATM   16  C   UNL     1       7.327  25.029  51.955  1.00  0.00     0.001 A 
HETATM   17  C   UNL     1       7.744  23.709  52.097  1.00  0.00     0.002 A 
ENDBRANCH   6   7
ENDBRANCH   1   5
BRANCH   2  18
HETATM   18  C   UNL     1       7.100  31.192  58.204  1.00  0.00     0.227 C 
BRANCH  18  19
HETATM   19  N   UNL     1       6.882  31.542  59.599  1.00  0.00    -0.348 N 
HETATM   20  C   UNL     1       7.694  32.412  60.281  1.00  0.00     0.253 C 
HETATM   21  O   UNL     1       8.715  32.863  59.764  1.00  0.00    -0.268 OA
HETATM   22  H   UNL     1       6.110  31.090  60.076  1.00  0.00     0.163 HD
BRANCH  20  23
HETATM   23  C   UNL     1       7.305  32.816  61.667  1.00  0.00     0.053 A 
HETATM   24  C   UNL     1       6.186  33.586  62.020  1.00  0.00     0.049 A 
HETATM   25 CL   UNL     1       5.005  34.158  60.893  1.00  0.00    -0.083 Cl
HETATM   26  C   UNL     1       5.955  33.917  63.365  1.00  0.00     0.025 A 
HETATM   27  C   UNL     1       6.825  33.481  64.364  1.00  0.00     0.002 A 
HETATM   28  C   UNL     1       7.928  32.706  64.028  1.00  0.00     0.001 A 
HETATM   29  C   UNL     1       8.165  32.376  62.692  1.00  0.00     0.019 A 
ENDBRANCH  20  23
ENDBRANCH  18  19
ENDBRANCH   2  18
TORSDOF 5
ENDMDL
MODEL 7
REMARK VINA RESULT:      -8.8      4.312      7.808
REMARK  5 active torsions:
REMARK  status: ('A' for Active; 'I' for Inactive)
REMARK    1  A    between atoms: C_7  and  C_8 
REMARK    2  A    between atoms: N_9  and  N_10 
REMARK       I    between atoms: N_10  and  C_11 
REMARK    3  A    between atoms: C_11  and  C_12 
REMARK    4  A    between atoms: C_12  and  N_13 
REMARK       I    between atoms: N_13  and  C_14 
REMARK    5  A    between atoms: C_14  and  C_15 
ROOT
HETATM    1  N   UNL     1       5.064  25.887  53.802  1.00  0.00    -0.246 N 
HETATM    2  C   UNL     1       5.351  26.503  55.011  1.00  0.00     0.255 C 
HETATM    3  O   UNL     1       5.150  27.687  55.279  1.00  0.00    -0.270 OA
HETATM    4  H   UNL     1       5.263  24.889  53.693  1.00  0.00     0.192 HD
ENDROOT
BRANCH   1   5
HETATM    5  N   UNL     1       4.534  26.606  52.772  1.00  0.00    -0.184 NA
HETATM    6  C   UNL     1       5.192  26.557  51.659  1.00  0.00     0.153 C 
BRANCH   6   7
HETATM    7  C   UNL     1       4.725  27.302  50.503  1.00  0.00     0.018 A 
HETATM    8  C   UNL     1       4.839  28.672  50.290  1.00  0.00     0.018 A 
HETATM    9  C   UNL     1       5.432  29.748  51.130  1.00  0.00     0.069 C 
HETATM   10  N   UNL     1       4.276  28.954  49.071  1.00  0.00    -0.358 N 
HETATM   11  H   UNL     1       4.221  29.875  48.657  1.00  0.00     0.166 HD
HETATM   12  C   UNL     1       3.800  27.810  48.478  1.00  0.00     0.043 A 
HETATM   13  C   UNL     1       4.063  26.755  49.353  1.00  0.00     0.004 A 
HETATM   14  C   UNL     1       3.166  27.635  47.243  1.00  0.00     0.030 A 
HETATM   15  C   UNL     1       3.668  25.456  48.966  1.00  0.00     0.014 A 
HETATM   16  C   UNL     1       3.033  25.262  47.733  1.00  0.00     0.001 A 
HETATM   17  C   UNL     1       2.786  26.338  46.886  1.00  0.00     0.002 A 
ENDBRANCH   6   7
ENDBRANCH   1   5
BRANCH   2  18
HETATM   18  C   UNL     1       6.054  25.570  55.998  1.00  0.00     0.227 C 
BRANCH  18  19
HETATM   19  N   UNL     1       6.488  24.314  55.408  1.00  0.00    -0.348 N 
HETATM   20  C   UNL     1       7.760  23.824  55.558  1.00  0.00     0.253 C 
HETATM   21  O   UNL     1       8.631  24.485  56.123  1.00  0.00    -0.268 OA
HETATM   22  H   UNL     1       5.816  23.809  54.841  1.00  0.00     0.163 HD
BRANCH  20  23
HETATM   23  C   UNL     1       8.069  22.458  55.033  1.00  0.00     0.053 A 
HETATM   24  C   UNL     1       8.344  21.318  55.805  1.00  0.00     0.049 A 
HETATM   25 CL   UNL     1       8.310  21.285  57.535  1.00  0.00    -0.083 Cl
HETATM   26  C   UNL     1       8.645  20.099  55.179  1.00  0.00     0.025 A 
HETATM   27  C   UNL     1       8.668  20.001  53.788  1.00  0.00     0.002 A 
HETATM   28  C   UNL     1       8.383  21.119  53.013  1.00  0.00     0.001 A 
HETATM   29  C   UNL     1       8.086  22.336  53.630  1.00  0.00     0.019 A 
ENDBRANCH  20  23
ENDBRANCH  18  19
ENDBRANCH   2  18
TORSDOF 5
ENDMDL
MODEL 8
REMARK VINA RESULT:      -8.8      2.450      3.247
REMARK  5 active torsions:
REMARK  status: ('A' for Active; 'I' for Inactive)
REMARK    1  A    between atoms: C_7  and  C_8 
REMARK    2  A    between atoms: N_9  and  N_10 
REMARK       I    between atoms: N_10  and  C_11 
REMARK    3  A    between atoms: C_11  and  C_12 
REMARK    4  A    between atoms: C_12  and  N_13 
REMARK       I    between atoms: N_13  and  C_14 
REMARK    5  A    between atoms: C_14  and  C_15 
ROOT
HETATM    1  N   UNL     1       5.640  28.339  56.974  1.00  0.00    -0.246 N 
HETATM    2  C   UNL     1       5.231  29.575  56.498  1.00  0.00     0.255 C 
HETATM    3  O   UNL     1       5.297  29.952  55.328  1.00  0.00    -0.270 OA
HETATM    4  H   UNL     1       5.527  28.127  57.969  1.00  0.00     0.192 HD
ENDROOT
BRANCH   1   5
HETATM    5  N   UNL     1       6.192  27.423  56.128  1.00  0.00    -0.184 NA
HETATM    6  C   UNL     1       5.511  26.336  55.959  1.00  0.00     0.153 C 
BRANCH   6   7
HETATM    7  C   UNL     1       6.018  25.285  55.094  1.00  0.00     0.018 A 
HETATM    8  C   UNL     1       5.713  25.088  53.752  1.00  0.00     0.018 A 
HETATM    9  C   UNL     1       4.819  25.840  52.830  1.00  0.00     0.069 C 
HETATM   10  N   UNL     1       6.414  23.990  53.320  1.00  0.00    -0.358 N 
HETATM   11  H   UNL     1       6.386  23.618  52.381  1.00  0.00     0.166 HD
HETATM   12  C   UNL     1       7.171  23.465  54.339  1.00  0.00     0.043 A 
HETATM   13  C   UNL     1       6.943  24.253  55.467  1.00  0.00     0.004 A 
HETATM   14  C   UNL     1       8.035  22.364  54.341  1.00  0.00     0.030 A 
HETATM   15  C   UNL     1       7.617  23.916  56.662  1.00  0.00     0.014 A 
HETATM   16  C   UNL     1       8.486  22.817  56.681  1.00  0.00     0.001 A 
HETATM   17  C   UNL     1       8.690  22.054  55.536  1.00  0.00     0.002 A 
ENDBRANCH   6   7
ENDBRANCH   1   5
BRANCH   2  18
HETATM   18  C   UNL     1       4.756  30.511  57.611  1.00  0.00     0.227 C 
BRANCH  18  19
HETATM   19  N   UNL     1       5.722  30.679  58.685  1.00  0.00    -0.348 N 
HETATM   20  C   UNL     1       6.343  31.874  58.944  1.00  0.00     0.253 C 
HETATM   21  O   UNL     1       6.183  32.844  58.204  1.00  0.00    -0.268 OA
HETATM   22  H   UNL     1       5.953  29.859  59.236  1.00  0.00     0.163 HD
BRANCH  20  23
HETATM   23  C   UNL     1       7.211  31.983  60.156  1.00  0.00     0.053 A 
HETATM   24  C   UNL     1       8.611  31.886  60.182  1.00  0.00     0.049 A 
HETATM   25 CL   UNL     1       9.597  31.684  58.775  1.00  0.00    -0.083 Cl
HETATM   26  C   UNL     1       9.301  31.980  61.400  1.00  0.00     0.025 A 
HETATM   27  C   UNL     1       8.611  32.178  62.595  1.00  0.00     0.002 A 
HETATM   28  C   UNL     1       7.225  32.289  62.581  1.00  0.00     0.001 A 
HETATM   29  C   UNL     1       6.532  32.194  61.372  1.00  0.00     0.019 A 
ENDBRANCH  20  23
ENDBRANCH  18  19
ENDBRANCH   2  18
TORSDOF 5
ENDMDL
MODEL 9
REMARK VINA RESULT:      -8.6      3.700      9.750
REMARK  5 active torsions:
REMARK  status: ('A' for Active; 'I' for Inactive)
REMARK    1  A    between atoms: C_7  and  C_8 
REMARK    2  A    between atoms: N_9  and  N_10 
REMARK       I    between atoms: N_10  and  C_11 
REMARK    3  A    between atoms: C_11  and  C_12 
REMARK    4  A    between atoms: C_12  and  N_13 
REMARK       I    between atoms: N_13  and  C_14 
REMARK    5  A    between atoms: C_14  and  C_15 
ROOT
HETATM    1  N   UNL     1       7.012  30.189  57.280  1.00  0.00    -0.246 N 
HETATM    2  C   UNL     1       7.444  28.877  57.157  1.00  0.00     0.255 C 
HETATM    3  O   UNL     1       7.732  28.126  58.089  1.00  0.00    -0.270 OA
HETATM    4  H   UNL     1       6.787  30.719  56.434  1.00  0.00     0.192 HD
ENDROOT
BRANCH   1   5
HETATM    5  N   UNL     1       6.897  30.764  58.510  1.00  0.00    -0.184 NA
HETATM    6  C   UNL     1       6.187  31.844  58.558  1.00  0.00     0.153 C 
BRANCH   6   7
HETATM    7  C   UNL     1       6.016  32.550  59.817  1.00  0.00     0.018 A 
HETATM    8  C   UNL     1       5.001  33.441  60.144  1.00  0.00     0.018 A 
HETATM    9  C   UNL     1       3.838  33.934  59.356  1.00  0.00     0.069 C 
HETATM   10  N   UNL     1       5.216  33.866  61.431  1.00  0.00    -0.358 N 
HETATM   11  H   UNL     1       4.628  34.519  61.931  1.00  0.00     0.166 HD
HETATM   12  C   UNL     1       6.340  33.278  61.957  1.00  0.00     0.043 A 
HETATM   13  C   UNL     1       6.868  32.448  60.968  1.00  0.00     0.004 A 
HETATM   14  C   UNL     1       6.918  33.416  63.224  1.00  0.00     0.030 A 
HETATM   15  C   UNL     1       8.040  31.718  61.267  1.00  0.00     0.014 A 
HETATM   16  C   UNL     1       8.632  31.844  62.530  1.00  0.00     0.001 A 
HETATM   17  C   UNL     1       8.077  32.682  63.492  1.00  0.00     0.002 A 
ENDBRANCH   6   7
ENDBRANCH   1   5
BRANCH   2  18
HETATM   18  C   UNL     1       7.630  28.449  55.701  1.00  0.00     0.227 C 
BRANCH  18  19
HETATM   19  N   UNL     1       7.843  27.020  55.534  1.00  0.00    -0.348 N 
HETATM   20  C   UNL     1       6.910  26.192  54.964  1.00  0.00     0.253 C 
HETATM   21  O   UNL     1       5.795  26.611  54.656  1.00  0.00    -0.268 OA
HETATM   22  H   UNL     1       8.712  26.634  55.887  1.00  0.00     0.163 HD
BRANCH  20  23
HETATM   23  C   UNL     1       7.279  24.765  54.708  1.00  0.00     0.053 A 
HETATM   24  C   UNL     1       7.698  24.228  53.481  1.00  0.00     0.049 A 
HETATM   25 CL   UNL     1       7.926  25.157  52.040  1.00  0.00    -0.083 Cl
HETATM   26  C   UNL     1       7.988  22.859  53.376  1.00  0.00     0.025 A 
HETATM   27  C   UNL     1       7.871  22.019  54.483  1.00  0.00     0.002 A 
HETATM   28  C   UNL     1       7.471  22.543  55.707  1.00  0.00     0.001 A 
HETATM   29  C   UNL     1       7.178  23.904  55.818  1.00  0.00     0.019 A 
ENDBRANCH  20  23
ENDBRANCH  18  19
ENDBRANCH   2  18
TORSDOF 5
ENDMDL
MODEL 10
REMARK VINA RESULT:      -8.6      2.553      8.371
REMARK  5 active torsions:
REMARK  status: ('A' for Active; 'I' for Inactive)
REMARK    1  A    between atoms: C_7  and  C_8 
REMARK    2  A    between atoms: N_9  and  N_10 
REMARK       I    between atoms: N_10  and  C_11 
REMARK    3  A    between atoms: C_11  and  C_12 
REMARK    4  A    between atoms: C_12  and  N_13 
REMARK       I    between atoms: N_13  and  C_14 
REMARK    5  A    between atoms: C_14  and  C_15 
ROOT
HETATM    1  N   UNL     1       6.599  26.653  55.124  1.00  0.00    -0.246 N 
HETATM    2  C   UNL     1       5.507  26.807  54.283  1.00  0.00     0.255 C 
HETATM    3  O   UNL     1       4.663  27.700  54.359  1.00  0.00    -0.270 OA
HETATM    4  H   UNL     1       7.247  25.878  54.960  1.00  0.00     0.192 HD
ENDROOT
BRANCH   1   5
HETATM    5  N   UNL     1       6.800  27.518  56.158  1.00  0.00    -0.184 NA
HETATM    6  C   UNL     1       7.547  28.541  55.894  1.00  0.00     0.153 C 
BRANCH   6   7
HETATM    7  C   UNL     1       7.842  29.515  56.930  1.00  0.00     0.018 A 
HETATM    8  C   UNL     1       9.096  29.859  57.421  1.00  0.00     0.018 A 
HETATM    9  C   UNL     1      10.456  29.365  57.069  1.00  0.00     0.069 C 
HETATM   10  N   UNL     1       8.920  30.823  58.382  1.00  0.00    -0.358 N 
HETATM   11  H   UNL     1       9.666  31.261  58.906  1.00  0.00     0.166 HD
HETATM   12  C   UNL     1       7.588  31.122  58.532  1.00  0.00     0.043 A 
HETATM   13  C   UNL     1       6.884  30.316  57.638  1.00  0.00     0.004 A 
HETATM   14  C   UNL     1       6.964  32.041  59.384  1.00  0.00     0.030 A 
HETATM   15  C   UNL     1       5.477  30.439  57.597  1.00  0.00     0.014 A 
HETATM   16  C   UNL     1       4.836  31.354  58.442  1.00  0.00     0.001 A 
HETATM   17  C   UNL     1       5.572  32.142  59.322  1.00  0.00     0.002 A 
ENDBRANCH   6   7
ENDBRANCH   1   5
BRANCH   2  18
HETATM   18  C   UNL     1       5.380  25.673  53.265  1.00  0.00     0.227 C 
BRANCH  18  19
HETATM   19  N   UNL     1       5.989  24.426  53.698  1.00  0.00    -0.348 N 
HETATM   20  C   UNL     1       7.142  23.931  53.144  1.00  0.00     0.253 C 
HETATM   21  O   UNL     1       7.663  24.479  52.173  1.00  0.00    -0.268 OA
HETATM   22  H   UNL     1       5.510  23.901  54.422  1.00  0.00     0.163 HD
BRANCH  20  23
HETATM   23  C   UNL     1       7.766  22.717  53.754  1.00  0.00     0.053 A 
HETATM   24  C   UNL     1       8.324  22.631  55.038  1.00  0.00     0.049 A 
HETATM   25 CL   UNL     1       8.328  23.926  56.185  1.00  0.00    -0.083 Cl
HETATM   26  C   UNL     1       8.904  21.430  55.475  1.00  0.00     0.025 A 
HETATM   27  C   UNL     1       8.928  20.309  54.646  1.00  0.00     0.002 A 
HETATM   28  C   UNL     1       8.365  20.378  53.376  1.00  0.00     0.001 A 
HETATM   29  C   UNL     1       7.789  21.571  52.935  1.00  0.00     0.019 A 
ENDBRANCH  20  23
ENDBRANCH  18  19
ENDBRANCH   2  18
TORSDOF 5
ENDMDL
