MODEL 1
REMARK VINA RESULT:      -9.7      0.000      0.000
REMARK  4 active torsions:
REMARK  status: ('A' for Active; 'I' for Inactive)
REMARK    1  A    between atoms: C_3  and  N_4 
REMARK       I    between atoms: N_4  and  C_5 
REMARK    2  A    between atoms: C_5  and  C_6 
REMARK    3  A    between atoms: C_7  and  C_8 
REMARK    4  A    between atoms: C_11  and  O_12 
ROOT
HETATM    1  C   UNL     1       6.777  26.118  55.561  1.00  0.00     0.062 A 
HETATM    2  C   UNL     1       5.452  26.682  55.065  1.00  0.00     0.202 A 
HETATM    3  N   UNL     1       5.042  27.854  55.850  1.00  0.00    -0.083 N 
HETATM    4  C   UNL     1       5.733  28.331  56.931  1.00  0.00     0.726 A 
HETATM    5  N   UNL     1       6.868  27.717  57.313  1.00  0.00    -0.192 N 
HETATM    6  N   UNL     1       3.886  28.529  55.673  1.00  0.00    -0.141 NA
HETATM    7  C   UNL     1       3.995  29.469  56.623  1.00  0.00     0.162 A 
HETATM    8  C   UNL     1       3.002  30.548  56.794  1.00  0.00     0.096 C 
HETATM    9  N   UNL     1       5.107  29.367  57.426  1.00  0.00    -0.046 NA
HETATM   10  C   UNL     1       7.421  26.639  56.634  1.00  0.00     0.037 A 
HETATM   11  C   UNL     1       8.730  26.123  57.178  1.00  0.00     0.070 C 
HETATM   12  H   UNL     1       7.395  28.108  58.090  1.00  0.00     0.184 HD
ENDROOT
BRANCH   1  13
HETATM   13  C   UNL     1       7.412  25.046  54.749  1.00  0.00     0.256 C 
HETATM   14  N   UNL     1       7.228  23.787  55.278  1.00  0.00    -0.323 N 
HETATM   15  H   UNL     1       6.773  23.726  56.176  1.00  0.00     0.169 HD
HETATM   16  O   UNL     1       8.033  25.356  53.739  1.00  0.00    -0.267 OA
BRANCH  14  17
HETATM   17  C   UNL     1       7.637  22.552  54.713  1.00  0.00     0.041 A 
HETATM   18  C   UNL     1       8.143  21.545  55.566  1.00  0.00    -0.035 A 
HETATM   19  C   UNL     1       8.262  21.729  57.055  1.00  0.00     0.050 C 
HETATM   20  C   UNL     1       8.540  20.311  55.018  1.00  0.00     0.009 A 
HETATM   21  C   UNL     1       8.445  20.070  53.649  1.00  0.00     0.001 A 
HETATM   22  C   UNL     1       7.946  21.058  52.812  1.00  0.00     0.002 A 
HETATM   23  C   UNL     1       7.544  22.288  53.340  1.00  0.00     0.030 A 
ENDBRANCH  14  17
ENDBRANCH   1  13
BRANCH   2  24
HETATM   24  C   UNL     1       5.436  26.999  53.575  1.00  0.00    -0.028 A 
HETATM   25  C   UNL     1       4.976  26.039  52.662  1.00  0.00     0.012 A 
HETATM   26  C   UNL     1       4.962  26.311  51.292  1.00  0.00     0.037 A 
HETATM   27  C   UNL     1       5.398  27.544  50.807  1.00  0.00     0.068 A 
HETATM   28  C   UNL     1       5.862  28.504  51.705  1.00  0.00     0.037 A 
HETATM   29  C   UNL     1       5.881  28.235  53.079  1.00  0.00     0.012 A 
BRANCH  27  30
HETATM   30  O   UNL     1       5.323  27.680  49.448  1.00  0.00    -0.356 OA
HETATM   31  C   UNL     1       4.488  26.760  48.757  1.00  0.00     0.210 C 
ENDBRANCH  27  30
ENDBRANCH   2  24
TORSDOF 4
ENDMDL
MODEL 2
REMARK VINA RESULT:      -9.6      2.412      4.748
REMARK  4 active torsions:
REMARK  status: ('A' for Active; 'I' for Inactive)
REMARK    1  A    between atoms: C_3  and  N_4 
REMARK       I    between atoms: N_4  and  C_5 
REMARK    2  A    between atoms: C_5  and  C_6 
REMARK    3  A    between atoms: C_7  and  C_8 
REMARK    4  A    between atoms: C_11  and  O_12 
ROOT
HETATM    1  C   UNL     1       6.090  26.591  52.920  1.00  0.00     0.062 A 
HETATM    2  C   UNL     1       6.300  28.043  53.327  1.00  0.00     0.202 A 
HETATM    3  N   UNL     1       5.118  28.861  53.022  1.00  0.00    -0.083 N 
HETATM    4  C   UNL     1       4.001  28.386  52.389  1.00  0.00     0.726 A 
HETATM    5  N   UNL     1       3.948  27.091  52.026  1.00  0.00    -0.192 N 
HETATM    6  N   UNL     1       5.036  30.194  53.223  1.00  0.00    -0.141 NA
HETATM    7  C   UNL     1       3.794  30.439  52.780  1.00  0.00     0.162 A 
HETATM    8  C   UNL     1       3.165  31.772  52.868  1.00  0.00     0.096 C 
HETATM    9  N   UNL     1       3.137  29.356  52.244  1.00  0.00    -0.046 NA
HETATM   10  C   UNL     1       4.956  26.176  52.303  1.00  0.00     0.037 A 
HETATM   11  C   UNL     1       4.690  24.756  51.870  1.00  0.00     0.070 C 
HETATM   12  H   UNL     1       3.095  26.740  51.597  1.00  0.00     0.184 HD
ENDROOT
BRANCH   1  13
HETATM   13  C   UNL     1       7.124  25.606  53.335  1.00  0.00     0.256 C 
HETATM   14  N   UNL     1       6.662  24.699  54.265  1.00  0.00    -0.323 N 
HETATM   15  H   UNL     1       5.731  24.841  54.624  1.00  0.00     0.169 HD
HETATM   16  O   UNL     1       8.249  25.689  52.857  1.00  0.00    -0.267 OA
BRANCH  14  17
HETATM   17  C   UNL     1       7.367  23.593  54.806  1.00  0.00     0.041 A 
HETATM   18  C   UNL     1       7.792  23.647  56.152  1.00  0.00    -0.035 A 
HETATM   19  C   UNL     1       7.525  24.833  57.040  1.00  0.00     0.050 C 
HETATM   20  C   UNL     1       8.481  22.550  56.704  1.00  0.00     0.009 A 
HETATM   21  C   UNL     1       8.750  21.416  55.941  1.00  0.00     0.001 A 
HETATM   22  C   UNL     1       8.330  21.362  54.619  1.00  0.00     0.002 A 
HETATM   23  C   UNL     1       7.643  22.441  54.058  1.00  0.00     0.030 A 
ENDBRANCH  14  17
ENDBRANCH   1  13
BRANCH   2  24
HETATM   24  C   UNL     1       6.717  28.222  54.781  1.00  0.00    -0.028 A 
HETATM   25  C   UNL     1       8.035  28.594  55.089  1.00  0.00     0.012 A 
HETATM   26  C   UNL     1       8.435  28.755  56.417  1.00  0.00     0.037 A 
HETATM   27  C   UNL     1       7.533  28.556  57.462  1.00  0.00     0.068 A 
HETATM   28  C   UNL     1       6.223  28.181  57.168  1.00  0.00     0.037 A 
HETATM   29  C   UNL     1       5.816  28.016  55.838  1.00  0.00     0.012 A 
BRANCH  27  30
HETATM   30  O   UNL     1       8.055  28.754  58.710  1.00  0.00    -0.356 OA
HETATM   31  C   UNL     1       8.389  30.090  59.060  1.00  0.00     0.210 C 
ENDBRANCH  27  30
ENDBRANCH   2  24
TORSDOF 4
ENDMDL
MODEL 3
REMARK VINA RESULT:      -9.4      2.319      6.358
REMARK  4 active torsions:
REMARK  status: ('A' for Active; 'I' for Inactive)
REMARK    1  A    between atoms: C_3  and  N_4 
REMARK       I    between atoms: N_4  and  C_5 
REMARK    2  A    between atoms: C_5  and  C_6 
REMARK    3  A    between atoms: C_7  and  C_8 
REMARK    4  A    between atoms: C_11  and  O_12 
ROOT
HETATM    1  C   UNL     1       5.561  28.242  53.438  1.00  0.00     0.062 A 
HETATM    2  C   UNL     1       7.008  27.815  53.650  1.00  0.00     0.202 A 
HETATM    3  N   UNL     1       7.598  28.486  54.817  1.00  0.00    -0.083 N 
HETATM    4  C   UNL     1       6.948  29.425  55.570  1.00  0.00     0.726 A 
HETATM    5  N   UNL     1       5.684  29.765  55.256  1.00  0.00    -0.192 N 
HETATM    6  N   UNL     1       8.881  28.343  55.215  1.00  0.00    -0.141 NA
HETATM    7  C   UNL     1       8.904  29.154  56.283  1.00  0.00     0.162 A 
HETATM    8  C   UNL     1      10.088  29.289  57.155  1.00  0.00     0.096 C 
HETATM    9  N   UNL     1       7.741  29.849  56.519  1.00  0.00    -0.046 NA
HETATM   10  C   UNL     1       4.966  29.172  54.224  1.00  0.00     0.037 A 
HETATM   11  C   UNL     1       3.542  29.642  54.062  1.00  0.00     0.070 C 
HETATM   12  H   UNL     1       5.197  30.431  55.850  1.00  0.00     0.184 HD
ENDROOT
BRANCH   1  13
HETATM   13  C   UNL     1       4.774  27.509  52.411  1.00  0.00     0.256 C 
HETATM   14  N   UNL     1       4.781  28.131  51.181  1.00  0.00    -0.323 N 
HETATM   15  H   UNL     1       5.228  29.032  51.123  1.00  0.00     0.169 HD
HETATM   16  O   UNL     1       4.198  26.476  52.731  1.00  0.00    -0.267 OA
BRANCH  14  17
HETATM   17  C   UNL     1       4.196  27.657  49.979  1.00  0.00     0.041 A 
HETATM   18  C   UNL     1       2.942  28.173  49.580  1.00  0.00    -0.035 A 
HETATM   19  C   UNL     1       2.202  29.211  50.380  1.00  0.00     0.050 C 
HETATM   20  C   UNL     1       2.358  27.721  48.382  1.00  0.00     0.009 A 
HETATM   21  C   UNL     1       2.995  26.770  47.588  1.00  0.00     0.001 A 
HETATM   22  C   UNL     1       4.228  26.265  47.979  1.00  0.00     0.002 A 
HETATM   23  C   UNL     1       4.823  26.706  49.164  1.00  0.00     0.030 A 
ENDBRANCH  14  17
ENDBRANCH   1  13
BRANCH   2  24
HETATM   24  C   UNL     1       7.198  26.306  53.744  1.00  0.00    -0.028 A 
HETATM   25  C   UNL     1       6.787  25.621  54.898  1.00  0.00     0.012 A 
HETATM   26  C   UNL     1       6.960  24.240  55.003  1.00  0.00     0.037 A 
HETATM   27  C   UNL     1       7.539  23.513  53.962  1.00  0.00     0.068 A 
HETATM   28  C   UNL     1       7.956  24.184  52.813  1.00  0.00     0.037 A 
HETATM   29  C   UNL     1       7.786  25.570  52.703  1.00  0.00     0.012 A 
BRANCH  27  30
HETATM   30  O   UNL     1       7.642  22.169  54.193  1.00  0.00    -0.356 OA
HETATM   31  C   UNL     1       7.975  21.351  53.080  1.00  0.00     0.210 C 
ENDBRANCH  27  30
ENDBRANCH   2  24
TORSDOF 4
ENDMDL
MODEL 4
REMARK VINA RESULT:      -9.3      1.544      2.202
REMARK  4 active torsions:
REMARK  status: ('A' for Active; 'I' for Inactive)
REMARK    1  A    between atoms: C_3  and  N_4 
REMARK       I    between atoms: N_4  and  C_5 
REMARK    2  A    between atoms: C_5  and  C_6 
REMARK    3  A    between atoms: C_7  and  C_8 
REMARK    4  A    between atoms: C_11  and  O_12 
ROOT
HETATM    1  C   UNL     1       6.385  26.474  56.548  1.00  0.00     0.062 A 
HETATM    2  C   UNL     1       5.454  27.620  56.173  1.00  0.00     0.202 A 
HETATM    3  N   UNL     1       5.860  28.874  56.823  1.00  0.00    -0.083 N 
HETATM    4  C   UNL     1       6.901  28.977  57.705  1.00  0.00     0.726 A 
HETATM    5  N   UNL     1       7.624  27.882  58.004  1.00  0.00    -0.192 N 
HETATM    6  N   UNL     1       5.191  30.042  56.717  1.00  0.00    -0.141 NA
HETATM    7  C   UNL     1       5.950  30.836  57.487  1.00  0.00     0.162 A 
HETATM    8  C   UNL     1       5.693  32.283  57.637  1.00  0.00     0.096 C 
HETATM    9  N   UNL     1       6.997  30.211  58.124  1.00  0.00    -0.046 NA
HETATM   10  C   UNL     1       7.408  26.639  57.423  1.00  0.00     0.037 A 
HETATM   11  C   UNL     1       8.360  25.545  57.840  1.00  0.00     0.070 C 
HETATM   12  H   UNL     1       8.422  27.981  58.627  1.00  0.00     0.184 HD
ENDROOT
BRANCH   1  13
HETATM   13  C   UNL     1       6.215  25.187  55.823  1.00  0.00     0.256 C 
HETATM   14  N   UNL     1       7.413  24.614  55.453  1.00  0.00    -0.323 N 
HETATM   15  H   UNL     1       8.251  25.147  55.625  1.00  0.00     0.169 HD
HETATM   16  O   UNL     1       5.082  24.772  55.608  1.00  0.00    -0.267 OA
BRANCH  14  17
HETATM   17  C   UNL     1       7.602  23.359  54.820  1.00  0.00     0.041 A 
HETATM   18  C   UNL     1       7.725  23.315  53.412  1.00  0.00    -0.035 A 
HETATM   19  C   UNL     1       7.666  24.551  52.556  1.00  0.00     0.050 C 
HETATM   20  C   UNL     1       7.926  22.078  52.774  1.00  0.00     0.009 A 
HETATM   21  C   UNL     1       8.003  20.896  53.509  1.00  0.00     0.001 A 
HETATM   22  C   UNL     1       7.884  20.939  54.891  1.00  0.00     0.002 A 
HETATM   23  C   UNL     1       7.687  22.161  55.540  1.00  0.00     0.030 A 
ENDBRANCH  14  17
ENDBRANCH   1  13
BRANCH   2  24
HETATM   24  C   UNL     1       5.296  27.818  54.671  1.00  0.00    -0.028 A 
HETATM   25  C   UNL     1       6.429  28.033  53.872  1.00  0.00     0.012 A 
HETATM   26  C   UNL     1       6.300  28.224  52.495  1.00  0.00     0.037 A 
HETATM   27  C   UNL     1       5.045  28.199  51.886  1.00  0.00     0.068 A 
HETATM   28  C   UNL     1       3.912  27.991  52.671  1.00  0.00     0.037 A 
HETATM   29  C   UNL     1       4.035  27.802  54.054  1.00  0.00     0.012 A 
BRANCH  27  30
HETATM   30  O   UNL     1       5.064  28.393  50.532  1.00  0.00    -0.356 OA
HETATM   31  C   UNL     1       4.853  27.246  49.719  1.00  0.00     0.210 C 
ENDBRANCH  27  30
ENDBRANCH   2  24
TORSDOF 4
ENDMDL
MODEL 5
REMARK VINA RESULT:      -9.3      1.570      1.819
REMARK  4 active torsions:
REMARK  status: ('A' for Active; 'I' for Inactive)
REMARK    1  A    between atoms: C_3  and  N_4 
REMARK       I    between atoms: N_4  and  C_5 
REMARK    2  A    between atoms: C_5  and  C_6 
REMARK    3  A    between atoms: C_7  and  C_8 
REMARK    4  A    between atoms: C_11  and  O_12 
ROOT
HETATM    1  C   UNL     1       6.619  27.742  54.695  1.00  0.00     0.062 A 
HETATM    2  C   UNL     1       5.239  27.997  54.105  1.00  0.00     0.202 A 
HETATM    3  N   UNL     1       4.709  29.301  54.528  1.00  0.00    -0.083 N 
HETATM    4  C   UNL     1       5.350  30.142  55.397  1.00  0.00     0.726 A 
HETATM    5  N   UNL     1       6.547  29.787  55.899  1.00  0.00    -0.192 N 
HETATM    6  N   UNL     1       3.486  29.773  54.204  1.00  0.00    -0.141 NA
HETATM    7  C   UNL     1       3.498  30.957  54.834  1.00  0.00     0.162 A 
HETATM    8  C   UNL     1       2.395  31.932  54.719  1.00  0.00     0.096 C 
HETATM    9  N   UNL     1       4.619  31.209  55.591  1.00  0.00    -0.046 NA
HETATM   10  C   UNL     1       7.209  28.618  55.545  1.00  0.00     0.037 A 
HETATM   11  C   UNL     1       8.570  28.420  56.167  1.00  0.00     0.070 C 
HETATM   12  H   UNL     1       7.033  30.440  56.508  1.00  0.00     0.184 HD
ENDROOT
BRANCH   1  13
HETATM   13  C   UNL     1       7.363  26.549  54.208  1.00  0.00     0.256 C 
HETATM   14  N   UNL     1       7.074  25.405  54.921  1.00  0.00    -0.323 N 
HETATM   15  H   UNL     1       6.477  25.504  55.728  1.00  0.00     0.169 HD
HETATM   16  O   UNL     1       8.145  26.678  53.274  1.00  0.00    -0.267 OA
BRANCH  14  17
HETATM   17  C   UNL     1       7.551  24.094  54.666  1.00  0.00     0.041 A 
HETATM   18  C   UNL     1       8.361  23.461  55.637  1.00  0.00    -0.035 A 
HETATM   19  C   UNL     1       8.736  24.124  56.935  1.00  0.00     0.050 C 
HETATM   20  C   UNL     1       8.829  22.156  55.401  1.00  0.00     0.009 A 
HETATM   21  C   UNL     1       8.509  21.480  54.226  1.00  0.00     0.001 A 
HETATM   22  C   UNL     1       7.711  22.101  53.274  1.00  0.00     0.002 A 
HETATM   23  C   UNL     1       7.236  23.396  53.494  1.00  0.00     0.030 A 
ENDBRANCH  14  17
ENDBRANCH   1  13
BRANCH   2  24
HETATM   24  C   UNL     1       5.181  27.859  52.589  1.00  0.00    -0.028 A 
HETATM   25  C   UNL     1       4.895  26.613  52.012  1.00  0.00     0.012 A 
HETATM   26  C   UNL     1       4.845  26.467  50.624  1.00  0.00     0.037 A 
HETATM   27  C   UNL     1       5.072  27.558  49.785  1.00  0.00     0.068 A 
HETATM   28  C   UNL     1       5.361  28.801  50.347  1.00  0.00     0.037 A 
HETATM   29  C   UNL     1       5.415  28.952  51.739  1.00  0.00     0.012 A 
BRANCH  27  30
HETATM   30  O   UNL     1       4.985  27.278  48.450  1.00  0.00    -0.356 OA
HETATM   31  C   UNL     1       3.976  26.360  48.052  1.00  0.00     0.210 C 
ENDBRANCH  27  30
ENDBRANCH   2  24
TORSDOF 4
ENDMDL
MODEL 6
REMARK VINA RESULT:      -9.3      6.289      9.301
REMARK  4 active torsions:
REMARK  status: ('A' for Active; 'I' for Inactive)
REMARK    1  A    between atoms: C_3  and  N_4 
REMARK       I    between atoms: N_4  and  C_5 
REMARK    2  A    between atoms: C_5  and  C_6 
REMARK    3  A    between atoms: C_7  and  C_8 
REMARK    4  A    between atoms: C_11  and  O_12 
ROOT
HETATM    1  C   UNL     1       7.251  31.959  61.203  1.00  0.00     0.062 A 
HETATM    2  C   UNL     1       5.855  32.141  61.783  1.00  0.00     0.202 A 
HETATM    3  N   UNL     1       5.910  32.669  63.154  1.00  0.00    -0.083 N 
HETATM    4  C   UNL     1       7.072  32.899  63.839  1.00  0.00     0.726 A 
HETATM    5  N   UNL     1       8.251  32.650  63.242  1.00  0.00    -0.192 N 
HETATM    6  N   UNL     1       4.830  32.881  63.937  1.00  0.00    -0.141 NA
HETATM    7  C   UNL     1       5.416  33.339  65.053  1.00  0.00     0.162 A 
HETATM    8  C   UNL     1       4.645  33.814  66.220  1.00  0.00     0.096 C 
HETATM    9  N   UNL     1       6.791  33.346  65.035  1.00  0.00    -0.046 NA
HETATM   10  C   UNL     1       8.368  32.213  61.928  1.00  0.00     0.037 A 
HETATM   11  C   UNL     1       9.776  32.047  61.414  1.00  0.00     0.070 C 
HETATM   12  H   UNL     1       9.108  32.868  63.746  1.00  0.00     0.184 HD
ENDROOT
BRANCH   1  13
HETATM   13  C   UNL     1       7.353  31.611  59.760  1.00  0.00     0.256 C 
HETATM   14  N   UNL     1       7.624  30.277  59.546  1.00  0.00    -0.323 N 
HETATM   15  H   UNL     1       7.807  29.707  60.357  1.00  0.00     0.169 HD
HETATM   16  O   UNL     1       7.215  32.496  58.925  1.00  0.00    -0.267 OA
BRANCH  14  17
HETATM   17  C   UNL     1       7.708  29.610  58.296  1.00  0.00     0.041 A 
HETATM   18  C   UNL     1       8.929  29.645  57.584  1.00  0.00    -0.035 A 
HETATM   19  C   UNL     1      10.148  30.360  58.101  1.00  0.00     0.050 C 
HETATM   20  C   UNL     1       9.028  28.976  56.350  1.00  0.00     0.009 A 
HETATM   21  C   UNL     1       7.941  28.285  55.820  1.00  0.00     0.001 A 
HETATM   22  C   UNL     1       6.743  28.249  56.520  1.00  0.00     0.002 A 
HETATM   23  C   UNL     1       6.629  28.905  57.749  1.00  0.00     0.030 A 
ENDBRANCH  14  17
ENDBRANCH   1  13
BRANCH   2  24
HETATM   24  C   UNL     1       4.932  32.990  60.917  1.00  0.00    -0.028 A 
HETATM   25  C   UNL     1       3.971  32.369  60.105  1.00  0.00     0.012 A 
HETATM   26  C   UNL     1       3.122  33.131  59.300  1.00  0.00     0.037 A 
HETATM   27  C   UNL     1       3.210  34.523  59.291  1.00  0.00     0.068 A 
HETATM   28  C   UNL     1       4.165  35.151  60.089  1.00  0.00     0.037 A 
HETATM   29  C   UNL     1       5.020  34.391  60.897  1.00  0.00     0.012 A 
BRANCH  27  30
HETATM   30  O   UNL     1       2.315  35.145  58.463  1.00  0.00    -0.356 OA
HETATM   31  C   UNL     1       1.291  35.908  59.086  1.00  0.00     0.210 C 
ENDBRANCH  27  30
ENDBRANCH   2  24
TORSDOF 4
ENDMDL
MODEL 7
REMARK VINA RESULT:      -9.2      3.458      5.126
REMARK  4 active torsions:
REMARK  status: ('A' for Active; 'I' for Inactive)
REMARK    1  A    between atoms: C_3  and  N_4 
REMARK       I    between atoms: N_4  and  C_5 
REMARK    2  A    between atoms: C_5  and  C_6 
REMARK    3  A    between atoms: C_7  and  C_8 
REMARK    4  A    between atoms: C_11  and  O_12 
ROOT
HETATM    1  C   UNL     1       8.507  29.423  57.369  1.00  0.00     0.062 A 
HETATM    2  C   UNL     1       7.307  29.836  58.211  1.00  0.00     0.202 A 
HETATM    3  N   UNL     1       7.643  30.944  59.115  1.00  0.00    -0.083 N 
HETATM    4  C   UNL     1       8.895  31.486  59.229  1.00  0.00     0.726 A 
HETATM    5  N   UNL     1       9.895  31.003  58.470  1.00  0.00    -0.192 N 
HETATM    6  N   UNL     1       6.794  31.483  60.015  1.00  0.00    -0.141 NA
HETATM    7  C   UNL     1       7.577  32.419  60.572  1.00  0.00     0.162 A 
HETATM    8  C   UNL     1       7.082  33.375  61.583  1.00  0.00     0.096 C 
HETATM    9  N   UNL     1       8.878  32.436  60.126  1.00  0.00    -0.046 NA
HETATM   10  C   UNL     1       9.723  30.003  57.521  1.00  0.00     0.037 A 
HETATM   11  C   UNL     1      10.950  29.635  56.724  1.00  0.00     0.070 C 
HETATM   12  H   UNL     1      10.810  31.443  58.532  1.00  0.00     0.184 HD
ENDROOT
BRANCH   1  13
HETATM   13  C   UNL     1       8.272  28.441  56.277  1.00  0.00     0.256 C 
HETATM   14  N   UNL     1       7.899  27.198  56.740  1.00  0.00    -0.323 N 
HETATM   15  H   UNL     1       7.908  27.056  57.738  1.00  0.00     0.169 HD
HETATM   16  O   UNL     1       8.440  28.794  55.116  1.00  0.00    -0.267 OA
BRANCH  14  17
HETATM   17  C   UNL     1       7.531  26.069  55.963  1.00  0.00     0.041 A 
HETATM   18  C   UNL     1       8.067  24.805  56.299  1.00  0.00    -0.035 A 
HETATM   19  C   UNL     1       9.013  24.606  57.453  1.00  0.00     0.050 C 
HETATM   20  C   UNL     1       7.699  23.676  55.544  1.00  0.00     0.009 A 
HETATM   21  C   UNL     1       6.818  23.788  54.471  1.00  0.00     0.001 A 
HETATM   22  C   UNL     1       6.289  25.029  54.143  1.00  0.00     0.002 A 
HETATM   23  C   UNL     1       6.643  26.159  54.884  1.00  0.00     0.030 A 
ENDBRANCH  14  17
ENDBRANCH   1  13
BRANCH   2  24
HETATM   24  C   UNL     1       6.064  30.166  57.393  1.00  0.00    -0.028 A 
HETATM   25  C   UNL     1       6.000  31.371  56.677  1.00  0.00     0.012 A 
HETATM   26  C   UNL     1       4.866  31.692  55.928  1.00  0.00     0.037 A 
HETATM   27  C   UNL     1       3.779  30.820  55.873  1.00  0.00     0.068 A 
HETATM   28  C   UNL     1       3.829  29.622  56.584  1.00  0.00     0.037 A 
HETATM   29  C   UNL     1       4.964  29.296  57.339  1.00  0.00     0.012 A 
BRANCH  27  30
HETATM   30  O   UNL     1       2.739  31.255  55.098  1.00  0.00    -0.356 OA
HETATM   31  C   UNL     1       3.075  31.984  53.926  1.00  0.00     0.210 C 
ENDBRANCH  27  30
ENDBRANCH   2  24
TORSDOF 4
ENDMDL
MODEL 8
REMARK VINA RESULT:      -8.9      2.275      2.957
REMARK  4 active torsions:
REMARK  status: ('A' for Active; 'I' for Inactive)
REMARK    1  A    between atoms: C_3  and  N_4 
REMARK       I    between atoms: N_4  and  C_5 
REMARK    2  A    between atoms: C_5  and  C_6 
REMARK    3  A    between atoms: C_7  and  C_8 
REMARK    4  A    between atoms: C_11  and  O_12 
ROOT
HETATM    1  C   UNL     1       7.096  28.687  56.389  1.00  0.00     0.062 A 
HETATM    2  C   UNL     1       5.615  28.989  56.574  1.00  0.00     0.202 A 
HETATM    3  N   UNL     1       5.410  30.124  57.485  1.00  0.00    -0.083 N 
HETATM    4  C   UNL     1       6.423  30.776  58.135  1.00  0.00     0.726 A 
HETATM    5  N   UNL     1       7.695  30.386  57.935  1.00  0.00    -0.192 N 
HETATM    6  N   UNL     1       4.203  30.583  57.877  1.00  0.00    -0.141 NA
HETATM    7  C   UNL     1       4.567  31.586  58.690  1.00  0.00     0.162 A 
HETATM    8  C   UNL     1       3.590  32.493  59.325  1.00  0.00     0.096 C 
HETATM    9  N   UNL     1       5.922  31.721  58.886  1.00  0.00    -0.046 NA
HETATM   10  C   UNL     1       8.057  29.375  57.054  1.00  0.00     0.037 A 
HETATM   11  C   UNL     1       9.538  29.119  56.919  1.00  0.00     0.070 C 
HETATM   12  H   UNL     1       8.442  30.907  58.389  1.00  0.00     0.184 HD
ENDROOT
BRANCH   1  13
HETATM   13  C   UNL     1       7.467  27.688  55.351  1.00  0.00     0.256 C 
HETATM   14  N   UNL     1       7.228  26.388  55.744  1.00  0.00    -0.323 N 
HETATM   15  H   UNL     1       6.920  26.243  56.693  1.00  0.00     0.169 HD
HETATM   16  O   UNL     1       7.947  28.080  54.295  1.00  0.00    -0.267 OA
BRANCH  14  17
HETATM   17  C   UNL     1       7.398  25.214  54.967  1.00  0.00     0.041 A 
HETATM   18  C   UNL     1       8.220  24.178  55.465  1.00  0.00    -0.035 A 
HETATM   19  C   UNL     1       8.922  24.270  56.793  1.00  0.00     0.050 C 
HETATM   20  C   UNL     1       8.386  23.003  54.709  1.00  0.00     0.009 A 
HETATM   21  C   UNL     1       7.755  22.848  53.477  1.00  0.00     0.001 A 
HETATM   22  C   UNL     1       6.945  23.864  52.989  1.00  0.00     0.002 A 
HETATM   23  C   UNL     1       6.768  25.036  53.728  1.00  0.00     0.030 A 
ENDBRANCH  14  17
ENDBRANCH   1  13
BRANCH   2  24
HETATM   24  C   UNL     1       4.862  29.206  55.267  1.00  0.00    -0.028 A 
HETATM   25  C   UNL     1       4.284  28.112  54.605  1.00  0.00     0.012 A 
HETATM   26  C   UNL     1       3.596  28.293  53.404  1.00  0.00     0.037 A 
HETATM   27  C   UNL     1       3.465  29.563  52.842  1.00  0.00     0.068 A 
HETATM   28  C   UNL     1       4.040  30.656  53.488  1.00  0.00     0.037 A 
HETATM   29  C   UNL     1       4.733  30.480  54.693  1.00  0.00     0.012 A 
BRANCH  27  30
HETATM   30  O   UNL     1       2.762  29.597  51.669  1.00  0.00    -0.356 OA
HETATM   31  C   UNL     1       3.404  29.056  50.522  1.00  0.00     0.210 C 
ENDBRANCH  27  30
ENDBRANCH   2  24
TORSDOF 4
ENDMDL
MODEL 9
REMARK VINA RESULT:      -8.8      2.762      5.138
REMARK  4 active torsions:
REMARK  status: ('A' for Active; 'I' for Inactive)
REMARK    1  A    between atoms: C_3  and  N_4 
REMARK       I    between atoms: N_4  and  C_5 
REMARK    2  A    between atoms: C_5  and  C_6 
REMARK    3  A    between atoms: C_7  and  C_8 
REMARK    4  A    between atoms: C_11  and  O_12 
ROOT
HETATM    1  C   UNL     1       5.708  26.008  52.756  1.00  0.00     0.062 A 
HETATM    2  C   UNL     1       6.189  27.452  52.824  1.00  0.00     0.202 A 
HETATM    3  N   UNL     1       5.725  28.225  51.664  1.00  0.00    -0.083 N 
HETATM    4  C   UNL     1       5.012  27.693  50.625  1.00  0.00     0.726 A 
HETATM    5  N   UNL     1       4.687  26.388  50.647  1.00  0.00    -0.192 N 
HETATM    6  N   UNL     1       6.042  29.517  51.429  1.00  0.00    -0.141 NA
HETATM    7  C   UNL     1       5.395  29.728  50.273  1.00  0.00     0.162 A 
HETATM    8  C   UNL     1       5.345  31.050  49.617  1.00  0.00     0.096 C 
HETATM    9  N   UNL     1       4.767  28.625  49.741  1.00  0.00    -0.046 NA
HETATM   10  C   UNL     1       4.994  25.540  51.703  1.00  0.00     0.037 A 
HETATM   11  C   UNL     1       4.495  24.122  51.574  1.00  0.00     0.070 C 
HETATM   12  H   UNL     1       4.119  26.014  49.890  1.00  0.00     0.184 HD
ENDROOT
BRANCH   1  13
HETATM   13  C   UNL     1       5.939  25.152  53.950  1.00  0.00     0.256 C 
HETATM   14  N   UNL     1       7.024  24.313  53.810  1.00  0.00    -0.323 N 
HETATM   15  H   UNL     1       7.484  24.300  52.913  1.00  0.00     0.169 HD
HETATM   16  O   UNL     1       5.175  25.243  54.903  1.00  0.00    -0.267 OA
BRANCH  14  17
HETATM   17  C   UNL     1       7.556  23.432  54.786  1.00  0.00     0.041 A 
HETATM   18  C   UNL     1       7.903  22.116  54.401  1.00  0.00    -0.035 A 
HETATM   19  C   UNL     1       7.732  21.613  52.993  1.00  0.00     0.050 C 
HETATM   20  C   UNL     1       8.444  21.237  55.357  1.00  0.00     0.009 A 
HETATM   21  C   UNL     1       8.640  21.643  56.675  1.00  0.00     0.001 A 
HETATM   22  C   UNL     1       8.302  22.936  57.052  1.00  0.00     0.002 A 
HETATM   23  C   UNL     1       7.767  23.822  56.114  1.00  0.00     0.030 A 
ENDBRANCH  14  17
ENDBRANCH   1  13
BRANCH   2  24
HETATM   24  C   UNL     1       5.829  28.161  54.124  1.00  0.00    -0.028 A 
HETATM   25  C   UNL     1       6.841  28.526  55.024  1.00  0.00     0.012 A 
HETATM   26  C   UNL     1       6.527  29.171  56.222  1.00  0.00     0.037 A 
HETATM   27  C   UNL     1       5.204  29.470  56.544  1.00  0.00     0.068 A 
HETATM   28  C   UNL     1       4.189  29.108  55.659  1.00  0.00     0.037 A 
HETATM   29  C   UNL     1       4.498  28.458  54.457  1.00  0.00     0.012 A 
BRANCH  27  30
HETATM   30  O   UNL     1       5.039  30.108  57.743  1.00  0.00    -0.356 OA
HETATM   31  C   UNL     1       6.048  31.036  58.118  1.00  0.00     0.210 C 
ENDBRANCH  27  30
ENDBRANCH   2  24
TORSDOF 4
ENDMDL
MODEL 10
REMARK VINA RESULT:      -8.7      3.015      8.084
REMARK  4 active torsions:
REMARK  status: ('A' for Active; 'I' for Inactive)
REMARK    1  A    between atoms: C_3  and  N_4 
REMARK       I    between atoms: N_4  and  C_5 
REMARK    2  A    between atoms: C_5  and  C_6 
REMARK    3  A    between atoms: C_7  and  C_8 
REMARK    4  A    between atoms: C_11  and  O_12 
ROOT
HETATM    1  C   UNL     1       4.532  28.013  54.500  1.00  0.00     0.062 A 
HETATM    2  C   UNL     1       5.498  27.021  55.134  1.00  0.00     0.202 A 
HETATM    3  N   UNL     1       5.901  25.980  54.178  1.00  0.00    -0.083 N 
HETATM    4  C   UNL     1       5.412  25.881  52.904  1.00  0.00     0.726 A 
HETATM    5  N   UNL     1       4.518  26.786  52.467  1.00  0.00    -0.192 N 
HETATM    6  N   UNL     1       6.708  24.939  54.474  1.00  0.00    -0.141 NA
HETATM    7  C   UNL     1       6.743  24.304  53.293  1.00  0.00     0.162 A 
HETATM    8  C   UNL     1       7.585  23.115  53.052  1.00  0.00     0.096 C 
HETATM    9  N   UNL     1       5.944  24.844  52.312  1.00  0.00    -0.046 NA
HETATM   10  C   UNL     1       4.089  27.867  53.227  1.00  0.00     0.037 A 
HETATM   11  C   UNL     1       3.127  28.809  52.545  1.00  0.00     0.070 C 
HETATM   12  H   UNL     1       4.196  26.728  51.504  1.00  0.00     0.184 HD
ENDROOT
BRANCH   1  13
HETATM   13  C   UNL     1       4.182  29.226  55.285  1.00  0.00     0.256 C 
HETATM   14  N   UNL     1       4.821  30.362  54.835  1.00  0.00    -0.323 N 
HETATM   15  H   UNL     1       5.503  30.247  54.102  1.00  0.00     0.169 HD
HETATM   16  O   UNL     1       3.411  29.120  56.231  1.00  0.00    -0.267 OA
BRANCH  14  17
HETATM   17  C   UNL     1       4.649  31.687  55.312  1.00  0.00     0.041 A 
HETATM   18  C   UNL     1       5.200  32.038  56.565  1.00  0.00    -0.035 A 
HETATM   19  C   UNL     1       5.966  31.061  57.416  1.00  0.00     0.050 C 
HETATM   20  C   UNL     1       5.048  33.353  57.043  1.00  0.00     0.009 A 
HETATM   21  C   UNL     1       4.361  34.311  56.300  1.00  0.00     0.001 A 
HETATM   22  C   UNL     1       3.822  33.966  55.068  1.00  0.00     0.002 A 
HETATM   23  C   UNL     1       3.967  32.666  54.578  1.00  0.00     0.030 A 
ENDBRANCH  14  17
ENDBRANCH   1  13
BRANCH   2  24
HETATM   24  C   UNL     1       6.722  27.672  55.768  1.00  0.00    -0.028 A 
HETATM   25  C   UNL     1       6.952  27.532  57.145  1.00  0.00     0.012 A 
HETATM   26  C   UNL     1       8.065  28.127  57.742  1.00  0.00     0.037 A 
HETATM   27  C   UNL     1       8.970  28.868  56.983  1.00  0.00     0.068 A 
HETATM   28  C   UNL     1       8.749  29.018  55.615  1.00  0.00     0.037 A 
HETATM   29  C   UNL     1       7.633  28.424  55.010  1.00  0.00     0.012 A 
BRANCH  27  30
HETATM   30  O   UNL     1      10.017  29.389  57.692  1.00  0.00    -0.356 OA
HETATM   31  C   UNL     1      10.424  30.709  57.357  1.00  0.00     0.210 C 
ENDBRANCH  27  30
ENDBRANCH   2  24
TORSDOF 4
ENDMDL
