MODEL 1
REMARK VINA RESULT:      -8.9      0.000      0.000
REMARK  7 active torsions:
REMARK  status: ('A' for Active; 'I' for Inactive)
REMARK    1  A    between atoms: C_2  and  O_3 
REMARK    2  A    between atoms: O_3  and  C_4 
REMARK    3  A    between atoms: C_5  and  O_6 
REMARK    4  A    between atoms: C_10  and  C_11 
REMARK    5  A    between atoms: C_12  and  C_13 
REMARK       I    between atoms: C_13  and  N_14 
REMARK    6  A    between atoms: N_14  and  N_15 
REMARK       I    between atoms: N_15  and  C_16 
REMARK    7  A    between atoms: C_16  and  C_17 
ROOT
HETATM    1  C   UNL     1       8.784  29.711  58.423  1.00  0.00     0.259 C 
HETATM    2  N   UNL     1       7.761  28.812  58.243  1.00  0.00    -0.264 N 
HETATM    3  O   UNL     1       9.694  29.864  57.614  1.00  0.00    -0.267 OA
HETATM    4  H   UNL     1       6.944  28.728  58.843  1.00  0.00     0.190 HD
ENDROOT
BRANCH   2   5
HETATM    5  N   UNL     1       7.732  28.092  57.041  1.00  0.00    -0.263 N 
HETATM    6  C   UNL     1       7.726  26.710  57.088  1.00  0.00     0.272 C 
HETATM    7  O   UNL     1       7.878  26.105  58.149  1.00  0.00    -0.266 OA
HETATM    8  H   UNL     1       7.436  28.611  56.219  1.00  0.00     0.190 HD
BRANCH   6   9
HETATM    9  C   UNL     1       7.517  26.044  55.801  1.00  0.00     0.061 A 
HETATM   10  C   UNL     1       7.986  24.740  55.418  1.00  0.00     0.008 A 
HETATM   11  C   UNL     1       7.561  24.494  54.106  1.00  0.00     0.045 A 
HETATM   12  C   UNL     1       8.736  23.740  56.078  1.00  0.00     0.015 A 
HETATM   13  C   UNL     1       7.855  23.290  53.443  1.00  0.00     0.030 A 
HETATM   14  N   UNL     1       6.866  25.609  53.699  1.00  0.00    -0.359 N 
HETATM   15  C   UNL     1       8.600  22.322  54.122  1.00  0.00     0.002 A 
HETATM   16  C   UNL     1       9.036  22.542  55.423  1.00  0.00     0.001 A 
HETATM   17  C   UNL     1       6.242  25.813  52.410  1.00  0.00     0.156 C 
HETATM   18  C   UNL     1       6.834  26.543  54.703  1.00  0.00     0.108 A 
ENDBRANCH   6   9
ENDBRANCH   2   5
BRANCH   1  19
HETATM   19  C   UNL     1       8.680  30.483  59.687  1.00  0.00     0.076 C 
HETATM   20  C   UNL     1       7.556  31.172  59.938  1.00  0.00     0.017 C 
BRANCH  20  21
HETATM   21  C   UNL     1       7.321  32.007  61.124  1.00  0.00    -0.033 A 
HETATM   22  C   UNL     1       8.133  31.806  62.245  1.00  0.00     0.014 A 
HETATM   23  C   UNL     1       7.986  32.594  63.388  1.00  0.00     0.040 A 
HETATM   24  C   UNL     1       7.027  33.608  63.427  1.00  0.00     0.101 A 
HETATM   25  C   UNL     1       6.205  33.826  62.303  1.00  0.00     0.102 A 
HETATM   26  C   UNL     1       6.364  33.031  61.159  1.00  0.00     0.051 A 
BRANCH  24  27
HETATM   27  O   UNL     1       6.812  34.430  64.505  1.00  0.00    -0.353 OA
HETATM   28  C   UNL     1       6.382  33.825  65.716  1.00  0.00     0.210 C 
ENDBRANCH  24  27
BRANCH  25  29
HETATM   29  O   UNL     1       5.292  34.845  62.422  1.00  0.00    -0.349 OA
BRANCH  29  30
HETATM   30  C   UNL     1       3.917  34.545  62.209  1.00  0.00     0.171 C 
HETATM   31  C   UNL     1       3.300  34.205  63.554  1.00  0.00     0.034 C 
ENDBRANCH  29  30
ENDBRANCH  25  29
ENDBRANCH  20  21
ENDBRANCH   1  19
TORSDOF 7
ENDMDL
MODEL 2
REMARK VINA RESULT:      -8.8      1.023      2.059
REMARK  7 active torsions:
REMARK  status: ('A' for Active; 'I' for Inactive)
REMARK    1  A    between atoms: C_2  and  O_3 
REMARK    2  A    between atoms: O_3  and  C_4 
REMARK    3  A    between atoms: C_5  and  O_6 
REMARK    4  A    between atoms: C_10  and  C_11 
REMARK    5  A    between atoms: C_12  and  C_13 
REMARK       I    between atoms: C_13  and  N_14 
REMARK    6  A    between atoms: N_14  and  N_15 
REMARK       I    between atoms: N_15  and  C_16 
REMARK    7  A    between atoms: C_16  and  C_17 
ROOT
HETATM    1  C   UNL     1       8.843  29.593  57.608  1.00  0.00     0.259 C 
HETATM    2  N   UNL     1       8.085  28.453  57.723  1.00  0.00    -0.264 N 
HETATM    3  O   UNL     1       9.764  29.709  56.805  1.00  0.00    -0.267 OA
HETATM    4  H   UNL     1       7.257  28.357  58.307  1.00  0.00     0.190 HD
ENDROOT
BRANCH   2   5
HETATM    5  N   UNL     1       8.343  27.407  56.826  1.00  0.00    -0.263 N 
HETATM    6  C   UNL     1       8.126  26.104  57.235  1.00  0.00     0.272 C 
HETATM    7  O   UNL     1       7.840  25.840  58.403  1.00  0.00    -0.266 OA
HETATM    8  H   UNL     1       8.405  27.668  55.846  1.00  0.00     0.190 HD
BRANCH   6   9
HETATM    9  C   UNL     1       8.251  25.093  56.185  1.00  0.00     0.061 A 
HETATM   10  C   UNL     1       7.839  25.219  54.813  1.00  0.00     0.008 A 
HETATM   11  C   UNL     1       8.146  24.020  54.156  1.00  0.00     0.045 A 
HETATM   12  C   UNL     1       7.231  26.254  54.067  1.00  0.00     0.015 A 
HETATM   13  C   UNL     1       7.872  23.829  52.791  1.00  0.00     0.030 A 
HETATM   14  N   UNL     1       8.717  23.189  55.093  1.00  0.00    -0.359 N 
HETATM   15  C   UNL     1       7.269  24.872  52.082  1.00  0.00     0.002 A 
HETATM   16  C   UNL     1       6.951  26.070  52.710  1.00  0.00     0.001 A 
HETATM   17  C   UNL     1       9.192  21.841  54.874  1.00  0.00     0.156 C 
HETATM   18  C   UNL     1       8.783  23.820  56.310  1.00  0.00     0.108 A 
ENDBRANCH   6   9
ENDBRANCH   2   5
BRANCH   1  19
HETATM   19  C   UNL     1       8.438  30.671  58.544  1.00  0.00     0.076 C 
HETATM   20  C   UNL     1       8.293  30.382  59.846  1.00  0.00     0.017 C 
BRANCH  20  21
HETATM   21  C   UNL     1       7.864  31.331  60.883  1.00  0.00    -0.033 A 
HETATM   22  C   UNL     1       8.660  31.466  62.025  1.00  0.00     0.014 A 
HETATM   23  C   UNL     1       8.328  32.380  63.027  1.00  0.00     0.040 A 
HETATM   24  C   UNL     1       7.195  33.185  62.900  1.00  0.00     0.101 A 
HETATM   25  C   UNL     1       6.385  33.064  61.752  1.00  0.00     0.102 A 
HETATM   26  C   UNL     1       6.731  32.146  60.750  1.00  0.00     0.051 A 
BRANCH  24  27
HETATM   27  O   UNL     1       6.792  34.109  63.832  1.00  0.00    -0.353 OA
HETATM   28  C   UNL     1       6.910  33.753  65.202  1.00  0.00     0.210 C 
ENDBRANCH  24  27
BRANCH  25  29
HETATM   29  O   UNL     1       5.294  33.896  61.703  1.00  0.00    -0.349 OA
BRANCH  29  30
HETATM   30  C   UNL     1       4.001  33.319  61.863  1.00  0.00     0.171 C 
HETATM   31  C   UNL     1       3.232  34.168  62.859  1.00  0.00     0.034 C 
ENDBRANCH  29  30
ENDBRANCH  25  29
ENDBRANCH  20  21
ENDBRANCH   1  19
TORSDOF 7
ENDMDL
MODEL 3
REMARK VINA RESULT:      -8.8      2.475     10.874
REMARK  7 active torsions:
REMARK  status: ('A' for Active; 'I' for Inactive)
REMARK    1  A    between atoms: C_2  and  O_3 
REMARK    2  A    between atoms: O_3  and  C_4 
REMARK    3  A    between atoms: C_5  and  O_6 
REMARK    4  A    between atoms: C_10  and  C_11 
REMARK    5  A    between atoms: C_12  and  C_13 
REMARK       I    between atoms: C_13  and  N_14 
REMARK    6  A    between atoms: N_14  and  N_15 
REMARK       I    between atoms: N_15  and  C_16 
REMARK    7  A    between atoms: C_16  and  C_17 
ROOT
HETATM    1  C   UNL     1       7.730  29.482  58.287  1.00  0.00     0.259 C 
HETATM    2  N   UNL     1       6.614  30.282  58.314  1.00  0.00    -0.264 N 
HETATM    3  O   UNL     1       8.710  29.672  59.001  1.00  0.00    -0.267 OA
HETATM    4  H   UNL     1       5.750  30.099  57.808  1.00  0.00     0.190 HD
ENDROOT
BRANCH   2   5
HETATM    5  N   UNL     1       6.580  31.318  59.257  1.00  0.00    -0.263 N 
HETATM    6  C   UNL     1       5.385  31.978  59.483  1.00  0.00     0.272 C 
HETATM    7  O   UNL     1       4.395  31.765  58.785  1.00  0.00    -0.266 OA
HETATM    8  H   UNL     1       7.350  31.342  59.919  1.00  0.00     0.190 HD
BRANCH   6   9
HETATM    9  C   UNL     1       5.398  32.920  60.604  1.00  0.00     0.061 A 
HETATM   10  C   UNL     1       6.247  32.870  61.763  1.00  0.00     0.008 A 
HETATM   11  C   UNL     1       5.930  33.963  62.581  1.00  0.00     0.045 A 
HETATM   12  C   UNL     1       7.265  31.988  62.190  1.00  0.00     0.015 A 
HETATM   13  C   UNL     1       6.596  34.201  63.795  1.00  0.00     0.030 A 
HETATM   14  N   UNL     1       4.919  34.651  61.949  1.00  0.00    -0.359 N 
HETATM   15  C   UNL     1       7.597  33.309  64.189  1.00  0.00     0.002 A 
HETATM   16  C   UNL     1       7.929  32.216  63.399  1.00  0.00     0.001 A 
HETATM   17  C   UNL     1       4.266  35.851  62.423  1.00  0.00     0.156 C 
HETATM   18  C   UNL     1       4.592  34.035  60.767  1.00  0.00     0.108 A 
ENDBRANCH   6   9
ENDBRANCH   2   5
BRANCH   1  19
HETATM   19  C   UNL     1       7.636  28.364  57.314  1.00  0.00     0.076 C 
HETATM   20  C   UNL     1       7.748  27.103  57.759  1.00  0.00     0.017 C 
BRANCH  20  21
HETATM   21  C   UNL     1       7.712  25.900  56.915  1.00  0.00    -0.033 A 
HETATM   22  C   UNL     1       8.466  24.792  57.312  1.00  0.00     0.014 A 
HETATM   23  C   UNL     1       8.443  23.606  56.574  1.00  0.00     0.040 A 
HETATM   24  C   UNL     1       7.653  23.505  55.427  1.00  0.00     0.101 A 
HETATM   25  C   UNL     1       6.883  24.613  55.017  1.00  0.00     0.102 A 
HETATM   26  C   UNL     1       6.912  25.797  55.768  1.00  0.00     0.051 A 
BRANCH  24  27
HETATM   27  O   UNL     1       7.567  22.383  54.641  1.00  0.00    -0.353 OA
HETATM   28  C   UNL     1       8.782  21.753  54.263  1.00  0.00     0.210 C 
ENDBRANCH  24  27
BRANCH  25  29
HETATM   29  O   UNL     1       6.131  24.429  53.883  1.00  0.00    -0.349 OA
BRANCH  29  30
HETATM   30  C   UNL     1       6.350  25.304  52.781  1.00  0.00     0.171 C 
HETATM   31  C   UNL     1       7.654  24.901  52.116  1.00  0.00     0.034 C 
ENDBRANCH  29  30
ENDBRANCH  25  29
ENDBRANCH  20  21
ENDBRANCH   1  19
TORSDOF 7
ENDMDL
MODEL 4
REMARK VINA RESULT:      -8.5      2.463     11.036
REMARK  7 active torsions:
REMARK  status: ('A' for Active; 'I' for Inactive)
REMARK    1  A    between atoms: C_2  and  O_3 
REMARK    2  A    between atoms: O_3  and  C_4 
REMARK    3  A    between atoms: C_5  and  O_6 
REMARK    4  A    between atoms: C_10  and  C_11 
REMARK    5  A    between atoms: C_12  and  C_13 
REMARK       I    between atoms: C_13  and  N_14 
REMARK    6  A    between atoms: N_14  and  N_15 
REMARK       I    between atoms: N_15  and  C_16 
REMARK    7  A    between atoms: C_16  and  C_17 
ROOT
HETATM    1  C   UNL     1       8.007  29.925  58.937  1.00  0.00     0.259 C 
HETATM    2  N   UNL     1       6.919  30.761  58.864  1.00  0.00    -0.264 N 
HETATM    3  O   UNL     1       8.795  29.931  59.878  1.00  0.00    -0.267 OA
HETATM    4  H   UNL     1       6.195  30.719  58.149  1.00  0.00     0.190 HD
ENDROOT
BRANCH   2   5
HETATM    5  N   UNL     1       6.672  31.605  59.955  1.00  0.00    -0.263 N 
HETATM    6  C   UNL     1       5.574  32.444  59.918  1.00  0.00     0.272 C 
HETATM    7  O   UNL     1       4.891  32.560  58.900  1.00  0.00    -0.266 OA
HETATM    8  H   UNL     1       7.141  31.358  60.822  1.00  0.00     0.190 HD
BRANCH   6   9
HETATM    9  C   UNL     1       5.292  33.156  61.165  1.00  0.00     0.061 A 
HETATM   10  C   UNL     1       6.124  33.205  62.338  1.00  0.00     0.008 A 
HETATM   11  C   UNL     1       5.479  33.999  63.295  1.00  0.00     0.045 A 
HETATM   12  C   UNL     1       7.377  32.642  62.669  1.00  0.00     0.015 A 
HETATM   13  C   UNL     1       6.045  34.250  64.557  1.00  0.00     0.030 A 
HETATM   14  N   UNL     1       4.294  34.415  62.732  1.00  0.00    -0.359 N 
HETATM   15  C   UNL     1       7.285  33.677  64.854  1.00  0.00     0.002 A 
HETATM   16  C   UNL     1       7.944  32.883  63.924  1.00  0.00     0.001 A 
HETATM   17  C   UNL     1       3.293  35.254  63.352  1.00  0.00     0.156 C 
HETATM   18  C   UNL     1       4.171  33.916  61.460  1.00  0.00     0.108 A 
ENDBRANCH   6   9
ENDBRANCH   2   5
BRANCH   1  19
HETATM   19  C   UNL     1       8.134  29.014  57.772  1.00  0.00     0.076 C 
HETATM   20  C   UNL     1       7.195  28.077  57.574  1.00  0.00     0.017 C 
BRANCH  20  21
HETATM   21  C   UNL     1       7.205  27.084  56.490  1.00  0.00    -0.033 A 
HETATM   22  C   UNL     1       7.298  27.545  55.173  1.00  0.00     0.014 A 
HETATM   23  C   UNL     1       7.351  26.651  54.101  1.00  0.00     0.040 A 
HETATM   24  C   UNL     1       7.322  25.273  54.331  1.00  0.00     0.101 A 
HETATM   25  C   UNL     1       7.233  24.794  55.653  1.00  0.00     0.102 A 
HETATM   26  C   UNL     1       7.184  25.701  56.721  1.00  0.00     0.051 A 
BRANCH  24  27
HETATM   27  O   UNL     1       7.370  24.322  53.342  1.00  0.00    -0.353 OA
HETATM   28  C   UNL     1       7.751  24.747  52.042  1.00  0.00     0.210 C 
ENDBRANCH  24  27
BRANCH  25  29
HETATM   29  O   UNL     1       7.215  23.428  55.791  1.00  0.00    -0.349 OA
BRANCH  29  30
HETATM   30  C   UNL     1       8.329  22.799  56.417  1.00  0.00     0.171 C 
HETATM   31  C   UNL     1       9.129  22.089  55.340  1.00  0.00     0.034 C 
ENDBRANCH  29  30
ENDBRANCH  25  29
ENDBRANCH  20  21
ENDBRANCH   1  19
TORSDOF 7
ENDMDL
MODEL 5
REMARK VINA RESULT:      -8.5      1.250      2.332
REMARK  7 active torsions:
REMARK  status: ('A' for Active; 'I' for Inactive)
REMARK    1  A    between atoms: C_2  and  O_3 
REMARK    2  A    between atoms: O_3  and  C_4 
REMARK    3  A    between atoms: C_5  and  O_6 
REMARK    4  A    between atoms: C_10  and  C_11 
REMARK    5  A    between atoms: C_12  and  C_13 
REMARK       I    between atoms: C_13  and  N_14 
REMARK    6  A    between atoms: N_14  and  N_15 
REMARK       I    between atoms: N_15  and  C_16 
REMARK    7  A    between atoms: C_16  and  C_17 
ROOT
HETATM    1  C   UNL     1       8.535  29.248  57.885  1.00  0.00     0.259 C 
HETATM    2  N   UNL     1       7.612  28.270  57.604  1.00  0.00    -0.264 N 
HETATM    3  O   UNL     1       9.635  29.309  57.343  1.00  0.00    -0.267 OA
HETATM    4  H   UNL     1       6.660  28.245  57.962  1.00  0.00     0.190 HD
ENDROOT
BRANCH   2   5
HETATM    5  N   UNL     1       7.928  27.348  56.598  1.00  0.00    -0.263 N 
HETATM    6  C   UNL     1       7.368  26.084  56.648  1.00  0.00     0.272 C 
HETATM    7  O   UNL     1       6.710  25.714  57.620  1.00  0.00    -0.266 OA
HETATM    8  H   UNL     1       8.320  27.736  55.745  1.00  0.00     0.190 HD
BRANCH   6   9
HETATM    9  C   UNL     1       7.610  25.249  55.471  1.00  0.00     0.061 A 
HETATM   10  C   UNL     1       7.995  23.863  55.460  1.00  0.00     0.008 A 
HETATM   11  C   UNL     1       8.115  23.457  54.125  1.00  0.00     0.045 A 
HETATM   12  C   UNL     1       8.250  22.913  56.475  1.00  0.00     0.015 A 
HETATM   13  C   UNL     1       8.473  22.143  53.777  1.00  0.00     0.030 A 
HETATM   14  N   UNL     1       7.822  24.554  53.348  1.00  0.00    -0.359 N 
HETATM   15  C   UNL     1       8.720  21.228  54.804  1.00  0.00     0.002 A 
HETATM   16  C   UNL     1       8.611  21.606  56.137  1.00  0.00     0.001 A 
HETATM   17  C   UNL     1       7.821  24.613  51.902  1.00  0.00     0.156 C 
HETATM   18  C   UNL     1       7.520  25.632  54.142  1.00  0.00     0.108 A 
ENDBRANCH   6   9
ENDBRANCH   2   5
BRANCH   1  19
HETATM   19  C   UNL     1       8.074  30.225  58.903  1.00  0.00     0.076 C 
HETATM   20  C   UNL     1       7.002  30.986  58.636  1.00  0.00     0.017 C 
BRANCH  20  21
HETATM   21  C   UNL     1       6.452  32.017  59.527  1.00  0.00    -0.033 A 
HETATM   22  C   UNL     1       5.227  32.599  59.186  1.00  0.00     0.014 A 
HETATM   23  C   UNL     1       4.632  33.556  60.012  1.00  0.00     0.040 A 
HETATM   24  C   UNL     1       5.251  33.942  61.203  1.00  0.00     0.101 A 
HETATM   25  C   UNL     1       6.484  33.360  61.562  1.00  0.00     0.102 A 
HETATM   26  C   UNL     1       7.069  32.398  60.727  1.00  0.00     0.051 A 
BRANCH  24  27
HETATM   27  O   UNL     1       4.742  34.872  62.074  1.00  0.00    -0.353 OA
HETATM   28  C   UNL     1       4.455  36.164  61.560  1.00  0.00     0.210 C 
ENDBRANCH  24  27
BRANCH  25  29
HETATM   29  O   UNL     1       7.022  33.791  62.750  1.00  0.00    -0.349 OA
BRANCH  29  30
HETATM   30  C   UNL     1       7.432  32.810  63.698  1.00  0.00     0.171 C 
HETATM   31  C   UNL     1       7.238  33.393  65.086  1.00  0.00     0.034 C 
ENDBRANCH  29  30
ENDBRANCH  25  29
ENDBRANCH  20  21
ENDBRANCH   1  19
TORSDOF 7
ENDMDL
MODEL 6
REMARK VINA RESULT:      -8.4      7.414     11.968
REMARK  7 active torsions:
REMARK  status: ('A' for Active; 'I' for Inactive)
REMARK    1  A    between atoms: C_2  and  O_3 
REMARK    2  A    between atoms: O_3  and  C_4 
REMARK    3  A    between atoms: C_5  and  O_6 
REMARK    4  A    between atoms: C_10  and  C_11 
REMARK    5  A    between atoms: C_12  and  C_13 
REMARK       I    between atoms: C_13  and  N_14 
REMARK    6  A    between atoms: N_14  and  N_15 
REMARK       I    between atoms: N_15  and  C_16 
REMARK    7  A    between atoms: C_16  and  C_17 
ROOT
HETATM    1  C   UNL     1       5.018  26.695  51.052  1.00  0.00     0.259 C 
HETATM    2  N   UNL     1       4.175  26.392  50.010  1.00  0.00    -0.264 N 
HETATM    3  O   UNL     1       5.320  27.845  51.359  1.00  0.00    -0.267 OA
HETATM    4  H   UNL     1       3.829  25.461  49.789  1.00  0.00     0.190 HD
ENDROOT
BRANCH   2   5
HETATM    5  N   UNL     1       3.586  27.460  49.319  1.00  0.00    -0.263 N 
HETATM    6  C   UNL     1       3.702  27.511  47.942  1.00  0.00     0.272 C 
HETATM    7  O   UNL     1       4.417  26.719  47.330  1.00  0.00    -0.266 OA
HETATM    8  H   UNL     1       2.876  27.979  49.826  1.00  0.00     0.190 HD
BRANCH   6   9
HETATM    9  C   UNL     1       2.911  28.556  47.290  1.00  0.00     0.061 A 
HETATM   10  C   UNL     1       1.563  28.440  46.801  1.00  0.00     0.008 A 
HETATM   11  C   UNL     1       1.192  29.676  46.254  1.00  0.00     0.045 A 
HETATM   12  C   UNL     1       0.621  27.387  46.778  1.00  0.00     0.015 A 
HETATM   13  C   UNL     1      -0.080  29.890  45.697  1.00  0.00     0.030 A 
HETATM   14  N   UNL     1       2.274  30.514  46.397  1.00  0.00    -0.359 N 
HETATM   15  C   UNL     1      -0.989  28.828  45.689  1.00  0.00     0.002 A 
HETATM   16  C   UNL     1      -0.645  27.591  46.221  1.00  0.00     0.001 A 
HETATM   17  C   UNL     1       2.357  31.895  45.974  1.00  0.00     0.156 C 
HETATM   18  C   UNL     1       3.308  29.855  47.013  1.00  0.00     0.108 A 
ENDBRANCH   6   9
ENDBRANCH   2   5
BRANCH   1  19
HETATM   19  C   UNL     1       5.524  25.500  51.772  1.00  0.00     0.076 C 
HETATM   20  C   UNL     1       6.718  25.565  52.382  1.00  0.00     0.017 C 
BRANCH  20  21
HETATM   21  C   UNL     1       7.363  24.457  53.101  1.00  0.00    -0.033 A 
HETATM   22  C   UNL     1       7.419  23.208  52.476  1.00  0.00     0.014 A 
HETATM   23  C   UNL     1       8.053  22.126  53.090  1.00  0.00     0.040 A 
HETATM   24  C   UNL     1       8.655  22.278  54.341  1.00  0.00     0.101 A 
HETATM   25  C   UNL     1       8.611  23.534  54.981  1.00  0.00     0.102 A 
HETATM   26  C   UNL     1       7.974  24.614  54.353  1.00  0.00     0.051 A 
BRANCH  24  27
HETATM   27  O   UNL     1       9.299  21.273  55.018  1.00  0.00    -0.353 OA
HETATM   28  C   UNL     1       8.595  20.056  55.211  1.00  0.00     0.210 C 
ENDBRANCH  24  27
BRANCH  25  29
HETATM   29  O   UNL     1       9.230  23.600  56.205  1.00  0.00    -0.349 OA
BRANCH  29  30
HETATM   30  C   UNL     1       8.423  23.828  57.356  1.00  0.00     0.171 C 
HETATM   31  C   UNL     1       8.409  25.322  57.626  1.00  0.00     0.034 C 
ENDBRANCH  29  30
ENDBRANCH  25  29
ENDBRANCH  20  21
ENDBRANCH   1  19
TORSDOF 7
ENDMDL
MODEL 7
REMARK VINA RESULT:      -8.3      7.206     11.762
REMARK  7 active torsions:
REMARK  status: ('A' for Active; 'I' for Inactive)
REMARK    1  A    between atoms: C_2  and  O_3 
REMARK    2  A    between atoms: O_3  and  C_4 
REMARK    3  A    between atoms: C_5  and  O_6 
REMARK    4  A    between atoms: C_10  and  C_11 
REMARK    5  A    between atoms: C_12  and  C_13 
REMARK       I    between atoms: C_13  and  N_14 
REMARK    6  A    between atoms: N_14  and  N_15 
REMARK       I    between atoms: N_15  and  C_16 
REMARK    7  A    between atoms: C_16  and  C_17 
ROOT
HETATM    1  C   UNL     1       5.342  26.808  51.147  1.00  0.00     0.259 C 
HETATM    2  N   UNL     1       5.387  26.798  49.774  1.00  0.00    -0.264 N 
HETATM    3  O   UNL     1       4.501  27.434  51.786  1.00  0.00    -0.267 OA
HETATM    4  H   UNL     1       6.007  26.218  49.213  1.00  0.00     0.190 HD
ENDROOT
BRANCH   2   5
HETATM    5  N   UNL     1       4.375  27.481  49.085  1.00  0.00    -0.263 N 
HETATM    6  C   UNL     1       3.934  26.980  47.874  1.00  0.00     0.272 C 
HETATM    7  O   UNL     1       4.498  26.030  47.331  1.00  0.00    -0.266 OA
HETATM    8  H   UNL     1       3.830  28.139  49.634  1.00  0.00     0.190 HD
BRANCH   6   9
HETATM    9  C   UNL     1       2.761  27.652  47.312  1.00  0.00     0.061 A 
HETATM   10  C   UNL     1       2.636  29.049  46.997  1.00  0.00     0.008 A 
HETATM   11  C   UNL     1       1.352  29.264  46.479  1.00  0.00     0.045 A 
HETATM   12  C   UNL     1       3.509  30.156  47.105  1.00  0.00     0.015 A 
HETATM   13  C   UNL     1       0.921  30.536  46.065  1.00  0.00     0.030 A 
HETATM   14  N   UNL     1       0.713  28.046  46.485  1.00  0.00    -0.359 N 
HETATM   15  C   UNL     1       1.808  31.610  46.185  1.00  0.00     0.002 A 
HETATM   16  C   UNL     1       3.086  31.425  46.699  1.00  0.00     0.001 A 
HETATM   17  C   UNL     1      -0.638  27.778  46.042  1.00  0.00     0.156 C 
HETATM   18  C   UNL     1       1.545  27.074  46.983  1.00  0.00     0.108 A 
ENDBRANCH   6   9
ENDBRANCH   2   5
BRANCH   1  19
HETATM   19  C   UNL     1       6.404  25.989  51.781  1.00  0.00     0.076 C 
HETATM   20  C   UNL     1       6.051  24.953  52.557  1.00  0.00     0.017 C 
BRANCH  20  21
HETATM   21  C   UNL     1       6.985  24.076  53.278  1.00  0.00    -0.033 A 
HETATM   22  C   UNL     1       7.313  22.845  52.702  1.00  0.00     0.014 A 
HETATM   23  C   UNL     1       8.224  21.984  53.318  1.00  0.00     0.040 A 
HETATM   24  C   UNL     1       8.834  22.347  54.521  1.00  0.00     0.101 A 
HETATM   25  C   UNL     1       8.517  23.588  55.111  1.00  0.00     0.102 A 
HETATM   26  C   UNL     1       7.603  24.445  54.481  1.00  0.00     0.051 A 
BRANCH  24  27
HETATM   27  O   UNL     1       9.740  21.567  55.196  1.00  0.00    -0.353 OA
HETATM   28  C   UNL     1       9.243  20.423  55.874  1.00  0.00     0.210 C 
ENDBRANCH  24  27
BRANCH  25  29
HETATM   29  O   UNL     1       9.163  23.869  56.289  1.00  0.00    -0.349 OA
BRANCH  29  30
HETATM   30  C   UNL     1       8.373  24.150  57.440  1.00  0.00     0.171 C 
HETATM   31  C   UNL     1       8.297  25.658  57.597  1.00  0.00     0.034 C 
ENDBRANCH  29  30
ENDBRANCH  25  29
ENDBRANCH  20  21
ENDBRANCH   1  19
TORSDOF 7
ENDMDL
MODEL 8
REMARK VINA RESULT:      -8.3      2.797     11.210
REMARK  7 active torsions:
REMARK  status: ('A' for Active; 'I' for Inactive)
REMARK    1  A    between atoms: C_2  and  O_3 
REMARK    2  A    between atoms: O_3  and  C_4 
REMARK    3  A    between atoms: C_5  and  O_6 
REMARK    4  A    between atoms: C_10  and  C_11 
REMARK    5  A    between atoms: C_12  and  C_13 
REMARK       I    between atoms: C_13  and  N_14 
REMARK    6  A    between atoms: N_14  and  N_15 
REMARK       I    between atoms: N_15  and  C_16 
REMARK    7  A    between atoms: C_16  and  C_17 
ROOT
HETATM    1  C   UNL     1       5.583  29.695  57.438  1.00  0.00     0.259 C 
HETATM    2  N   UNL     1       6.534  30.225  58.275  1.00  0.00    -0.264 N 
HETATM    3  O   UNL     1       4.379  29.879  57.588  1.00  0.00    -0.267 OA
HETATM    4  H   UNL     1       7.540  30.172  58.126  1.00  0.00     0.190 HD
ENDROOT
BRANCH   2   5
HETATM    5  N   UNL     1       6.097  31.073  59.302  1.00  0.00    -0.263 N 
HETATM    6  C   UNL     1       6.931  32.089  59.733  1.00  0.00     0.272 C 
HETATM    7  O   UNL     1       8.090  32.180  59.328  1.00  0.00    -0.266 OA
HETATM    8  H   UNL     1       5.097  31.077  59.480  1.00  0.00     0.190 HD
BRANCH   6   9
HETATM    9  C   UNL     1       6.329  33.030  60.678  1.00  0.00     0.061 A 
HETATM   10  C   UNL     1       6.702  33.230  62.053  1.00  0.00     0.008 A 
HETATM   11  C   UNL     1       5.873  34.224  62.588  1.00  0.00     0.045 A 
HETATM   12  C   UNL     1       7.680  32.650  62.893  1.00  0.00     0.015 A 
HETATM   13  C   UNL     1       5.994  34.656  63.919  1.00  0.00     0.030 A 
HETATM   14  N   UNL     1       5.019  34.612  61.581  1.00  0.00    -0.359 N 
HETATM   15  C   UNL     1       6.970  34.062  64.724  1.00  0.00     0.002 A 
HETATM   16  C   UNL     1       7.804  33.072  64.219  1.00  0.00     0.001 A 
HETATM   17  C   UNL     1       3.981  35.616  61.669  1.00  0.00     0.156 C 
HETATM   18  C   UNL     1       5.282  33.904  60.435  1.00  0.00     0.108 A 
ENDBRANCH   6   9
ENDBRANCH   2   5
BRANCH   1  19
HETATM   19  C   UNL     1       6.151  28.880  56.335  1.00  0.00     0.076 C 
HETATM   20  C   UNL     1       6.073  27.543  56.407  1.00  0.00     0.017 C 
BRANCH  20  21
HETATM   21  C   UNL     1       6.620  26.607  55.413  1.00  0.00    -0.033 A 
HETATM   22  C   UNL     1       7.348  25.506  55.874  1.00  0.00     0.014 A 
HETATM   23  C   UNL     1       7.860  24.561  54.982  1.00  0.00     0.040 A 
HETATM   24  C   UNL     1       7.641  24.695  53.610  1.00  0.00     0.101 A 
HETATM   25  C   UNL     1       6.904  25.798  53.131  1.00  0.00     0.102 A 
HETATM   26  C   UNL     1       6.393  26.739  54.036  1.00  0.00     0.051 A 
BRANCH  24  27
HETATM   27  O   UNL     1       8.104  23.817  52.661  1.00  0.00    -0.353 OA
HETATM   28  C   UNL     1       7.963  22.430  52.928  1.00  0.00     0.210 C 
ENDBRANCH  24  27
BRANCH  25  29
HETATM   29  O   UNL     1       6.731  25.853  51.770  1.00  0.00    -0.349 OA
BRANCH  29  30
HETATM   30  C   UNL     1       5.405  25.774  51.257  1.00  0.00     0.171 C 
HETATM   31  C   UNL     1       5.128  27.049  50.481  1.00  0.00     0.034 C 
ENDBRANCH  29  30
ENDBRANCH  25  29
ENDBRANCH  20  21
ENDBRANCH   1  19
TORSDOF 7
ENDMDL
MODEL 9
REMARK VINA RESULT:      -8.2      7.855     11.894
REMARK  7 active torsions:
REMARK  status: ('A' for Active; 'I' for Inactive)
REMARK    1  A    between atoms: C_2  and  O_3 
REMARK    2  A    between atoms: O_3  and  C_4 
REMARK    3  A    between atoms: C_5  and  O_6 
REMARK    4  A    between atoms: C_10  and  C_11 
REMARK    5  A    between atoms: C_12  and  C_13 
REMARK       I    between atoms: C_13  and  N_14 
REMARK    6  A    between atoms: N_14  and  N_15 
REMARK       I    between atoms: N_15  and  C_16 
REMARK    7  A    between atoms: C_16  and  C_17 
ROOT
HETATM    1  C   UNL     1       5.535  27.240  50.872  1.00  0.00     0.259 C 
HETATM    2  N   UNL     1       5.954  25.932  50.870  1.00  0.00    -0.264 N 
HETATM    3  O   UNL     1       5.745  28.011  51.804  1.00  0.00    -0.267 OA
HETATM    4  H   UNL     1       5.881  25.296  50.079  1.00  0.00     0.190 HD
ENDROOT
BRANCH   2   5
HETATM    5  N   UNL     1       6.719  25.492  51.959  1.00  0.00    -0.263 N 
HETATM    6  C   UNL     1       6.095  24.791  52.975  1.00  0.00     0.272 C 
HETATM    7  O   UNL     1       4.872  24.661  53.005  1.00  0.00    -0.266 OA
HETATM    8  H   UNL     1       7.724  25.465  51.814  1.00  0.00     0.190 HD
BRANCH   6   9
HETATM    9  C   UNL     1       6.994  24.220  53.979  1.00  0.00     0.061 A 
HETATM   10  C   UNL     1       7.593  22.912  53.957  1.00  0.00     0.008 A 
HETATM   11  C   UNL     1       8.382  22.777  55.106  1.00  0.00     0.045 A 
HETATM   12  C   UNL     1       7.534  21.827  53.053  1.00  0.00     0.015 A 
HETATM   13  C   UNL     1       9.112  21.606  55.374  1.00  0.00     0.030 A 
HETATM   14  N   UNL     1       8.265  23.955  55.809  1.00  0.00    -0.359 N 
HETATM   15  C   UNL     1       9.032  20.551  54.461  1.00  0.00     0.002 A 
HETATM   16  C   UNL     1       8.254  20.658  53.315  1.00  0.00     0.001 A 
HETATM   17  C   UNL     1       8.902  24.275  57.067  1.00  0.00     0.156 C 
HETATM   18  C   UNL     1       7.436  24.824  55.145  1.00  0.00     0.108 A 
ENDBRANCH   6   9
ENDBRANCH   2   5
BRANCH   1  19
HETATM   19  C   UNL     1       4.806  27.633  49.640  1.00  0.00     0.076 C 
HETATM   20  C   UNL     1       3.508  27.959  49.728  1.00  0.00     0.017 C 
BRANCH  20  21
HETATM   21  C   UNL     1       2.649  28.332  48.594  1.00  0.00    -0.033 A 
HETATM   22  C   UNL     1       1.567  27.502  48.285  1.00  0.00     0.014 A 
HETATM   23  C   UNL     1       0.691  27.822  47.245  1.00  0.00     0.040 A 
HETATM   24  C   UNL     1       0.879  28.988  46.500  1.00  0.00     0.101 A 
HETATM   25  C   UNL     1       1.963  29.837  46.803  1.00  0.00     0.102 A 
HETATM   26  C   UNL     1       2.833  29.507  47.852  1.00  0.00     0.051 A 
BRANCH  24  27
HETATM   27  O   UNL     1       0.071  29.383  45.462  1.00  0.00    -0.353 OA
HETATM   28  C   UNL     1      -1.139  28.666  45.264  1.00  0.00     0.210 C 
ENDBRANCH  24  27
BRANCH  25  29
HETATM   29  O   UNL     1       2.073  30.963  46.026  1.00  0.00    -0.349 OA
BRANCH  29  30
HETATM   30  C   UNL     1       3.282  31.712  46.093  1.00  0.00     0.171 C 
HETATM   31  C   UNL     1       3.986  31.582  44.754  1.00  0.00     0.034 C 
ENDBRANCH  29  30
ENDBRANCH  25  29
ENDBRANCH  20  21
ENDBRANCH   1  19
TORSDOF 7
ENDMDL
MODEL 10
REMARK VINA RESULT:      -8.2      3.122     11.273
REMARK  7 active torsions:
REMARK  status: ('A' for Active; 'I' for Inactive)
REMARK    1  A    between atoms: C_2  and  O_3 
REMARK    2  A    between atoms: O_3  and  C_4 
REMARK    3  A    between atoms: C_5  and  O_6 
REMARK    4  A    between atoms: C_10  and  C_11 
REMARK    5  A    between atoms: C_12  and  C_13 
REMARK       I    between atoms: C_13  and  N_14 
REMARK    6  A    between atoms: N_14  and  N_15 
REMARK       I    between atoms: N_15  and  C_16 
REMARK    7  A    between atoms: C_16  and  C_17 
ROOT
HETATM    1  C   UNL     1       4.191  30.429  57.632  1.00  0.00     0.259 C 
HETATM    2  N   UNL     1       5.289  30.655  58.426  1.00  0.00    -0.264 N 
HETATM    3  O   UNL     1       3.072  30.861  57.894  1.00  0.00    -0.267 OA
HETATM    4  H   UNL     1       6.244  30.394  58.191  1.00  0.00     0.190 HD
ENDROOT
BRANCH   2   5
HETATM    5  N   UNL     1       5.122  31.479  59.547  1.00  0.00    -0.263 N 
HETATM    6  C   UNL     1       6.127  32.370  59.878  1.00  0.00     0.272 C 
HETATM    7  O   UNL     1       7.210  32.360  59.293  1.00  0.00    -0.266 OA
HETATM    8  H   UNL     1       4.170  31.580  59.887  1.00  0.00     0.190 HD
BRANCH   6   9
HETATM    9  C   UNL     1       5.797  33.309  60.950  1.00  0.00     0.061 A 
HETATM   10  C   UNL     1       6.406  33.384  62.251  1.00  0.00     0.008 A 
HETATM   11  C   UNL     1       5.793  34.426  62.959  1.00  0.00     0.045 A 
HETATM   12  C   UNL     1       7.433  32.653  62.891  1.00  0.00     0.015 A 
HETATM   13  C   UNL     1       6.175  34.760  64.270  1.00  0.00     0.030 A 
HETATM   14  N   UNL     1       4.840  34.964  62.126  1.00  0.00    -0.359 N 
HETATM   15  C   UNL     1       7.193  34.018  64.874  1.00  0.00     0.002 A 
HETATM   16  C   UNL     1       7.815  32.977  64.196  1.00  0.00     0.001 A 
HETATM   17  C   UNL     1       3.951  36.065  62.429  1.00  0.00     0.156 C 
HETATM   18  C   UNL     1       4.831  34.304  60.923  1.00  0.00     0.108 A 
ENDBRANCH   6   9
ENDBRANCH   2   5
BRANCH   1  19
HETATM   19  C   UNL     1       4.487  29.615  56.427  1.00  0.00     0.076 C 
HETATM   20  C   UNL     1       4.905  28.349  56.583  1.00  0.00     0.017 C 
BRANCH  20  21
HETATM   21  C   UNL     1       5.270  27.436  55.490  1.00  0.00    -0.033 A 
HETATM   22  C   UNL     1       5.360  27.958  54.196  1.00  0.00     0.014 A 
HETATM   23  C   UNL     1       5.740  27.151  53.122  1.00  0.00     0.040 A 
HETATM   24  C   UNL     1       6.048  25.804  53.326  1.00  0.00     0.101 A 
HETATM   25  C   UNL     1       5.966  25.265  54.626  1.00  0.00     0.102 A 
HETATM   26  C   UNL     1       5.586  26.086  55.697  1.00  0.00     0.051 A 
BRANCH  24  27
HETATM   27  O   UNL     1       6.430  24.937  52.332  1.00  0.00    -0.353 OA
HETATM   28  C   UNL     1       7.797  24.941  51.949  1.00  0.00     0.210 C 
ENDBRANCH  24  27
BRANCH  25  29
HETATM   29  O   UNL     1       6.289  23.935  54.740  1.00  0.00    -0.349 OA
BRANCH  29  30
HETATM   30  C   UNL     1       7.454  23.588  55.480  1.00  0.00     0.171 C 
HETATM   31  C   UNL     1       7.864  22.183  55.074  1.00  0.00     0.034 C 
ENDBRANCH  29  30
ENDBRANCH  25  29
ENDBRANCH  20  21
ENDBRANCH   1  19
TORSDOF 7
ENDMDL
