MODEL 1
REMARK VINA RESULT:      -8.8      0.000      0.000
REMARK  6 active torsions:
REMARK  status: ('A' for Active; 'I' for Inactive)
REMARK    1  A    between atoms: O_2  and  C_3 
REMARK    2  A    between atoms: C_4  and  O_5 
REMARK    3  A    between atoms: C_8  and  C_9 
REMARK    4  A    between atoms: C_13  and  C_14 
REMARK       I    between atoms: C_14  and  N_15 
REMARK    5  A    between atoms: N_15  and  C_16 
REMARK    6  A    between atoms: C_19  and  O_20 
ROOT
HETATM    1  C   UNL     1       8.367  28.366  57.375  1.00  0.00     0.063 A 
HETATM    2  N   UNL     1       9.570  28.996  57.178  1.00  0.00    -0.277 N 
HETATM    3  H   UNL     1      10.327  28.697  56.574  1.00  0.00     0.189 HD
HETATM    4  N   UNL     1       9.739  30.114  57.907  1.00  0.00    -0.169 NA
HETATM    5  C   UNL     1       8.596  30.210  58.620  1.00  0.00     0.147 A 
HETATM    6  C   UNL     1       7.719  29.139  58.318  1.00  0.00     0.071 A 
ENDROOT
BRANCH   5   7
HETATM    7  C   UNL     1       8.366  31.306  59.579  1.00  0.00     0.276 C 
HETATM    8  N   UNL     1       7.704  30.867  60.709  1.00  0.00    -0.320 N 
HETATM    9  H   UNL     1       7.487  29.874  60.691  1.00  0.00     0.169 HD
HETATM   10  O   UNL     1       8.732  32.453  59.350  1.00  0.00    -0.266 OA
BRANCH   8  11
HETATM   11  C   UNL     1       7.308  31.624  61.823  1.00  0.00     0.052 A 
HETATM   12  C   UNL     1       5.995  31.979  62.125  1.00  0.00     0.149 A 
HETATM   13  N   UNL     1       5.634  32.712  63.209  1.00  0.00    -0.235 NA
HETATM   14  C   UNL     1       6.624  33.110  64.032  1.00  0.00     0.163 A 
HETATM   15  C   UNL     1       7.959  32.808  63.823  1.00  0.00     0.060 A 
HETATM   16  C   UNL     1       8.303  32.055  62.701  1.00  0.00     0.035 A 
BRANCH  14  17
HETATM   17  O   UNL     1       6.335  33.859  65.154  1.00  0.00    -0.339 OA
HETATM   18  C   UNL     1       4.962  33.790  65.528  1.00  0.00     0.211 C 
ENDBRANCH  14  17
ENDBRANCH   8  11
ENDBRANCH   5   7
BRANCH   1  19
HETATM   19  C   UNL     1       7.988  27.120  56.715  1.00  0.00    -0.005 A 
HETATM   20  C   UNL     1       7.408  27.122  55.438  1.00  0.00     0.053 A 
HETATM   21  C   UNL     1       7.072  25.920  54.801  1.00  0.00     0.102 A 
HETATM   22  C   UNL     1       7.339  24.693  55.440  1.00  0.00     0.101 A 
HETATM   23  C   UNL     1       7.889  24.691  56.725  1.00  0.00     0.040 A 
HETATM   24  C   UNL     1       8.208  25.896  57.356  1.00  0.00     0.017 A 
BRANCH  21  25
HETATM   25  O   UNL     1       6.514  25.839  53.549  1.00  0.00    -0.353 OA
HETATM   26  C   UNL     1       5.255  26.464  53.350  1.00  0.00     0.210 C 
ENDBRANCH  21  25
BRANCH  22  27
HETATM   27  O   UNL     1       6.997  23.557  54.750  1.00  0.00    -0.353 OA
HETATM   28  C   UNL     1       8.004  22.560  54.624  1.00  0.00     0.210 C 
ENDBRANCH  22  27
ENDBRANCH   1  19
TORSDOF 6
ENDMDL
MODEL 2
REMARK VINA RESULT:      -8.8      5.138      8.271
REMARK  6 active torsions:
REMARK  status: ('A' for Active; 'I' for Inactive)
REMARK    1  A    between atoms: O_2  and  C_3 
REMARK    2  A    between atoms: C_4  and  O_5 
REMARK    3  A    between atoms: C_8  and  C_9 
REMARK    4  A    between atoms: C_13  and  C_14 
REMARK       I    between atoms: C_14  and  N_15 
REMARK    5  A    between atoms: N_15  and  C_16 
REMARK    6  A    between atoms: C_19  and  O_20 
ROOT
HETATM    1  C   UNL     1       6.420  32.957  63.517  1.00  0.00     0.063 A 
HETATM    2  N   UNL     1       5.113  32.568  63.667  1.00  0.00    -0.277 N 
HETATM    3  H   UNL     1       4.549  32.043  63.008  1.00  0.00     0.189 HD
HETATM    4  N   UNL     1       4.540  32.972  64.816  1.00  0.00    -0.169 NA
HETATM    5  C   UNL     1       5.519  33.665  65.437  1.00  0.00     0.147 A 
HETATM    6  C   UNL     1       6.702  33.681  64.658  1.00  0.00     0.071 A 
ENDROOT
BRANCH   5   7
HETATM    7  C   UNL     1       5.305  34.308  66.747  1.00  0.00     0.276 C 
HETATM    8  N   UNL     1       6.344  34.048  67.620  1.00  0.00    -0.320 N 
HETATM    9  H   UNL     1       7.073  33.464  67.219  1.00  0.00     0.169 HD
HETATM   10  O   UNL     1       4.306  34.976  66.985  1.00  0.00    -0.266 OA
BRANCH   8  11
HETATM   11  C   UNL     1       6.481  34.481  68.948  1.00  0.00     0.052 A 
HETATM   12  C   UNL     1       5.653  34.103  70.003  1.00  0.00     0.149 A 
HETATM   13  N   UNL     1       5.803  34.534  71.282  1.00  0.00    -0.235 NA
HETATM   14  C   UNL     1       6.825  35.380  71.523  1.00  0.00     0.163 A 
HETATM   15  C   UNL     1       7.704  35.813  70.546  1.00  0.00     0.060 A 
HETATM   16  C   UNL     1       7.526  35.358  69.241  1.00  0.00     0.035 A 
BRANCH  14  17
HETATM   17  O   UNL     1       7.040  35.862  72.798  1.00  0.00    -0.339 OA
HETATM   18  C   UNL     1       5.897  35.738  73.638  1.00  0.00     0.211 C 
ENDBRANCH  14  17
ENDBRANCH   8  11
ENDBRANCH   5   7
BRANCH   1  19
HETATM   19  C   UNL     1       7.222  32.660  62.334  1.00  0.00    -0.005 A 
HETATM   20  C   UNL     1       6.656  32.672  61.051  1.00  0.00     0.053 A 
HETATM   21  C   UNL     1       7.439  32.412  59.918  1.00  0.00     0.102 A 
HETATM   22  C   UNL     1       8.816  32.157  60.066  1.00  0.00     0.101 A 
HETATM   23  C   UNL     1       9.375  32.114  61.346  1.00  0.00     0.040 A 
HETATM   24  C   UNL     1       8.582  32.362  62.470  1.00  0.00     0.017 A 
BRANCH  21  25
HETATM   25  O   UNL     1       6.962  32.419  58.631  1.00  0.00    -0.353 OA
HETATM   26  C   UNL     1       5.852  31.583  58.338  1.00  0.00     0.210 C 
ENDBRANCH  21  25
BRANCH  22  27
HETATM   27  O   UNL     1       9.523  31.926  58.913  1.00  0.00    -0.353 OA
HETATM   28  C   UNL     1       9.686  30.568  58.525  1.00  0.00     0.210 C 
ENDBRANCH  22  27
ENDBRANCH   1  19
TORSDOF 6
ENDMDL
MODEL 3
REMARK VINA RESULT:      -8.5      1.760     10.015
REMARK  6 active torsions:
REMARK  status: ('A' for Active; 'I' for Inactive)
REMARK    1  A    between atoms: O_2  and  C_3 
REMARK    2  A    between atoms: C_4  and  O_5 
REMARK    3  A    between atoms: C_8  and  C_9 
REMARK    4  A    between atoms: C_13  and  C_14 
REMARK       I    between atoms: C_14  and  N_15 
REMARK    5  A    between atoms: N_15  and  C_16 
REMARK    6  A    between atoms: C_19  and  O_20 
ROOT
HETATM    1  C   UNL     1       7.702  31.633  62.142  1.00  0.00     0.063 A 
HETATM    2  N   UNL     1       8.819  30.866  62.357  1.00  0.00    -0.277 N 
HETATM    3  H   UNL     1       9.329  30.754  63.226  1.00  0.00     0.189 HD
HETATM    4  N   UNL     1       9.277  30.231  61.262  1.00  0.00    -0.169 NA
HETATM    5  C   UNL     1       8.423  30.612  60.288  1.00  0.00     0.147 A 
HETATM    6  C   UNL     1       7.431  31.487  60.796  1.00  0.00     0.071 A 
ENDROOT
BRANCH   5   7
HETATM    7  C   UNL     1       8.575  30.150  58.896  1.00  0.00     0.276 C 
HETATM    8  N   UNL     1       7.612  29.220  58.557  1.00  0.00    -0.320 N 
HETATM    9  H   UNL     1       6.967  29.010  59.315  1.00  0.00     0.169 HD
HETATM   10  O   UNL     1       9.470  30.566  58.170  1.00  0.00    -0.266 OA
BRANCH   8  11
HETATM   11  C   UNL     1       7.449  28.556  57.331  1.00  0.00     0.052 A 
HETATM   12  C   UNL     1       7.024  29.154  56.147  1.00  0.00     0.149 A 
HETATM   13  N   UNL     1       6.871  28.492  54.971  1.00  0.00    -0.235 NA
HETATM   14  C   UNL     1       7.157  27.175  54.973  1.00  0.00     0.163 A 
HETATM   15  C   UNL     1       7.588  26.488  56.095  1.00  0.00     0.060 A 
HETATM   16  C   UNL     1       7.734  27.190  57.290  1.00  0.00     0.035 A 
BRANCH  14  17
HETATM   17  O   UNL     1       7.026  26.435  53.815  1.00  0.00    -0.339 OA
HETATM   18  C   UNL     1       7.612  25.141  53.914  1.00  0.00     0.211 C 
ENDBRANCH  14  17
ENDBRANCH   8  11
ENDBRANCH   5   7
BRANCH   1  19
HETATM   19  C   UNL     1       7.059  32.434  63.179  1.00  0.00    -0.005 A 
HETATM   20  C   UNL     1       5.664  32.573  63.229  1.00  0.00     0.053 A 
HETATM   21  C   UNL     1       5.053  33.322  64.244  1.00  0.00     0.102 A 
HETATM   22  C   UNL     1       5.846  33.925  65.239  1.00  0.00     0.101 A 
HETATM   23  C   UNL     1       7.237  33.814  65.173  1.00  0.00     0.040 A 
HETATM   24  C   UNL     1       7.837  33.075  64.149  1.00  0.00     0.017 A 
BRANCH  21  25
HETATM   25  O   UNL     1       3.696  33.492  64.368  1.00  0.00    -0.353 OA
HETATM   26  C   UNL     1       3.056  34.353  63.438  1.00  0.00     0.210 C 
ENDBRANCH  21  25
BRANCH  22  27
HETATM   27  O   UNL     1       5.179  34.630  66.209  1.00  0.00    -0.353 OA
HETATM   28  C   UNL     1       5.446  34.269  67.559  1.00  0.00     0.210 C 
ENDBRANCH  22  27
ENDBRANCH   1  19
TORSDOF 6
ENDMDL
MODEL 4
REMARK VINA RESULT:      -8.3      8.001     11.551
REMARK  6 active torsions:
REMARK  status: ('A' for Active; 'I' for Inactive)
REMARK    1  A    between atoms: O_2  and  C_3 
REMARK    2  A    between atoms: C_4  and  O_5 
REMARK    3  A    between atoms: C_8  and  C_9 
REMARK    4  A    between atoms: C_13  and  C_14 
REMARK       I    between atoms: C_14  and  N_15 
REMARK    5  A    between atoms: N_15  and  C_16 
REMARK    6  A    between atoms: C_19  and  O_20 
ROOT
HETATM    1  C   UNL     1       6.699  25.713  52.712  1.00  0.00     0.063 A 
HETATM    2  N   UNL     1       6.537  27.021  53.091  1.00  0.00    -0.277 N 
HETATM    3  H   UNL     1       6.807  27.443  53.973  1.00  0.00     0.189 HD
HETATM    4  N   UNL     1       5.920  27.794  52.178  1.00  0.00    -0.169 NA
HETATM    5  C   UNL     1       5.660  26.944  51.161  1.00  0.00     0.147 A 
HETATM    6  C   UNL     1       6.127  25.640  51.457  1.00  0.00     0.071 A 
ENDROOT
BRANCH   5   7
HETATM    7  C   UNL     1       4.963  27.385  49.939  1.00  0.00     0.276 C 
HETATM    8  N   UNL     1       3.788  26.686  49.738  1.00  0.00    -0.320 N 
HETATM    9  H   UNL     1       3.602  25.992  50.458  1.00  0.00     0.169 HD
HETATM   10  O   UNL     1       5.417  28.264  49.216  1.00  0.00    -0.266 OA
BRANCH   8  11
HETATM   11  C   UNL     1       2.874  26.823  48.682  1.00  0.00     0.052 A 
HETATM   12  C   UNL     1       2.823  26.006  47.555  1.00  0.00     0.149 A 
HETATM   13  N   UNL     1       1.930  26.157  46.544  1.00  0.00    -0.235 NA
HETATM   14  C   UNL     1       1.045  27.167  46.660  1.00  0.00     0.163 A 
HETATM   15  C   UNL     1       1.010  28.032  47.740  1.00  0.00     0.060 A 
HETATM   16  C   UNL     1       1.940  27.857  48.763  1.00  0.00     0.035 A 
BRANCH  14  17
HETATM   17  O   UNL     1       0.106  27.383  45.672  1.00  0.00    -0.339 OA
HETATM   18  C   UNL     1      -0.977  28.200  46.105  1.00  0.00     0.211 C 
ENDBRANCH  14  17
ENDBRANCH   8  11
ENDBRANCH   5   7
BRANCH   1  19
HETATM   19  C   UNL     1       7.310  24.694  53.560  1.00  0.00    -0.005 A 
HETATM   20  C   UNL     1       7.887  23.541  53.009  1.00  0.00     0.053 A 
HETATM   21  C   UNL     1       8.495  22.580  53.829  1.00  0.00     0.102 A 
HETATM   22  C   UNL     1       8.547  22.784  55.221  1.00  0.00     0.101 A 
HETATM   23  C   UNL     1       7.945  23.917  55.774  1.00  0.00     0.040 A 
HETATM   24  C   UNL     1       7.330  24.863  54.949  1.00  0.00     0.017 A 
BRANCH  21  25
HETATM   25  O   UNL     1       9.092  21.435  53.364  1.00  0.00    -0.353 OA
HETATM   26  C   UNL     1       8.247  20.424  52.833  1.00  0.00     0.210 C 
ENDBRANCH  21  25
BRANCH  22  27
HETATM   27  O   UNL     1       9.170  21.810  55.959  1.00  0.00    -0.353 OA
HETATM   28  C   UNL     1       8.336  20.990  56.769  1.00  0.00     0.210 C 
ENDBRANCH  22  27
ENDBRANCH   1  19
TORSDOF 6
ENDMDL
MODEL 5
REMARK VINA RESULT:      -8.0      7.276     11.395
REMARK  6 active torsions:
REMARK  status: ('A' for Active; 'I' for Inactive)
REMARK    1  A    between atoms: O_2  and  C_3 
REMARK    2  A    between atoms: C_4  and  O_5 
REMARK    3  A    between atoms: C_8  and  C_9 
REMARK    4  A    between atoms: C_13  and  C_14 
REMARK       I    between atoms: C_14  and  N_15 
REMARK    5  A    between atoms: N_15  and  C_16 
REMARK    6  A    between atoms: C_19  and  O_20 
ROOT
HETATM    1  C   UNL     1       6.259  25.485  52.697  1.00  0.00     0.063 A 
HETATM    2  N   UNL     1       5.401  26.361  53.311  1.00  0.00    -0.277 N 
HETATM    3  H   UNL     1       5.202  26.432  54.303  1.00  0.00     0.189 HD
HETATM    4  N   UNL     1       4.743  27.180  52.469  1.00  0.00    -0.169 NA
HETATM    5  C   UNL     1       5.188  26.811  51.249  1.00  0.00     0.147 A 
HETATM    6  C   UNL     1       6.131  25.758  51.349  1.00  0.00     0.071 A 
ENDROOT
BRANCH   5   7
HETATM    7  C   UNL     1       4.701  27.456  50.016  1.00  0.00     0.276 C 
HETATM    8  N   UNL     1       3.324  27.411  49.923  1.00  0.00    -0.320 N 
HETATM    9  H   UNL     1       2.880  26.946  50.711  1.00  0.00     0.169 HD
HETATM   10  O   UNL     1       5.468  27.951  49.198  1.00  0.00    -0.266 OA
BRANCH   8  11
HETATM   11  C   UNL     1       2.513  27.911  48.892  1.00  0.00     0.052 A 
HETATM   12  C   UNL     1       2.208  29.255  48.693  1.00  0.00     0.149 A 
HETATM   13  N   UNL     1       1.420  29.717  47.688  1.00  0.00    -0.235 NA
HETATM   14  C   UNL     1       0.913  28.799  46.842  1.00  0.00     0.163 A 
HETATM   15  C   UNL     1       1.158  27.441  46.951  1.00  0.00     0.060 A 
HETATM   16  C   UNL     1       1.968  26.993  47.993  1.00  0.00     0.035 A 
BRANCH  14  17
HETATM   17  O   UNL     1       0.102  29.193  45.796  1.00  0.00    -0.339 OA
HETATM   18  C   UNL     1      -1.230  28.702  45.912  1.00  0.00     0.211 C 
ENDBRANCH  14  17
ENDBRANCH   8  11
ENDBRANCH   5   7
BRANCH   1  19
HETATM   19  C   UNL     1       7.045  24.486  53.413  1.00  0.00    -0.005 A 
HETATM   20  C   UNL     1       7.172  24.525  54.809  1.00  0.00     0.053 A 
HETATM   21  C   UNL     1       7.906  23.546  55.491  1.00  0.00     0.102 A 
HETATM   22  C   UNL     1       8.507  22.496  54.770  1.00  0.00     0.101 A 
HETATM   23  C   UNL     1       8.408  22.473  53.377  1.00  0.00     0.040 A 
HETATM   24  C   UNL     1       7.684  23.462  52.705  1.00  0.00     0.017 A 
BRANCH  21  25
HETATM   25  O   UNL     1       8.064  23.509  56.855  1.00  0.00    -0.353 OA
HETATM   26  C   UNL     1       8.762  24.586  57.464  1.00  0.00     0.210 C 
ENDBRANCH  21  25
BRANCH  22  27
HETATM   27  O   UNL     1       9.197  21.566  55.505  1.00  0.00    -0.353 OA
HETATM   28  C   UNL     1       8.653  20.252  55.546  1.00  0.00     0.210 C 
ENDBRANCH  22  27
ENDBRANCH   1  19
TORSDOF 6
ENDMDL
MODEL 6
REMARK VINA RESULT:      -8.0      4.820     13.609
REMARK  6 active torsions:
REMARK  status: ('A' for Active; 'I' for Inactive)
REMARK    1  A    between atoms: O_2  and  C_3 
REMARK    2  A    between atoms: C_4  and  O_5 
REMARK    3  A    between atoms: C_8  and  C_9 
REMARK    4  A    between atoms: C_13  and  C_14 
REMARK       I    between atoms: C_14  and  N_15 
REMARK    5  A    between atoms: N_15  and  C_16 
REMARK    6  A    between atoms: C_19  and  O_20 
ROOT
HETATM    1  C   UNL     1       5.847  34.752  68.322  1.00  0.00     0.063 A 
HETATM    2  N   UNL     1       4.512  34.851  68.027  1.00  0.00    -0.277 N 
HETATM    3  H   UNL     1       3.774  35.200  68.629  1.00  0.00     0.189 HD
HETATM    4  N   UNL     1       4.176  34.396  66.806  1.00  0.00    -0.169 NA
HETATM    5  C   UNL     1       5.348  33.971  66.287  1.00  0.00     0.147 A 
HETATM    6  C   UNL     1       6.410  34.174  67.202  1.00  0.00     0.071 A 
ENDROOT
BRANCH   5   7
HETATM    7  C   UNL     1       5.432  33.372  64.943  1.00  0.00     0.276 C 
HETATM    8  N   UNL     1       6.692  33.517  64.395  1.00  0.00    -0.320 N 
HETATM    9  H   UNL     1       7.344  34.007  65.002  1.00  0.00     0.169 HD
HETATM   10  O   UNL     1       4.468  32.830  64.414  1.00  0.00    -0.266 OA
BRANCH   8  11
HETATM   11  C   UNL     1       7.139  33.085  63.136  1.00  0.00     0.052 A 
HETATM   12  C   UNL     1       6.482  33.317  61.930  1.00  0.00     0.149 A 
HETATM   13  N   UNL     1       6.932  32.889  60.722  1.00  0.00    -0.235 NA
HETATM   14  C   UNL     1       8.090  32.199  60.714  1.00  0.00     0.163 A 
HETATM   15  C   UNL     1       8.819  31.918  61.856  1.00  0.00     0.060 A 
HETATM   16  C   UNL     1       8.334  32.366  63.083  1.00  0.00     0.035 A 
BRANCH  14  17
HETATM   17  O   UNL     1       8.610  31.731  59.525  1.00  0.00    -0.339 OA
HETATM   18  C   UNL     1       8.357  30.345  59.316  1.00  0.00     0.211 C 
ENDBRANCH  14  17
ENDBRANCH   8  11
ENDBRANCH   5   7
BRANCH   1  19
HETATM   19  C   UNL     1       6.425  35.152  69.601  1.00  0.00    -0.005 A 
HETATM   20  C   UNL     1       5.932  34.644  70.812  1.00  0.00     0.053 A 
HETATM   21  C   UNL     1       6.510  35.013  72.034  1.00  0.00     0.102 A 
HETATM   22  C   UNL     1       7.614  35.887  72.048  1.00  0.00     0.101 A 
HETATM   23  C   UNL     1       8.087  36.418  70.845  1.00  0.00     0.040 A 
HETATM   24  C   UNL     1       7.495  36.054  69.633  1.00  0.00     0.017 A 
BRANCH  21  25
HETATM   25  O   UNL     1       6.093  34.549  73.257  1.00  0.00    -0.353 OA
HETATM   26  C   UNL     1       4.738  34.772  73.616  1.00  0.00     0.210 C 
ENDBRANCH  21  25
BRANCH  22  27
HETATM   27  O   UNL     1       8.138  36.191  73.279  1.00  0.00    -0.353 OA
HETATM   28  C   UNL     1       9.291  37.024  73.294  1.00  0.00     0.210 C 
ENDBRANCH  22  27
ENDBRANCH   1  19
TORSDOF 6
ENDMDL
MODEL 7
REMARK VINA RESULT:      -7.6      4.021      4.757
REMARK  6 active torsions:
REMARK  status: ('A' for Active; 'I' for Inactive)
REMARK    1  A    between atoms: O_2  and  C_3 
REMARK    2  A    between atoms: C_4  and  O_5 
REMARK    3  A    between atoms: C_8  and  C_9 
REMARK    4  A    between atoms: C_13  and  C_14 
REMARK       I    between atoms: C_14  and  N_15 
REMARK    5  A    between atoms: N_15  and  C_16 
REMARK    6  A    between atoms: C_19  and  O_20 
ROOT
HETATM    1  C   UNL     1       6.628  25.952  55.500  1.00  0.00     0.063 A 
HETATM    2  N   UNL     1       5.334  26.305  55.213  1.00  0.00    -0.277 N 
HETATM    3  H   UNL     1       4.690  25.828  54.591  1.00  0.00     0.189 HD
HETATM    4  N   UNL     1       4.916  27.431  55.820  1.00  0.00    -0.169 NA
HETATM    5  C   UNL     1       5.994  27.835  56.526  1.00  0.00     0.147 A 
HETATM    6  C   UNL     1       7.079  26.941  56.350  1.00  0.00     0.071 A 
ENDROOT
BRANCH   5   7
HETATM    7  C   UNL     1       5.975  29.064  57.340  1.00  0.00     0.276 C 
HETATM    8  N   UNL     1       4.788  29.756  57.196  1.00  0.00    -0.320 N 
HETATM    9  H   UNL     1       4.134  29.309  56.559  1.00  0.00     0.169 HD
HETATM   10  O   UNL     1       6.927  29.392  58.039  1.00  0.00    -0.266 OA
BRANCH   8  11
HETATM   11  C   UNL     1       4.417  30.966  57.803  1.00  0.00     0.052 A 
HETATM   12  C   UNL     1       3.501  31.091  58.844  1.00  0.00     0.149 A 
HETATM   13  N   UNL     1       3.155  32.273  59.417  1.00  0.00    -0.235 NA
HETATM   14  C   UNL     1       3.750  33.381  58.933  1.00  0.00     0.163 A 
HETATM   15  C   UNL     1       4.675  33.363  57.904  1.00  0.00     0.060 A 
HETATM   16  C   UNL     1       5.011  32.138  57.331  1.00  0.00     0.035 A 
BRANCH  14  17
HETATM   17  O   UNL     1       3.449  34.618  59.465  1.00  0.00    -0.339 OA
HETATM   18  C   UNL     1       2.345  34.582  60.363  1.00  0.00     0.211 C 
ENDBRANCH  14  17
ENDBRANCH   8  11
ENDBRANCH   5   7
BRANCH   1  19
HETATM   19  C   UNL     1       7.296  24.788  54.924  1.00  0.00    -0.005 A 
HETATM   20  C   UNL     1       7.905  23.824  55.740  1.00  0.00     0.053 A 
HETATM   21  C   UNL     1       8.521  22.696  55.181  1.00  0.00     0.102 A 
HETATM   22  C   UNL     1       8.510  22.516  53.784  1.00  0.00     0.101 A 
HETATM   23  C   UNL     1       7.930  23.492  52.969  1.00  0.00     0.040 A 
HETATM   24  C   UNL     1       7.330  24.619  53.536  1.00  0.00     0.017 A 
BRANCH  21  25
HETATM   25  O   UNL     1       9.125  21.703  55.912  1.00  0.00    -0.353 OA
HETATM   26  C   UNL     1       8.286  20.843  56.668  1.00  0.00     0.210 C 
ENDBRANCH  21  25
BRANCH  22  27
HETATM   27  O   UNL     1       9.118  21.382  53.309  1.00  0.00    -0.353 OA
HETATM   28  C   UNL     1       8.262  20.344  52.847  1.00  0.00     0.210 C 
ENDBRANCH  22  27
ENDBRANCH   1  19
TORSDOF 6
ENDMDL
MODEL 8
REMARK VINA RESULT:      -7.4      1.853      1.931
REMARK  6 active torsions:
REMARK  status: ('A' for Active; 'I' for Inactive)
REMARK    1  A    between atoms: O_2  and  C_3 
REMARK    2  A    between atoms: C_4  and  O_5 
REMARK    3  A    between atoms: C_8  and  C_9 
REMARK    4  A    between atoms: C_13  and  C_14 
REMARK       I    between atoms: C_14  and  N_15 
REMARK    5  A    between atoms: N_15  and  C_16 
REMARK    6  A    between atoms: C_19  and  O_20 
ROOT
HETATM    1  C   UNL     1       6.408  29.273  56.409  1.00  0.00     0.063 A 
HETATM    2  N   UNL     1       5.821  30.338  55.775  1.00  0.00    -0.277 N 
HETATM    3  H   UNL     1       5.536  30.394  54.804  1.00  0.00     0.189 HD
HETATM    4  N   UNL     1       5.647  31.423  56.553  1.00  0.00    -0.169 NA
HETATM    5  C   UNL     1       6.155  31.048  57.747  1.00  0.00     0.147 A 
HETATM    6  C   UNL     1       6.641  29.718  57.696  1.00  0.00     0.071 A 
ENDROOT
BRANCH   5   7
HETATM    7  C   UNL     1       6.181  31.961  58.903  1.00  0.00     0.276 C 
HETATM    8  N   UNL     1       6.606  31.323  60.052  1.00  0.00    -0.320 N 
HETATM    9  H   UNL     1       6.827  30.340  59.911  1.00  0.00     0.169 HD
HETATM   10  O   UNL     1       5.847  33.137  58.807  1.00  0.00    -0.266 OA
BRANCH   8  11
HETATM   11  C   UNL     1       6.746  31.866  61.339  1.00  0.00     0.052 A 
HETATM   12  C   UNL     1       5.700  32.351  62.121  1.00  0.00     0.149 A 
HETATM   13  N   UNL     1       5.857  32.874  63.364  1.00  0.00    -0.235 NA
HETATM   14  C   UNL     1       7.113  32.915  63.853  1.00  0.00     0.163 A 
HETATM   15  C   UNL     1       8.218  32.456  63.157  1.00  0.00     0.060 A 
HETATM   16  C   UNL     1       8.030  31.927  61.882  1.00  0.00     0.035 A 
BRANCH  14  17
HETATM   17  O   UNL     1       7.351  33.433  65.109  1.00  0.00    -0.339 OA
HETATM   18  C   UNL     1       6.207  34.062  65.676  1.00  0.00     0.211 C 
ENDBRANCH  14  17
ENDBRANCH   8  11
ENDBRANCH   5   7
BRANCH   1  19
HETATM   19  C   UNL     1       6.723  28.011  55.748  1.00  0.00    -0.005 A 
HETATM   20  C   UNL     1       6.511  27.839  54.372  1.00  0.00     0.053 A 
HETATM   21  C   UNL     1       6.841  26.633  53.739  1.00  0.00     0.102 A 
HETATM   22  C   UNL     1       7.412  25.586  54.489  1.00  0.00     0.101 A 
HETATM   23  C   UNL     1       7.595  25.745  55.865  1.00  0.00     0.040 A 
HETATM   24  C   UNL     1       7.250  26.947  56.488  1.00  0.00     0.017 A 
BRANCH  21  25
HETATM   25  O   UNL     1       6.677  26.394  52.398  1.00  0.00    -0.353 OA
HETATM   26  C   UNL     1       5.656  27.114  51.723  1.00  0.00     0.210 C 
ENDBRANCH  21  25
BRANCH  22  27
HETATM   27  O   UNL     1       7.723  24.441  53.801  1.00  0.00    -0.353 OA
HETATM   28  C   UNL     1       7.347  23.210  54.406  1.00  0.00     0.210 C 
ENDBRANCH  22  27
ENDBRANCH   1  19
TORSDOF 6
ENDMDL
MODEL 9
REMARK VINA RESULT:      -7.4      5.162      8.700
REMARK  6 active torsions:
REMARK  status: ('A' for Active; 'I' for Inactive)
REMARK    1  A    between atoms: O_2  and  C_3 
REMARK    2  A    between atoms: C_4  and  O_5 
REMARK    3  A    between atoms: C_8  and  C_9 
REMARK    4  A    between atoms: C_13  and  C_14 
REMARK       I    between atoms: C_14  and  N_15 
REMARK    5  A    between atoms: N_15  and  C_16 
REMARK    6  A    between atoms: C_19  and  O_20 
ROOT
HETATM    1  C   UNL     1       5.667  33.267  63.622  1.00  0.00     0.063 A 
HETATM    2  N   UNL     1       4.474  32.885  64.182  1.00  0.00    -0.277 N 
HETATM    3  H   UNL     1       3.746  32.326  63.752  1.00  0.00     0.189 HD
HETATM    4  N   UNL     1       4.270  33.350  65.428  1.00  0.00    -0.169 NA
HETATM    5  C   UNL     1       5.378  34.076  65.687  1.00  0.00     0.147 A 
HETATM    6  C   UNL     1       6.269  34.051  64.587  1.00  0.00     0.071 A 
ENDROOT
BRANCH   5   7
HETATM    7  C   UNL     1       5.560  34.788  66.966  1.00  0.00     0.276 C 
HETATM    8  N   UNL     1       6.401  34.100  67.819  1.00  0.00    -0.320 N 
HETATM    9  H   UNL     1       6.749  33.228  67.429  1.00  0.00     0.169 HD
HETATM   10  O   UNL     1       5.004  35.855  67.198  1.00  0.00    -0.266 OA
BRANCH   8  11
HETATM   11  C   UNL     1       6.795  34.462  69.117  1.00  0.00     0.052 A 
HETATM   12  C   UNL     1       8.094  34.793  69.496  1.00  0.00     0.149 A 
HETATM   13  N   UNL     1       8.455  35.139  70.758  1.00  0.00    -0.235 NA
HETATM   14  C   UNL     1       7.477  35.161  71.686  1.00  0.00     0.163 A 
HETATM   15  C   UNL     1       6.156  34.853  71.411  1.00  0.00     0.060 A 
HETATM   16  C   UNL     1       5.813  34.497  70.108  1.00  0.00     0.035 A 
BRANCH  14  17
HETATM   17  O   UNL     1       7.767  35.504  72.991  1.00  0.00    -0.339 OA
HETATM   18  C   UNL     1       8.400  34.452  73.713  1.00  0.00     0.211 C 
ENDBRANCH  14  17
ENDBRANCH   8  11
ENDBRANCH   5   7
BRANCH   1  19
HETATM   19  C   UNL     1       6.078  32.908  62.269  1.00  0.00    -0.005 A 
HETATM   20  C   UNL     1       7.386  32.480  61.996  1.00  0.00     0.053 A 
HETATM   21  C   UNL     1       7.765  32.112  60.699  1.00  0.00     0.102 A 
HETATM   22  C   UNL     1       6.817  32.150  59.658  1.00  0.00     0.101 A 
HETATM   23  C   UNL     1       5.523  32.605  59.922  1.00  0.00     0.040 A 
HETATM   24  C   UNL     1       5.159  32.983  61.217  1.00  0.00     0.017 A 
BRANCH  21  25
HETATM   25  O   UNL     1       9.019  31.671  60.356  1.00  0.00    -0.353 OA
HETATM   26  C   UNL     1      10.065  31.873  61.295  1.00  0.00     0.210 C 
ENDBRANCH  21  25
BRANCH  22  27
HETATM   27  O   UNL     1       7.255  31.761  58.417  1.00  0.00    -0.353 OA
HETATM   28  C   UNL     1       6.358  30.978  57.640  1.00  0.00     0.210 C 
ENDBRANCH  22  27
ENDBRANCH   1  19
TORSDOF 6
ENDMDL
MODEL 10
REMARK VINA RESULT:      -7.2      2.962     10.122
REMARK  6 active torsions:
REMARK  status: ('A' for Active; 'I' for Inactive)
REMARK    1  A    between atoms: O_2  and  C_3 
REMARK    2  A    between atoms: C_4  and  O_5 
REMARK    3  A    between atoms: C_8  and  C_9 
REMARK    4  A    between atoms: C_13  and  C_14 
REMARK       I    between atoms: C_14  and  N_15 
REMARK    5  A    between atoms: N_15  and  C_16 
REMARK    6  A    between atoms: C_19  and  O_20 
ROOT
HETATM    1  C   UNL     1       6.247  30.082  56.947  1.00  0.00     0.063 A 
HETATM    2  N   UNL     1       5.313  30.023  55.945  1.00  0.00    -0.277 N 
HETATM    3  H   UNL     1       4.461  30.568  55.866  1.00  0.00     0.189 HD
HETATM    4  N   UNL     1       5.574  29.107  54.994  1.00  0.00    -0.169 NA
HETATM    5  C   UNL     1       6.727  28.537  55.404  1.00  0.00     0.147 A 
HETATM    6  C   UNL     1       7.175  29.115  56.617  1.00  0.00     0.071 A 
ENDROOT
BRANCH   5   7
HETATM    7  C   UNL     1       7.370  27.449  54.644  1.00  0.00     0.276 C 
HETATM    8  N   UNL     1       7.080  26.209  55.180  1.00  0.00    -0.320 N 
HETATM    9  H   UNL     1       6.480  26.252  56.000  1.00  0.00     0.169 HD
HETATM   10  O   UNL     1       8.074  27.671  53.666  1.00  0.00    -0.266 OA
BRANCH   8  11
HETATM   11  C   UNL     1       7.522  24.954  54.734  1.00  0.00     0.052 A 
HETATM   12  C   UNL     1       8.372  24.106  55.440  1.00  0.00     0.149 A 
HETATM   13  N   UNL     1       8.788  22.895  54.990  1.00  0.00    -0.235 NA
HETATM   14  C   UNL     1       8.335  22.507  53.781  1.00  0.00     0.163 A 
HETATM   15  C   UNL     1       7.485  23.274  53.002  1.00  0.00     0.060 A 
HETATM   16  C   UNL     1       7.076  24.514  53.486  1.00  0.00     0.035 A 
BRANCH  14  17
HETATM   17  O   UNL     1       8.714  21.289  53.256  1.00  0.00    -0.339 OA
HETATM   18  C   UNL     1       8.702  20.241  54.221  1.00  0.00     0.211 C 
ENDBRANCH  14  17
ENDBRANCH   8  11
ENDBRANCH   5   7
BRANCH   1  19
HETATM   19  C   UNL     1       6.146  30.977  58.096  1.00  0.00    -0.005 A 
HETATM   20  C   UNL     1       7.276  31.315  58.855  1.00  0.00     0.053 A 
HETATM   21  C   UNL     1       7.175  32.196  59.941  1.00  0.00     0.102 A 
HETATM   22  C   UNL     1       5.928  32.767  60.261  1.00  0.00     0.101 A 
HETATM   23  C   UNL     1       4.796  32.407  59.525  1.00  0.00     0.040 A 
HETATM   24  C   UNL     1       4.906  31.517  58.453  1.00  0.00     0.017 A 
BRANCH  21  25
HETATM   25  O   UNL     1       8.235  32.585  60.722  1.00  0.00    -0.353 OA
HETATM   26  C   UNL     1       9.053  31.563  61.272  1.00  0.00     0.210 C 
ENDBRANCH  21  25
BRANCH  22  27
HETATM   27  O   UNL     1       5.907  33.631  61.326  1.00  0.00    -0.353 OA
HETATM   28  C   UNL     1       5.387  33.125  62.550  1.00  0.00     0.210 C 
ENDBRANCH  22  27
ENDBRANCH   1  19
TORSDOF 6
ENDMDL
