MODEL 1
REMARK VINA RESULT:      -9.1      0.000      0.000
REMARK  4 active torsions:
REMARK  status: ('A' for Active; 'I' for Inactive)
REMARK    1  A    between atoms: C_2  and  C_3 
REMARK    2  A    between atoms: C_6  and  C_7 
REMARK       I    between atoms: C_7  and  N_8 
REMARK    3  A    between atoms: N_8  and  C_9 
REMARK    4  A    between atoms: C_11  and  C_12 
ROOT
HETATM    1  C   UNL     1       6.544  27.173  55.915  1.00  0.00     0.257 C 
HETATM    2  N   UNL     1       7.656  26.666  55.263  1.00  0.00    -0.323 N 
HETATM    3  O   UNL     1       5.382  26.815  55.766  1.00  0.00    -0.267 OA
HETATM    4  H   UNL     1       8.524  27.172  55.371  1.00  0.00     0.169 HD
ENDROOT
BRANCH   2   5
HETATM    5  C   UNL     1       7.701  25.570  54.374  1.00  0.00     0.035 A 
HETATM    6  C   UNL     1       8.023  24.264  54.757  1.00  0.00     0.042 A 
HETATM    7  C   UNL     1       8.054  23.214  53.821  1.00  0.00    -0.021 A 
HETATM    8  C   UNL     1       7.763  23.502  52.482  1.00  0.00     0.012 A 
HETATM    9  C   UNL     1       7.450  24.802  52.086  1.00  0.00     0.003 A 
HETATM   10  C   UNL     1       7.420  25.830  53.028  1.00  0.00     0.029 A 
BRANCH   7  11
HETATM   11  C   UNL     1       8.386  21.853  54.221  1.00  0.00     0.010 A 
HETATM   12  C   UNL     1       8.556  20.674  53.452  1.00  0.00     0.152 A 
HETATM   13  N   UNL     1       8.853  19.603  54.194  1.00  0.00    -0.187 NA
HETATM   14  N   UNL     1       8.876  20.089  55.445  1.00  0.00    -0.289 N 
HETATM   15  H   UNL     1       9.086  19.452  56.206  1.00  0.00     0.188 HD
HETATM   16  C   UNL     1       8.601  21.424  55.515  1.00  0.00     0.123 A 
ENDBRANCH   7  11
ENDBRANCH   2   5
BRANCH   1  17
HETATM   17  C   UNL     1       6.816  28.289  56.853  1.00  0.00     0.049 A 
HETATM   18  C   UNL     1       7.965  28.247  57.629  1.00  0.00     0.134 A 
HETATM   19  N   UNL     1       8.314  29.212  58.518  1.00  0.00    -0.264 NA
HETATM   20  C   UNL     1       7.492  30.283  58.641  1.00  0.00     0.037 A 
HETATM   21  C   UNL     1       6.332  30.415  57.878  1.00  0.00     0.028 A 
HETATM   22  C   UNL     1       5.992  29.409  56.973  1.00  0.00     0.020 A 
BRANCH  20  23
HETATM   23  C   UNL     1       7.902  31.385  59.600  1.00  0.00     0.029 C 
HETATM   24  C   UNL     1       8.649  30.792  60.795  1.00  0.00     0.016 C 
HETATM   25  C   UNL     1       6.701  32.210  60.067  1.00  0.00     0.016 C 
ENDBRANCH  20  23
ENDBRANCH   1  17
TORSDOF 4
ENDMDL
MODEL 2
REMARK VINA RESULT:      -9.1      1.642      8.732
REMARK  4 active torsions:
REMARK  status: ('A' for Active; 'I' for Inactive)
REMARK    1  A    between atoms: C_2  and  C_3 
REMARK    2  A    between atoms: C_6  and  C_7 
REMARK       I    between atoms: C_7  and  N_8 
REMARK    3  A    between atoms: N_8  and  C_9 
REMARK    4  A    between atoms: C_11  and  C_12 
ROOT
HETATM    1  C   UNL     1       7.186  26.358  54.944  1.00  0.00     0.257 C 
HETATM    2  N   UNL     1       6.640  26.641  56.185  1.00  0.00    -0.323 N 
HETATM    3  O   UNL     1       7.484  27.166  54.073  1.00  0.00    -0.267 OA
HETATM    4  H   UNL     1       6.300  25.860  56.728  1.00  0.00     0.169 HD
ENDROOT
BRANCH   2   5
HETATM    5  C   UNL     1       6.407  27.916  56.747  1.00  0.00     0.035 A 
HETATM    6  C   UNL     1       7.409  28.723  57.296  1.00  0.00     0.042 A 
HETATM    7  C   UNL     1       7.112  29.984  57.845  1.00  0.00    -0.021 A 
HETATM    8  C   UNL     1       5.780  30.420  57.840  1.00  0.00     0.012 A 
HETATM    9  C   UNL     1       4.772  29.619  57.303  1.00  0.00     0.003 A 
HETATM   10  C   UNL     1       5.085  28.373  56.760  1.00  0.00     0.029 A 
BRANCH   7  11
HETATM   11  C   UNL     1       8.155  30.827  58.415  1.00  0.00     0.010 A 
HETATM   12  C   UNL     1       8.077  31.928  59.304  1.00  0.00     0.152 A 
HETATM   13  N   UNL     1       9.271  32.454  59.592  1.00  0.00    -0.187 NA
HETATM   14  N   UNL     1      10.123  31.691  58.890  1.00  0.00    -0.289 N 
HETATM   15  H   UNL     1      11.115  31.898  58.948  1.00  0.00     0.188 HD
HETATM   16  C   UNL     1       9.508  30.710  58.168  1.00  0.00     0.123 A 
ENDBRANCH   7  11
ENDBRANCH   2   5
BRANCH   1  17
HETATM   17  C   UNL     1       7.383  24.916  54.654  1.00  0.00     0.049 A 
HETATM   18  C   UNL     1       7.299  24.006  55.697  1.00  0.00     0.134 A 
HETATM   19  N   UNL     1       7.459  22.666  55.547  1.00  0.00    -0.264 NA
HETATM   20  C   UNL     1       7.706  22.196  54.300  1.00  0.00     0.037 A 
HETATM   21  C   UNL     1       7.777  23.041  53.193  1.00  0.00     0.028 A 
HETATM   22  C   UNL     1       7.612  24.415  53.372  1.00  0.00     0.020 A 
BRANCH  20  23
HETATM   23  C   UNL     1       7.840  20.695  54.122  1.00  0.00     0.029 C 
HETATM   24  C   UNL     1       8.577  20.087  55.315  1.00  0.00     0.016 C 
HETATM   25  C   UNL     1       8.545  20.338  52.811  1.00  0.00     0.016 C 
ENDBRANCH  20  23
ENDBRANCH   1  17
TORSDOF 4
ENDMDL
MODEL 3
REMARK VINA RESULT:      -9.0      4.065      7.167
REMARK  4 active torsions:
REMARK  status: ('A' for Active; 'I' for Inactive)
REMARK    1  A    between atoms: C_2  and  C_3 
REMARK    2  A    between atoms: C_6  and  C_7 
REMARK       I    between atoms: C_7  and  N_8 
REMARK    3  A    between atoms: N_8  and  C_9 
REMARK    4  A    between atoms: C_11  and  C_12 
ROOT
HETATM    1  C   UNL     1       8.240  31.082  61.776  1.00  0.00     0.257 C 
HETATM    2  N   UNL     1       7.822  31.162  60.458  1.00  0.00    -0.323 N 
HETATM    3  O   UNL     1       9.194  30.444  62.204  1.00  0.00    -0.267 OA
HETATM    4  H   UNL     1       6.926  31.595  60.283  1.00  0.00     0.169 HD
ENDROOT
BRANCH   2   5
HETATM    5  C   UNL     1       8.460  30.615  59.323  1.00  0.00     0.035 A 
HETATM    6  C   UNL     1       8.004  29.484  58.638  1.00  0.00     0.042 A 
HETATM    7  C   UNL     1       8.687  28.985  57.513  1.00  0.00    -0.021 A 
HETATM    8  C   UNL     1       9.851  29.641  57.091  1.00  0.00     0.012 A 
HETATM    9  C   UNL     1      10.321  30.764  57.773  1.00  0.00     0.003 A 
HETATM   10  C   UNL     1       9.629  31.247  58.883  1.00  0.00     0.029 A 
BRANCH   7  11
HETATM   11  C   UNL     1       8.210  27.809  56.797  1.00  0.00     0.010 A 
HETATM   12  C   UNL     1       8.184  26.442  57.170  1.00  0.00     0.152 A 
HETATM   13  N   UNL     1       7.671  25.651  56.224  1.00  0.00    -0.187 NA
HETATM   14  N   UNL     1       7.362  26.507  55.237  1.00  0.00    -0.289 N 
HETATM   15  H   UNL     1       6.946  26.136  54.390  1.00  0.00     0.188 HD
HETATM   16  C   UNL     1       7.667  27.805  55.528  1.00  0.00     0.123 A 
ENDBRANCH   7  11
ENDBRANCH   2   5
BRANCH   1  17
HETATM   17  C   UNL     1       7.403  31.824  62.750  1.00  0.00     0.049 A 
HETATM   18  C   UNL     1       6.028  31.648  62.723  1.00  0.00     0.134 A 
HETATM   19  N   UNL     1       5.168  32.273  63.567  1.00  0.00    -0.264 NA
HETATM   20  C   UNL     1       5.692  33.110  64.495  1.00  0.00     0.037 A 
HETATM   21  C   UNL     1       7.066  33.321  64.608  1.00  0.00     0.028 A 
HETATM   22  C   UNL     1       7.931  32.670  63.727  1.00  0.00     0.020 A 
BRANCH  20  23
HETATM   23  C   UNL     1       4.738  33.775  65.470  1.00  0.00     0.029 C 
HETATM   24  C   UNL     1       3.893  34.824  64.746  1.00  0.00     0.016 C 
HETATM   25  C   UNL     1       5.478  34.400  66.655  1.00  0.00     0.016 C 
ENDBRANCH  20  23
ENDBRANCH   1  17
TORSDOF 4
ENDMDL
MODEL 4
REMARK VINA RESULT:      -8.5      2.124      8.921
REMARK  4 active torsions:
REMARK  status: ('A' for Active; 'I' for Inactive)
REMARK    1  A    between atoms: C_2  and  C_3 
REMARK    2  A    between atoms: C_6  and  C_7 
REMARK       I    between atoms: C_7  and  N_8 
REMARK    3  A    between atoms: N_8  and  C_9 
REMARK    4  A    between atoms: C_11  and  C_12 
ROOT
HETATM    1  C   UNL     1       7.542  26.856  56.327  1.00  0.00     0.257 C 
HETATM    2  N   UNL     1       8.643  27.290  57.046  1.00  0.00    -0.323 N 
HETATM    3  O   UNL     1       6.562  27.522  56.017  1.00  0.00    -0.267 OA
HETATM    4  H   UNL     1       9.295  26.585  57.363  1.00  0.00     0.169 HD
ENDROOT
BRANCH   2   5
HETATM    5  C   UNL     1       8.917  28.605  57.482  1.00  0.00     0.035 A 
HETATM    6  C   UNL     1       8.061  29.353  58.296  1.00  0.00     0.042 A 
HETATM    7  C   UNL     1       8.390  30.662  58.695  1.00  0.00    -0.021 A 
HETATM    8  C   UNL     1       9.600  31.213  58.251  1.00  0.00     0.012 A 
HETATM    9  C   UNL     1      10.457  30.479  57.432  1.00  0.00     0.003 A 
HETATM   10  C   UNL     1      10.116  29.182  57.050  1.00  0.00     0.029 A 
BRANCH   7  11
HETATM   11  C   UNL     1       7.500  31.442  59.545  1.00  0.00     0.010 A 
HETATM   12  C   UNL     1       7.553  31.724  60.933  1.00  0.00     0.152 A 
HETATM   13  N   UNL     1       6.532  32.478  61.353  1.00  0.00    -0.187 NA
HETATM   14  N   UNL     1       5.819  32.685  60.235  1.00  0.00    -0.289 N 
HETATM   15  H   UNL     1       4.976  33.246  60.298  1.00  0.00     0.188 HD
HETATM   16  C   UNL     1       6.351  32.085  59.131  1.00  0.00     0.123 A 
ENDBRANCH   7  11
ENDBRANCH   2   5
BRANCH   1  17
HETATM   17  C   UNL     1       7.564  25.424  55.941  1.00  0.00     0.049 A 
HETATM   18  C   UNL     1       7.950  24.482  56.883  1.00  0.00     0.134 A 
HETATM   19  N   UNL     1       8.004  23.147  56.640  1.00  0.00    -0.264 NA
HETATM   20  C   UNL     1       7.648  22.716  55.406  1.00  0.00     0.037 A 
HETATM   21  C   UNL     1       7.220  23.595  54.411  1.00  0.00     0.028 A 
HETATM   22  C   UNL     1       7.175  24.963  54.682  1.00  0.00     0.020 A 
BRANCH  20  23
HETATM   23  C   UNL     1       7.664  21.221  55.145  1.00  0.00     0.029 C 
HETATM   24  C   UNL     1       8.493  20.509  56.214  1.00  0.00     0.016 C 
HETATM   25  C   UNL     1       8.187  20.892  53.745  1.00  0.00     0.016 C 
ENDBRANCH  20  23
ENDBRANCH   1  17
TORSDOF 4
ENDMDL
MODEL 5
REMARK VINA RESULT:      -8.5      1.099      1.192
REMARK  4 active torsions:
REMARK  status: ('A' for Active; 'I' for Inactive)
REMARK    1  A    between atoms: C_2  and  C_3 
REMARK    2  A    between atoms: C_6  and  C_7 
REMARK       I    between atoms: C_7  and  N_8 
REMARK    3  A    between atoms: N_8  and  C_9 
REMARK    4  A    between atoms: C_11  and  C_12 
ROOT
HETATM    1  C   UNL     1       7.701  27.191  56.529  1.00  0.00     0.257 C 
HETATM    2  N   UNL     1       7.096  26.918  55.313  1.00  0.00    -0.323 N 
HETATM    3  O   UNL     1       8.518  26.489  57.114  1.00  0.00    -0.267 OA
HETATM    4  H   UNL     1       6.326  27.512  55.038  1.00  0.00     0.169 HD
ENDROOT
BRANCH   2   5
HETATM    5  C   UNL     1       7.364  25.835  54.448  1.00  0.00     0.035 A 
HETATM    6  C   UNL     1       7.570  24.520  54.880  1.00  0.00     0.042 A 
HETATM    7  C   UNL     1       7.836  23.484  53.966  1.00  0.00    -0.021 A 
HETATM    8  C   UNL     1       7.902  23.795  52.601  1.00  0.00     0.012 A 
HETATM    9  C   UNL     1       7.708  25.104  52.160  1.00  0.00     0.003 A 
HETATM   10  C   UNL     1       7.442  26.118  53.080  1.00  0.00     0.029 A 
BRANCH   7  11
HETATM   11  C   UNL     1       8.047  22.114  54.415  1.00  0.00     0.010 A 
HETATM   12  C   UNL     1       8.514  20.971  53.719  1.00  0.00     0.152 A 
HETATM   13  N   UNL     1       8.562  19.876  54.484  1.00  0.00    -0.187 NA
HETATM   14  N   UNL     1       8.126  20.312  55.677  1.00  0.00    -0.289 N 
HETATM   15  H   UNL     1       8.072  19.648  56.442  1.00  0.00     0.188 HD
HETATM   16  C   UNL     1       7.802  21.638  55.687  1.00  0.00     0.123 A 
ENDBRANCH   7  11
ENDBRANCH   2   5
BRANCH   1  17
HETATM   17  C   UNL     1       7.267  28.449  57.183  1.00  0.00     0.049 A 
HETATM   18  C   UNL     1       8.163  29.125  57.998  1.00  0.00     0.134 A 
HETATM   19  N   UNL     1       7.874  30.284  58.643  1.00  0.00    -0.264 NA
HETATM   20  C   UNL     1       6.639  30.813  58.467  1.00  0.00     0.037 A 
HETATM   21  C   UNL     1       5.689  30.212  57.641  1.00  0.00     0.028 A 
HETATM   22  C   UNL     1       6.007  29.019  56.990  1.00  0.00     0.020 A 
BRANCH  20  23
HETATM   23  C   UNL     1       6.328  32.132  59.150  1.00  0.00     0.029 C 
HETATM   24  C   UNL     1       7.210  32.305  60.386  1.00  0.00     0.016 C 
HETATM   25  C   UNL     1       4.847  32.246  59.520  1.00  0.00     0.016 C 
ENDBRANCH  20  23
ENDBRANCH   1  17
TORSDOF 4
ENDMDL
MODEL 6
REMARK VINA RESULT:      -8.4      4.885      8.568
REMARK  4 active torsions:
REMARK  status: ('A' for Active; 'I' for Inactive)
REMARK    1  A    between atoms: C_2  and  C_3 
REMARK    2  A    between atoms: C_6  and  C_7 
REMARK       I    between atoms: C_7  and  N_8 
REMARK    3  A    between atoms: N_8  and  C_9 
REMARK    4  A    between atoms: C_11  and  C_12 
ROOT
HETATM    1  C   UNL     1       6.027  25.712  53.001  1.00  0.00     0.257 C 
HETATM    2  N   UNL     1       6.079  25.906  51.631  1.00  0.00    -0.323 N 
HETATM    3  O   UNL     1       5.443  26.414  53.818  1.00  0.00    -0.267 OA
HETATM    4  H   UNL     1       6.732  25.337  51.109  1.00  0.00     0.169 HD
ENDROOT
BRANCH   2   5
HETATM    5  C   UNL     1       5.392  26.883  50.877  1.00  0.00     0.035 A 
HETATM    6  C   UNL     1       4.367  26.594  49.971  1.00  0.00     0.042 A 
HETATM    7  C   UNL     1       3.722  27.615  49.247  1.00  0.00    -0.021 A 
HETATM    8  C   UNL     1       4.136  28.939  49.444  1.00  0.00     0.012 A 
HETATM    9  C   UNL     1       5.164  29.237  50.338  1.00  0.00     0.003 A 
HETATM   10  C   UNL     1       5.789  28.214  51.050  1.00  0.00     0.029 A 
BRANCH   7  11
HETATM   11  C   UNL     1       2.652  27.315  48.305  1.00  0.00     0.010 A 
HETATM   12  C   UNL     1       1.260  27.571  48.370  1.00  0.00     0.152 A 
HETATM   13  N   UNL     1       0.596  27.129  47.297  1.00  0.00    -0.187 NA
HETATM   14  N   UNL     1       1.560  26.588  46.537  1.00  0.00    -0.289 N 
HETATM   15  H   UNL     1       1.299  26.177  45.647  1.00  0.00     0.188 HD
HETATM   16  C   UNL     1       2.803  26.669  47.095  1.00  0.00     0.123 A 
ENDBRANCH   7  11
ENDBRANCH   2   5
BRANCH   1  17
HETATM   17  C   UNL     1       6.799  24.550  53.505  1.00  0.00     0.049 A 
HETATM   18  C   UNL     1       6.643  24.165  54.828  1.00  0.00     0.134 A 
HETATM   19  N   UNL     1       7.297  23.118  55.394  1.00  0.00    -0.264 NA
HETATM   20  C   UNL     1       8.142  22.405  54.611  1.00  0.00     0.037 A 
HETATM   21  C   UNL     1       8.334  22.709  53.263  1.00  0.00     0.028 A 
HETATM   22  C   UNL     1       7.654  23.791  52.704  1.00  0.00     0.020 A 
BRANCH  20  23
HETATM   23  C   UNL     1       8.839  21.206  55.228  1.00  0.00     0.029 C 
HETATM   24  C   UNL     1       8.765  20.009  54.280  1.00  0.00     0.016 C 
HETATM   25  C   UNL     1       8.255  20.850  56.597  1.00  0.00     0.016 C 
ENDBRANCH  20  23
ENDBRANCH   1  17
TORSDOF 4
ENDMDL
MODEL 7
REMARK VINA RESULT:      -8.3      2.254      3.687
REMARK  4 active torsions:
REMARK  status: ('A' for Active; 'I' for Inactive)
REMARK    1  A    between atoms: C_2  and  C_3 
REMARK    2  A    between atoms: C_6  and  C_7 
REMARK       I    between atoms: C_7  and  N_8 
REMARK    3  A    between atoms: N_8  and  C_9 
REMARK    4  A    between atoms: C_11  and  C_12 
ROOT
HETATM    1  C   UNL     1       8.603  29.624  58.244  1.00  0.00     0.257 C 
HETATM    2  N   UNL     1       7.550  28.793  57.897  1.00  0.00    -0.323 N 
HETATM    3  O   UNL     1       9.718  29.643  57.737  1.00  0.00    -0.267 OA
HETATM    4  H   UNL     1       6.748  28.785  58.511  1.00  0.00     0.169 HD
ENDROOT
BRANCH   2   5
HETATM    5  C   UNL     1       7.504  27.870  56.830  1.00  0.00     0.035 A 
HETATM    6  C   UNL     1       7.672  26.490  56.981  1.00  0.00     0.042 A 
HETATM    7  C   UNL     1       7.617  25.621  55.875  1.00  0.00    -0.021 A 
HETATM    8  C   UNL     1       7.399  26.168  54.604  1.00  0.00     0.012 A 
HETATM    9  C   UNL     1       7.240  27.544  54.440  1.00  0.00     0.003 A 
HETATM   10  C   UNL     1       7.293  28.390  55.548  1.00  0.00     0.029 A 
BRANCH   7  11
HETATM   11  C   UNL     1       7.789  24.183  56.033  1.00  0.00     0.010 A 
HETATM   12  C   UNL     1       8.470  23.433  57.024  1.00  0.00     0.152 A 
HETATM   13  N   UNL     1       8.410  22.114  56.815  1.00  0.00    -0.187 NA
HETATM   14  N   UNL     1       7.689  22.011  55.688  1.00  0.00    -0.289 N 
HETATM   15  H   UNL     1       7.502  21.085  55.318  1.00  0.00     0.188 HD
HETATM   16  C   UNL     1       7.299  23.216  55.179  1.00  0.00     0.123 A 
ENDBRANCH   7  11
ENDBRANCH   2   5
BRANCH   1  17
HETATM   17  C   UNL     1       8.333  30.549  59.372  1.00  0.00     0.049 A 
HETATM   18  C   UNL     1       7.213  31.365  59.317  1.00  0.00     0.134 A 
HETATM   19  N   UNL     1       6.869  32.245  60.291  1.00  0.00    -0.264 NA
HETATM   20  C   UNL     1       7.666  32.317  61.386  1.00  0.00     0.037 A 
HETATM   21  C   UNL     1       8.794  31.511  61.532  1.00  0.00     0.028 A 
HETATM   22  C   UNL     1       9.130  30.616  60.516  1.00  0.00     0.020 A 
BRANCH  20  23
HETATM   23  C   UNL     1       7.259  33.267  62.497  1.00  0.00     0.029 C 
HETATM   24  C   UNL     1       7.841  32.797  63.830  1.00  0.00     0.016 C 
HETATM   25  C   UNL     1       5.739  33.415  62.592  1.00  0.00     0.016 C 
ENDBRANCH  20  23
ENDBRANCH   1  17
TORSDOF 4
ENDMDL
MODEL 8
REMARK VINA RESULT:      -8.1      5.941      9.205
REMARK  4 active torsions:
REMARK  status: ('A' for Active; 'I' for Inactive)
REMARK    1  A    between atoms: C_2  and  C_3 
REMARK    2  A    between atoms: C_6  and  C_7 
REMARK       I    between atoms: C_7  and  N_8 
REMARK    3  A    between atoms: N_8  and  C_9 
REMARK    4  A    between atoms: C_11  and  C_12 
ROOT
HETATM    1  C   UNL     1       5.345  26.813  51.698  1.00  0.00     0.257 C 
HETATM    2  N   UNL     1       5.596  26.961  50.344  1.00  0.00    -0.323 N 
HETATM    3  O   UNL     1       4.619  27.515  52.389  1.00  0.00    -0.267 OA
HETATM    4  H   UNL     1       6.341  26.405  49.948  1.00  0.00     0.169 HD
ENDROOT
BRANCH   2   5
HETATM    5  C   UNL     1       4.994  27.882  49.458  1.00  0.00     0.035 A 
HETATM    6  C   UNL     1       3.823  27.623  48.738  1.00  0.00     0.042 A 
HETATM    7  C   UNL     1       3.273  28.583  47.867  1.00  0.00    -0.021 A 
HETATM    8  C   UNL     1       3.931  29.811  47.724  1.00  0.00     0.012 A 
HETATM    9  C   UNL     1       5.105  30.076  48.429  1.00  0.00     0.003 A 
HETATM   10  C   UNL     1       5.633  29.115  49.291  1.00  0.00     0.029 A 
BRANCH   7  11
HETATM   11  C   UNL     1       2.052  28.315  47.119  1.00  0.00     0.010 A 
HETATM   12  C   UNL     1       1.383  27.098  46.839  1.00  0.00     0.152 A 
HETATM   13  N   UNL     1       0.280  27.264  46.102  1.00  0.00    -0.187 NA
HETATM   14  N   UNL     1       0.234  28.591  45.908  1.00  0.00    -0.289 N 
HETATM   15  H   UNL     1      -0.532  28.973  45.364  1.00  0.00     0.188 HD
HETATM   16  C   UNL     1       1.270  29.263  46.490  1.00  0.00     0.123 A 
ENDBRANCH   7  11
ENDBRANCH   2   5
BRANCH   1  17
HETATM   17  C   UNL     1       6.077  25.703  52.357  1.00  0.00     0.049 A 
HETATM   18  C   UNL     1       5.589  25.197  53.553  1.00  0.00     0.134 A 
HETATM   19  N   UNL     1       6.175  24.185  54.241  1.00  0.00    -0.264 NA
HETATM   20  C   UNL     1       7.296  23.632  53.717  1.00  0.00     0.037 A 
HETATM   21  C   UNL     1       7.835  24.063  52.505  1.00  0.00     0.028 A 
HETATM   22  C   UNL     1       7.218  25.108  51.817  1.00  0.00     0.020 A 
BRANCH  20  23
HETATM   23  C   UNL     1       7.928  22.469  54.460  1.00  0.00     0.029 C 
HETATM   24  C   UNL     1       8.741  22.983  55.648  1.00  0.00     0.016 C 
HETATM   25  C   UNL     1       8.797  21.610  53.540  1.00  0.00     0.016 C 
ENDBRANCH  20  23
ENDBRANCH   1  17
TORSDOF 4
ENDMDL
MODEL 9
REMARK VINA RESULT:      -8.0      2.347      9.302
REMARK  4 active torsions:
REMARK  status: ('A' for Active; 'I' for Inactive)
REMARK    1  A    between atoms: C_2  and  C_3 
REMARK    2  A    between atoms: C_6  and  C_7 
REMARK       I    between atoms: C_7  and  N_8 
REMARK    3  A    between atoms: N_8  and  C_9 
REMARK    4  A    between atoms: C_11  and  C_12 
ROOT
HETATM    1  C   UNL     1       7.717  28.489  56.463  1.00  0.00     0.257 C 
HETATM    2  N   UNL     1       8.410  28.596  57.657  1.00  0.00    -0.323 N 
HETATM    3  O   UNL     1       7.192  29.401  55.837  1.00  0.00    -0.267 OA
HETATM    4  H   UNL     1       8.645  27.736  58.133  1.00  0.00     0.169 HD
ENDROOT
BRANCH   2   5
HETATM    5  C   UNL     1       8.746  29.781  58.348  1.00  0.00     0.035 A 
HETATM    6  C   UNL     1       8.030  30.277  59.443  1.00  0.00     0.042 A 
HETATM    7  C   UNL     1       8.414  31.467  60.088  1.00  0.00    -0.021 A 
HETATM    8  C   UNL     1       9.533  32.159  59.606  1.00  0.00     0.012 A 
HETATM    9  C   UNL     1      10.249  31.678  58.510  1.00  0.00     0.003 A 
HETATM   10  C   UNL     1       9.855  30.495  57.885  1.00  0.00     0.029 A 
BRANCH   7  11
HETATM   11  C   UNL     1       7.671  31.983  61.230  1.00  0.00     0.010 A 
HETATM   12  C   UNL     1       7.358  31.391  62.479  1.00  0.00     0.152 A 
HETATM   13  N   UNL     1       6.639  32.191  63.272  1.00  0.00    -0.187 NA
HETATM   14  N   UNL     1       6.487  33.303  62.536  1.00  0.00    -0.289 N 
HETATM   15  H   UNL     1       5.964  34.076  62.933  1.00  0.00     0.188 HD
HETATM   16  C   UNL     1       7.080  33.228  61.309  1.00  0.00     0.123 A 
ENDBRANCH   7  11
ENDBRANCH   2   5
BRANCH   1  17
HETATM   17  C   UNL     1       7.580  27.110  55.933  1.00  0.00     0.049 A 
HETATM   18  C   UNL     1       7.290  26.934  54.588  1.00  0.00     0.134 A 
HETATM   19  N   UNL     1       7.145  25.721  53.997  1.00  0.00    -0.264 NA
HETATM   20  C   UNL     1       7.305  24.620  54.771  1.00  0.00     0.037 A 
HETATM   21  C   UNL     1       7.625  24.709  56.126  1.00  0.00     0.028 A 
HETATM   22  C   UNL     1       7.766  25.967  56.712  1.00  0.00     0.020 A 
BRANCH  20  23
HETATM   23  C   UNL     1       7.188  23.261  54.104  1.00  0.00     0.029 C 
HETATM   24  C   UNL     1       7.720  22.171  55.034  1.00  0.00     0.016 C 
HETATM   25  C   UNL     1       7.912  23.225  52.756  1.00  0.00     0.016 C 
ENDBRANCH  20  23
ENDBRANCH   1  17
TORSDOF 4
ENDMDL
MODEL 10
REMARK VINA RESULT:      -7.9      4.284     11.240
REMARK  4 active torsions:
REMARK  status: ('A' for Active; 'I' for Inactive)
REMARK    1  A    between atoms: C_2  and  C_3 
REMARK    2  A    between atoms: C_6  and  C_7 
REMARK       I    between atoms: C_7  and  N_8 
REMARK    3  A    between atoms: N_8  and  C_9 
REMARK    4  A    between atoms: C_11  and  C_12 
ROOT
HETATM    1  C   UNL     1       7.065  31.452  59.191  1.00  0.00     0.257 C 
HETATM    2  N   UNL     1       7.059  31.093  60.529  1.00  0.00    -0.323 N 
HETATM    3  O   UNL     1       6.921  32.580  58.736  1.00  0.00    -0.267 OA
HETATM    4  H   UNL     1       7.027  30.105  60.742  1.00  0.00     0.169 HD
ENDROOT
BRANCH   2   5
HETATM    5  C   UNL     1       6.992  31.954  61.646  1.00  0.00     0.035 A 
HETATM    6  C   UNL     1       5.965  32.879  61.860  1.00  0.00     0.042 A 
HETATM    7  C   UNL     1       5.956  33.713  62.994  1.00  0.00    -0.021 A 
HETATM    8  C   UNL     1       7.009  33.606  63.912  1.00  0.00     0.012 A 
HETATM    9  C   UNL     1       8.043  32.693  63.704  1.00  0.00     0.003 A 
HETATM   10  C   UNL     1       8.034  31.873  62.576  1.00  0.00     0.029 A 
BRANCH   7  11
HETATM   11  C   UNL     1       4.885  34.674  63.218  1.00  0.00     0.010 A 
HETATM   12  C   UNL     1       4.928  36.049  63.560  1.00  0.00     0.152 A 
HETATM   13  N   UNL     1       3.715  36.595  63.690  1.00  0.00    -0.187 NA
HETATM   14  N   UNL     1       2.886  35.572  63.431  1.00  0.00    -0.289 N 
HETATM   15  H   UNL     1       1.886  35.741  63.467  1.00  0.00     0.188 HD
HETATM   16  C   UNL     1       3.533  34.404  63.149  1.00  0.00     0.123 A 
ENDBRANCH   7  11
ENDBRANCH   2   5
BRANCH   1  17
HETATM   17  C   UNL     1       7.223  30.328  58.236  1.00  0.00     0.049 A 
HETATM   18  C   UNL     1       6.387  30.265  57.131  1.00  0.00     0.134 A 
HETATM   19  N   UNL     1       6.444  29.285  56.194  1.00  0.00    -0.264 NA
HETATM   20  C   UNL     1       7.384  28.321  56.347  1.00  0.00     0.037 A 
HETATM   21  C   UNL     1       8.283  28.327  57.413  1.00  0.00     0.028 A 
HETATM   22  C   UNL     1       8.203  29.342  58.367  1.00  0.00     0.020 A 
BRANCH  20  23
HETATM   23  C   UNL     1       7.482  27.249  55.276  1.00  0.00     0.029 C 
HETATM   24  C   UNL     1       7.549  27.893  53.891  1.00  0.00     0.016 C 
HETATM   25  C   UNL     1       6.319  26.257  55.357  1.00  0.00     0.016 C 
ENDBRANCH  20  23
ENDBRANCH   1  17
TORSDOF 4
ENDMDL
