MODEL 1
REMARK VINA RESULT:      -7.7      0.000      0.000
REMARK  7 active torsions:
REMARK  status: ('A' for Active; 'I' for Inactive)
REMARK    1  A    between atoms: O_2  and  C_3 
REMARK    2  A    between atoms: C_4  and  O_5 
REMARK    3  A    between atoms: C_6  and  C_7 
REMARK    4  A    between atoms: C_7  and  N_8 
REMARK    5  A    between atoms: C_11  and  C_12 
REMARK    6  A    between atoms: C_12  and  N_13 
REMARK    7  A    between atoms: N_13  and  C_14 
ROOT
HETATM    1  N   UNL     1       5.945  26.110  54.422  1.00  0.00    -0.067 N 
HETATM    2  H   UNL     1       5.048  26.581  54.652  1.00  0.00     0.280 HD
HETATM    3  C   UNL     1       5.602  24.776  53.809  1.00  0.00     0.241 C 
HETATM    4  C   UNL     1       6.543  24.631  52.615  1.00  0.00     0.026 C 
HETATM    5  C   UNL     1       6.651  26.074  52.125  1.00  0.00     0.035 C 
HETATM    6  C   UNL     1       6.664  26.933  53.382  1.00  0.00     0.235 C 
ENDROOT
BRANCH   1   7
HETATM    7  C   UNL     1       6.647  26.081  55.759  1.00  0.00     0.276 C 
BRANCH   7   8
HETATM    8  C   UNL     1       6.678  27.406  56.458  1.00  0.00     0.005 A 
HETATM    9  C   UNL     1       5.492  28.058  56.803  1.00  0.00     0.107 A 
HETATM   10  C   UNL     1       5.487  29.326  57.402  1.00  0.00     0.103 A 
HETATM   11  C   UNL     1       6.701  29.935  57.709  1.00  0.00     0.058 A 
HETATM   12  C   UNL     1       7.894  29.283  57.392  1.00  0.00     0.014 A 
HETATM   13  C   UNL     1       7.891  28.037  56.760  1.00  0.00     0.030 A 
HETATM   14 BR   UNL     1       9.549  30.089  57.828  1.00  0.00    -0.051 Br
BRANCH   9  15
HETATM   15  O   UNL     1       4.303  27.419  56.553  1.00  0.00    -0.357 OA
HETATM   16  H   UNL     1       4.561  26.588  56.090  1.00  0.00     0.218 HD
ENDBRANCH   9  15
BRANCH  10  17
HETATM   17  O   UNL     1       4.242  29.841  57.641  1.00  0.00    -0.353 OA
HETATM   18  C   UNL     1       3.801  30.867  56.751  1.00  0.00     0.210 C 
ENDBRANCH  10  17
ENDBRANCH   7   8
ENDBRANCH   1   7
BRANCH   4  19
HETATM   19  C   UNL     1       7.883  23.988  53.021  1.00  0.00     0.100 C 
BRANCH  19  20
HETATM   20  N   UNL     1       7.771  22.516  53.027  1.00  0.00    -0.279 NA
HETATM   21  H   UNL     1       8.494  22.134  52.405  1.00  0.00     0.129 HD
BRANCH  20  22
HETATM   22  C   UNL     1       7.982  21.950  54.290  1.00  0.00     0.079 A 
HETATM   23  N   UNL     1       8.221  22.799  55.300  1.00  0.00    -0.357 N 
HETATM   24  H   UNL     1       8.227  23.790  55.067  1.00  0.00     0.166 HD
HETATM   25  C   UNL     1       8.438  22.406  56.563  1.00  0.00     0.089 A 
HETATM   26  C   UNL     1       8.420  21.053  56.874  1.00  0.00     0.017 A 
HETATM   27  C   UNL     1       8.162  20.133  55.863  1.00  0.00     0.005 A 
HETATM   28  C   UNL     1       7.931  20.583  54.564  1.00  0.00     0.042 A 
ENDBRANCH  20  22
ENDBRANCH  19  20
ENDBRANCH   4  19
TORSDOF 7
ENDMDL
MODEL 2
REMARK VINA RESULT:      -7.6      4.054      8.102
REMARK  7 active torsions:
REMARK  status: ('A' for Active; 'I' for Inactive)
REMARK    1  A    between atoms: O_2  and  C_3 
REMARK    2  A    between atoms: C_4  and  O_5 
REMARK    3  A    between atoms: C_6  and  C_7 
REMARK    4  A    between atoms: C_7  and  N_8 
REMARK    5  A    between atoms: C_11  and  C_12 
REMARK    6  A    between atoms: C_12  and  N_13 
REMARK    7  A    between atoms: N_13  and  C_14 
ROOT
HETATM    1  N   UNL     1       8.011  28.186  56.035  1.00  0.00    -0.067 N 
HETATM    2  H   UNL     1       8.422  27.297  55.688  1.00  0.00     0.280 HD
HETATM    3  C   UNL     1       7.722  27.999  57.503  1.00  0.00     0.241 C 
HETATM    4  C   UNL     1       8.192  29.290  58.170  1.00  0.00     0.026 C 
HETATM    5  C   UNL     1       9.411  29.653  57.325  1.00  0.00     0.035 C 
HETATM    6  C   UNL     1       9.046  29.275  55.896  1.00  0.00     0.235 C 
ENDROOT
BRANCH   1   7
HETATM    7  C   UNL     1       6.819  28.368  55.128  1.00  0.00     0.276 C 
BRANCH   7   8
HETATM    8  C   UNL     1       6.770  27.400  53.985  1.00  0.00     0.005 A 
HETATM    9  C   UNL     1       6.195  27.764  52.766  1.00  0.00     0.107 A 
HETATM   10  C   UNL     1       6.078  26.863  51.698  1.00  0.00     0.103 A 
HETATM   11  C   UNL     1       6.596  25.578  51.838  1.00  0.00     0.058 A 
HETATM   12  C   UNL     1       7.196  25.207  53.042  1.00  0.00     0.014 A 
HETATM   13  C   UNL     1       7.273  26.099  54.115  1.00  0.00     0.030 A 
HETATM   14 BR   UNL     1       7.926  23.473  53.234  1.00  0.00    -0.051 Br
BRANCH   9  15
HETATM   15  O   UNL     1       5.745  29.053  52.619  1.00  0.00    -0.357 OA
HETATM   16  H   UNL     1       6.463  29.511  52.123  1.00  0.00     0.218 HD
ENDBRANCH   9  15
BRANCH  10  17
HETATM   17  O   UNL     1       5.456  27.367  50.587  1.00  0.00    -0.353 OA
HETATM   18  C   UNL     1       4.721  26.432  49.797  1.00  0.00     0.210 C 
ENDBRANCH  10  17
ENDBRANCH   7   8
ENDBRANCH   1   7
BRANCH   4  19
HETATM   19  C   UNL     1       7.082  30.358  58.190  1.00  0.00     0.100 C 
BRANCH  19  20
HETATM   20  N   UNL     1       7.631  31.669  58.588  1.00  0.00    -0.279 NA
HETATM   21  H   UNL     1       6.920  32.387  58.400  1.00  0.00     0.129 HD
BRANCH  20  22
HETATM   22  C   UNL     1       7.938  31.749  59.952  1.00  0.00     0.079 A 
HETATM   23  N   UNL     1       6.933  31.526  60.811  1.00  0.00    -0.357 N 
HETATM   24  H   UNL     1       6.025  31.313  60.402  1.00  0.00     0.166 HD
HETATM   25  C   UNL     1       7.076  31.564  62.143  1.00  0.00     0.089 A 
HETATM   26  C   UNL     1       8.318  31.847  62.694  1.00  0.00     0.017 A 
HETATM   27  C   UNL     1       9.396  32.072  61.843  1.00  0.00     0.005 A 
HETATM   28  C   UNL     1       9.209  32.012  60.463  1.00  0.00     0.042 A 
ENDBRANCH  20  22
ENDBRANCH  19  20
ENDBRANCH   4  19
TORSDOF 7
ENDMDL
MODEL 3
REMARK VINA RESULT:      -7.6      4.090      8.274
REMARK  7 active torsions:
REMARK  status: ('A' for Active; 'I' for Inactive)
REMARK    1  A    between atoms: O_2  and  C_3 
REMARK    2  A    between atoms: C_4  and  O_5 
REMARK    3  A    between atoms: C_6  and  C_7 
REMARK    4  A    between atoms: C_7  and  N_8 
REMARK    5  A    between atoms: C_11  and  C_12 
REMARK    6  A    between atoms: C_12  and  N_13 
REMARK    7  A    between atoms: N_13  and  C_14 
ROOT
HETATM    1  N   UNL     1       6.497  27.729  56.332  1.00  0.00    -0.067 N 
HETATM    2  H   UNL     1       6.208  27.266  55.448  1.00  0.00     0.280 HD
HETATM    3  C   UNL     1       7.096  29.062  55.961  1.00  0.00     0.241 C 
HETATM    4  C   UNL     1       6.525  30.052  56.972  1.00  0.00     0.026 C 
HETATM    5  C   UNL     1       5.118  29.499  57.191  1.00  0.00     0.035 C 
HETATM    6  C   UNL     1       5.265  27.984  57.163  1.00  0.00     0.235 C 
ENDROOT
BRANCH   1   7
HETATM    7  C   UNL     1       7.433  26.711  56.938  1.00  0.00     0.276 C 
BRANCH   7   8
HETATM    8  C   UNL     1       7.702  25.529  56.055  1.00  0.00     0.005 A 
HETATM    9  C   UNL     1       8.105  24.309  56.601  1.00  0.00     0.107 A 
HETATM   10  C   UNL     1       8.424  23.203  55.800  1.00  0.00     0.103 A 
HETATM   11  C   UNL     1       8.287  23.308  54.417  1.00  0.00     0.058 A 
HETATM   12  C   UNL     1       7.861  24.515  53.860  1.00  0.00     0.014 A 
HETATM   13  C   UNL     1       7.584  25.624  54.663  1.00  0.00     0.030 A 
HETATM   14 BR   UNL     1       7.648  24.660  51.986  1.00  0.00    -0.051 Br
BRANCH   9  15
HETATM   15  O   UNL     1       8.174  24.200  57.968  1.00  0.00    -0.357 OA
HETATM   16  H   UNL     1       7.613  24.937  58.304  1.00  0.00     0.218 HD
ENDBRANCH   9  15
BRANCH  10  17
HETATM   17  O   UNL     1       8.836  22.095  56.489  1.00  0.00    -0.353 OA
HETATM   18  C   UNL     1       8.049  20.916  56.318  1.00  0.00     0.210 C 
ENDBRANCH  10  17
ENDBRANCH   7   8
ENDBRANCH   1   7
BRANCH   4  19
HETATM   19  C   UNL     1       7.389  30.130  58.245  1.00  0.00     0.100 C 
BRANCH  19  20
HETATM   20  N   UNL     1       7.603  31.536  58.641  1.00  0.00    -0.279 NA
HETATM   21  H   UNL     1       6.728  32.052  58.489  1.00  0.00     0.129 HD
BRANCH  20  22
HETATM   22  C   UNL     1       7.932  31.686  59.994  1.00  0.00     0.079 A 
HETATM   23  N   UNL     1       6.942  31.505  60.880  1.00  0.00    -0.357 N 
HETATM   24  H   UNL     1       6.028  31.271  60.497  1.00  0.00     0.166 HD
HETATM   25  C   UNL     1       7.107  31.612  62.206  1.00  0.00     0.089 A 
HETATM   26  C   UNL     1       8.358  31.924  62.721  1.00  0.00     0.017 A 
HETATM   27  C   UNL     1       9.421  32.106  61.842  1.00  0.00     0.005 A 
HETATM   28  C   UNL     1       9.211  31.976  60.470  1.00  0.00     0.042 A 
ENDBRANCH  20  22
ENDBRANCH  19  20
ENDBRANCH   4  19
TORSDOF 7
ENDMDL
MODEL 4
REMARK VINA RESULT:      -7.5      3.749      7.769
REMARK  7 active torsions:
REMARK  status: ('A' for Active; 'I' for Inactive)
REMARK    1  A    between atoms: O_2  and  C_3 
REMARK    2  A    between atoms: C_4  and  O_5 
REMARK    3  A    between atoms: C_6  and  C_7 
REMARK    4  A    between atoms: C_7  and  N_8 
REMARK    5  A    between atoms: C_11  and  C_12 
REMARK    6  A    between atoms: C_12  and  N_13 
REMARK    7  A    between atoms: N_13  and  C_14 
ROOT
HETATM    1  N   UNL     1       5.757  28.382  56.367  1.00  0.00    -0.067 N 
HETATM    2  H   UNL     1       5.261  28.358  55.454  1.00  0.00     0.280 HD
HETATM    3  C   UNL     1       7.124  28.967  56.113  1.00  0.00     0.241 C 
HETATM    4  C   UNL     1       7.358  29.947  57.261  1.00  0.00     0.026 C 
HETATM    5  C   UNL     1       5.951  30.494  57.496  1.00  0.00     0.035 C 
HETATM    6  C   UNL     1       5.013  29.312  57.290  1.00  0.00     0.235 C 
ENDROOT
BRANCH   1   7
HETATM    7  C   UNL     1       5.709  26.936  56.800  1.00  0.00     0.276 C 
BRANCH   7   8
HETATM    8  C   UNL     1       6.068  25.964  55.716  1.00  0.00     0.005 A 
HETATM    9  C   UNL     1       5.388  25.973  54.497  1.00  0.00     0.107 A 
HETATM   10  C   UNL     1       5.656  25.038  53.487  1.00  0.00     0.103 A 
HETATM   11  C   UNL     1       6.667  24.101  53.685  1.00  0.00     0.058 A 
HETATM   12  C   UNL     1       7.372  24.096  54.889  1.00  0.00     0.014 A 
HETATM   13  C   UNL     1       7.071  25.006  55.906  1.00  0.00     0.030 A 
HETATM   14 BR   UNL     1       8.763  22.843  55.158  1.00  0.00    -0.051 Br
BRANCH   9  15
HETATM   15  O   UNL     1       4.437  26.943  54.290  1.00  0.00    -0.357 OA
HETATM   16  H   UNL     1       4.324  26.973  53.311  1.00  0.00     0.218 HD
ENDBRANCH   9  15
BRANCH  10  17
HETATM   17  O   UNL     1       4.876  25.161  52.369  1.00  0.00    -0.353 OA
HETATM   18  C   UNL     1       5.496  25.759  51.230  1.00  0.00     0.210 C 
ENDBRANCH  10  17
ENDBRANCH   7   8
ENDBRANCH   1   7
BRANCH   4  19
HETATM   19  C   UNL     1       7.991  29.253  58.482  1.00  0.00     0.100 C 
BRANCH  19  20
HETATM   20  N   UNL     1       9.084  30.076  59.036  1.00  0.00    -0.279 NA
HETATM   21  H   UNL     1       9.380  30.747  58.317  1.00  0.00     0.129 HD
BRANCH  20  22
HETATM   22  C   UNL     1       8.701  30.823  60.157  1.00  0.00     0.079 A 
HETATM   23  N   UNL     1       8.792  30.214  61.348  1.00  0.00    -0.357 N 
HETATM   24  H   UNL     1       9.136  29.256  61.343  1.00  0.00     0.166 HD
HETATM   25  C   UNL     1       8.465  30.803  62.507  1.00  0.00     0.089 A 
HETATM   26  C   UNL     1       8.005  32.113  62.507  1.00  0.00     0.017 A 
HETATM   27  C   UNL     1       7.907  32.792  61.297  1.00  0.00     0.005 A 
HETATM   28  C   UNL     1       8.267  32.148  60.113  1.00  0.00     0.042 A 
ENDBRANCH  20  22
ENDBRANCH  19  20
ENDBRANCH   4  19
TORSDOF 7
ENDMDL
MODEL 5
REMARK VINA RESULT:      -7.5      2.564      5.194
REMARK  7 active torsions:
REMARK  status: ('A' for Active; 'I' for Inactive)
REMARK    1  A    between atoms: O_2  and  C_3 
REMARK    2  A    between atoms: C_4  and  O_5 
REMARK    3  A    between atoms: C_6  and  C_7 
REMARK    4  A    between atoms: C_7  and  N_8 
REMARK    5  A    between atoms: C_11  and  C_12 
REMARK    6  A    between atoms: C_12  and  N_13 
REMARK    7  A    between atoms: N_13  and  C_14 
ROOT
HETATM    1  N   UNL     1       7.293  24.691  55.569  1.00  0.00    -0.067 N 
HETATM    2  H   UNL     1       8.097  24.901  56.193  1.00  0.00     0.280 HD
HETATM    3  C   UNL     1       7.543  25.409  54.267  1.00  0.00     0.241 C 
HETATM    4  C   UNL     1       7.173  24.403  53.179  1.00  0.00     0.026 C 
HETATM    5  C   UNL     1       7.612  23.083  53.812  1.00  0.00     0.035 C 
HETATM    6  C   UNL     1       7.279  23.209  55.292  1.00  0.00     0.235 C 
ENDROOT
BRANCH   1   7
HETATM    7  C   UNL     1       6.116  25.163  56.388  1.00  0.00     0.276 C 
BRANCH   7   8
HETATM    8  C   UNL     1       6.142  26.628  56.702  1.00  0.00     0.005 A 
HETATM    9  C   UNL     1       7.188  27.180  57.445  1.00  0.00     0.107 A 
HETATM   10  C   UNL     1       7.210  28.534  57.808  1.00  0.00     0.103 A 
HETATM   11  C   UNL     1       6.182  29.368  57.373  1.00  0.00     0.058 A 
HETATM   12  C   UNL     1       5.143  28.835  56.609  1.00  0.00     0.014 A 
HETATM   13  C   UNL     1       5.108  27.477  56.285  1.00  0.00     0.030 A 
HETATM   14 BR   UNL     1       3.756  29.964  55.993  1.00  0.00    -0.051 Br
BRANCH   9  15
HETATM   15  O   UNL     1       8.226  26.361  57.813  1.00  0.00    -0.357 OA
HETATM   16  H   UNL     1       8.796  26.926  58.386  1.00  0.00     0.218 HD
ENDBRANCH   9  15
BRANCH  10  17
HETATM   17  O   UNL     1       8.286  28.907  58.567  1.00  0.00    -0.353 OA
HETATM   18  C   UNL     1       9.131  29.915  58.012  1.00  0.00     0.210 C 
ENDBRANCH  10  17
ENDBRANCH   7   8
ENDBRANCH   1   7
BRANCH   4  19
HETATM   19  C   UNL     1       5.677  24.477  52.819  1.00  0.00     0.100 C 
BRANCH  19  20
HETATM   20  N   UNL     1       5.163  25.847  53.016  1.00  0.00    -0.279 NA
HETATM   21  H   UNL     1       5.798  26.341  53.655  1.00  0.00     0.129 HD
BRANCH  20  22
HETATM   22  C   UNL     1       5.114  26.595  51.834  1.00  0.00     0.079 A 
HETATM   23  N   UNL     1       4.699  25.955  50.731  1.00  0.00    -0.357 N 
HETATM   24  H   UNL     1       4.450  24.974  50.843  1.00  0.00     0.166 HD
HETATM   25  C   UNL     1       4.598  26.541  49.530  1.00  0.00     0.089 A 
HETATM   26  C   UNL     1       4.932  27.881  49.387  1.00  0.00     0.017 A 
HETATM   27  C   UNL     1       5.354  28.592  50.506  1.00  0.00     0.005 A 
HETATM   28  C   UNL     1       5.437  27.949  51.741  1.00  0.00     0.042 A 
ENDBRANCH  20  22
ENDBRANCH  19  20
ENDBRANCH   4  19
TORSDOF 7
ENDMDL
MODEL 6
REMARK VINA RESULT:      -7.5      2.115      2.994
REMARK  7 active torsions:
REMARK  status: ('A' for Active; 'I' for Inactive)
REMARK    1  A    between atoms: O_2  and  C_3 
REMARK    2  A    between atoms: C_4  and  O_5 
REMARK    3  A    between atoms: C_6  and  C_7 
REMARK    4  A    between atoms: C_7  and  N_8 
REMARK    5  A    between atoms: C_11  and  C_12 
REMARK    6  A    between atoms: C_12  and  N_13 
REMARK    7  A    between atoms: N_13  and  C_14 
ROOT
HETATM    1  N   UNL     1       6.492  27.190  56.959  1.00  0.00    -0.067 N 
HETATM    2  H   UNL     1       5.829  27.681  57.590  1.00  0.00     0.280 HD
HETATM    3  C   UNL     1       6.903  25.915  57.652  1.00  0.00     0.241 C 
HETATM    4  C   UNL     1       6.865  24.841  56.567  1.00  0.00     0.026 C 
HETATM    5  C   UNL     1       5.683  25.300  55.715  1.00  0.00     0.035 C 
HETATM    6  C   UNL     1       5.760  26.821  55.693  1.00  0.00     0.235 C 
ENDROOT
BRANCH   1   7
HETATM    7  C   UNL     1       7.570  28.226  56.752  1.00  0.00     0.276 C 
BRANCH   7   8
HETATM    8  C   UNL     1       7.451  29.417  57.655  1.00  0.00     0.005 A 
HETATM    9  C   UNL     1       6.574  30.459  57.348  1.00  0.00     0.107 A 
HETATM   10  C   UNL     1       6.484  31.615  58.137  1.00  0.00     0.103 A 
HETATM   11  C   UNL     1       7.257  31.706  59.293  1.00  0.00     0.058 A 
HETATM   12  C   UNL     1       8.119  30.660  59.625  1.00  0.00     0.014 A 
HETATM   13  C   UNL     1       8.232  29.530  58.811  1.00  0.00     0.030 A 
HETATM   14 BR   UNL     1       9.154  30.763  61.205  1.00  0.00    -0.051 Br
BRANCH   9  15
HETATM   15  O   UNL     1       5.771  30.329  56.241  1.00  0.00    -0.357 OA
HETATM   16  H   UNL     1       4.918  29.984  56.593  1.00  0.00     0.218 HD
ENDBRANCH   9  15
BRANCH  10  17
HETATM   17  O   UNL     1       5.604  32.556  57.678  1.00  0.00    -0.353 OA
HETATM   18  C   UNL     1       4.979  33.372  58.669  1.00  0.00     0.210 C 
ENDBRANCH  10  17
ENDBRANCH   7   8
ENDBRANCH   1   7
BRANCH   4  19
HETATM   19  C   UNL     1       8.204  24.745  55.812  1.00  0.00     0.100 C 
BRANCH  19  20
HETATM   20  N   UNL     1       8.856  23.447  56.075  1.00  0.00    -0.279 NA
HETATM   21  H   UNL     1       8.469  23.062  56.945  1.00  0.00     0.129 HD
BRANCH  20  22
HETATM   22  C   UNL     1       8.624  22.498  55.072  1.00  0.00     0.079 A 
HETATM   23  N   UNL     1       8.909  21.222  55.371  1.00  0.00    -0.357 N 
HETATM   24  H   UNL     1       9.269  21.045  56.307  1.00  0.00     0.166 HD
HETATM   25  C   UNL     1       8.736  20.206  54.515  1.00  0.00     0.089 A 
HETATM   26  C   UNL     1       8.236  20.454  53.243  1.00  0.00     0.017 A 
HETATM   27  C   UNL     1       7.912  21.760  52.891  1.00  0.00     0.005 A 
HETATM   28  C   UNL     1       8.096  22.789  53.814  1.00  0.00     0.042 A 
ENDBRANCH  20  22
ENDBRANCH  19  20
ENDBRANCH   4  19
TORSDOF 7
ENDMDL
MODEL 7
REMARK VINA RESULT:      -7.4      2.047      2.537
REMARK  7 active torsions:
REMARK  status: ('A' for Active; 'I' for Inactive)
REMARK    1  A    between atoms: O_2  and  C_3 
REMARK    2  A    between atoms: C_4  and  O_5 
REMARK    3  A    between atoms: C_6  and  C_7 
REMARK    4  A    between atoms: C_7  and  N_8 
REMARK    5  A    between atoms: C_11  and  C_12 
REMARK    6  A    between atoms: C_12  and  N_13 
REMARK    7  A    between atoms: N_13  and  C_14 
ROOT
HETATM    1  N   UNL     1       5.831  26.995  53.895  1.00  0.00    -0.067 N 
HETATM    2  H   UNL     1       5.179  27.724  54.246  1.00  0.00     0.280 HD
HETATM    3  C   UNL     1       5.132  25.667  54.041  1.00  0.00     0.241 C 
HETATM    4  C   UNL     1       5.419  24.920  52.740  1.00  0.00     0.026 C 
HETATM    5  C   UNL     1       5.422  26.058  51.721  1.00  0.00     0.035 C 
HETATM    6  C   UNL     1       6.074  27.239  52.427  1.00  0.00     0.235 C 
ENDROOT
BRANCH   1   7
HETATM    7  C   UNL     1       7.053  27.215  54.754  1.00  0.00     0.276 C 
BRANCH   7   8
HETATM    8  C   UNL     1       6.917  28.345  55.729  1.00  0.00     0.005 A 
HETATM    9  C   UNL     1       7.674  28.370  56.902  1.00  0.00     0.107 A 
HETATM   10  C   UNL     1       7.525  29.379  57.864  1.00  0.00     0.103 A 
HETATM   11  C   UNL     1       6.630  30.418  57.621  1.00  0.00     0.058 A 
HETATM   12  C   UNL     1       5.884  30.419  56.442  1.00  0.00     0.014 A 
HETATM   13  C   UNL     1       6.009  29.389  55.507  1.00  0.00     0.030 A 
HETATM   14 BR   UNL     1       4.684  31.838  56.091  1.00  0.00    -0.051 Br
BRANCH   9  15
HETATM   15  O   UNL     1       8.599  27.374  57.099  1.00  0.00    -0.357 OA
HETATM   16  H   UNL     1       8.318  26.651  56.490  1.00  0.00     0.218 HD
ENDBRANCH   9  15
BRANCH  10  17
HETATM   17  O   UNL     1       8.316  29.237  58.972  1.00  0.00    -0.353 OA
HETATM   18  C   UNL     1       8.490  30.403  59.777  1.00  0.00     0.210 C 
ENDBRANCH  10  17
ENDBRANCH   7   8
ENDBRANCH   1   7
BRANCH   4  19
HETATM   19  C   UNL     1       6.735  24.124  52.818  1.00  0.00     0.100 C 
BRANCH  19  20
HETATM   20  N   UNL     1       7.043  23.766  54.217  1.00  0.00    -0.279 NA
HETATM   21  H   UNL     1       6.162  23.743  54.746  1.00  0.00     0.129 HD
BRANCH  20  22
HETATM   22  C   UNL     1       7.629  22.501  54.349  1.00  0.00     0.079 A 
HETATM   23  N   UNL     1       7.834  22.058  55.597  1.00  0.00    -0.357 N 
HETATM   24  H   UNL     1       7.545  22.678  56.352  1.00  0.00     0.166 HD
HETATM   25  C   UNL     1       8.382  20.868  55.879  1.00  0.00     0.089 A 
HETATM   26  C   UNL     1       8.767  20.025  54.845  1.00  0.00     0.017 A 
HETATM   27  C   UNL     1       8.560  20.434  53.532  1.00  0.00     0.005 A 
HETATM   28  C   UNL     1       7.978  21.676  53.280  1.00  0.00     0.042 A 
ENDBRANCH  20  22
ENDBRANCH  19  20
ENDBRANCH   4  19
TORSDOF 7
ENDMDL
MODEL 8
REMARK VINA RESULT:      -7.4      3.833      5.783
REMARK  7 active torsions:
REMARK  status: ('A' for Active; 'I' for Inactive)
REMARK    1  A    between atoms: O_2  and  C_3 
REMARK    2  A    between atoms: C_4  and  O_5 
REMARK    3  A    between atoms: C_6  and  C_7 
REMARK    4  A    between atoms: C_7  and  N_8 
REMARK    5  A    between atoms: C_11  and  C_12 
REMARK    6  A    between atoms: C_12  and  N_13 
REMARK    7  A    between atoms: N_13  and  C_14 
ROOT
HETATM    1  N   UNL     1       6.193  27.383  53.390  1.00  0.00    -0.067 N 
HETATM    2  H   UNL     1       6.535  28.228  52.891  1.00  0.00     0.280 HD
HETATM    3  C   UNL     1       7.384  26.484  53.607  1.00  0.00     0.241 C 
HETATM    4  C   UNL     1       7.249  25.981  55.043  1.00  0.00     0.026 C 
HETATM    5  C   UNL     1       6.643  27.197  55.743  1.00  0.00     0.035 C 
HETATM    6  C   UNL     1       5.672  27.805  54.740  1.00  0.00     0.235 C 
ENDROOT
BRANCH   1   7
HETATM    7  C   UNL     1       5.119  26.872  52.461  1.00  0.00     0.276 C 
BRANCH   7   8
HETATM    8  C   UNL     1       5.101  27.545  51.122  1.00  0.00     0.005 A 
HETATM    9  C   UNL     1       4.728  26.841  49.975  1.00  0.00     0.107 A 
HETATM   10  C   UNL     1       4.760  27.423  48.700  1.00  0.00     0.103 A 
HETATM   11  C   UNL     1       5.128  28.761  48.576  1.00  0.00     0.058 A 
HETATM   12  C   UNL     1       5.479  29.484  49.717  1.00  0.00     0.014 A 
HETATM   13  C   UNL     1       5.483  28.885  50.979  1.00  0.00     0.030 A 
HETATM   14 BR   UNL     1       5.956  31.308  49.564  1.00  0.00    -0.051 Br
BRANCH   9  15
HETATM   15  O   UNL     1       4.307  25.542  50.118  1.00  0.00    -0.357 OA
HETATM   16  H   UNL     1       4.375  25.365  51.086  1.00  0.00     0.218 HD
ENDBRANCH   9  15
BRANCH  10  17
HETATM   17  O   UNL     1       4.400  26.587  47.678  1.00  0.00    -0.353 OA
HETATM   18  C   UNL     1       3.095  26.783  47.133  1.00  0.00     0.210 C 
ENDBRANCH  10  17
ENDBRANCH   7   8
ENDBRANCH   1   7
BRANCH   4  19
HETATM   19  C   UNL     1       6.394  24.702  55.120  1.00  0.00     0.100 C 
BRANCH  19  20
HETATM   20  N   UNL     1       7.122  23.634  55.833  1.00  0.00    -0.279 NA
HETATM   21  H   UNL     1       6.489  23.219  56.527  1.00  0.00     0.129 HD
BRANCH  20  22
HETATM   22  C   UNL     1       7.542  22.595  54.993  1.00  0.00     0.079 A 
HETATM   23  N   UNL     1       7.850  21.430  55.582  1.00  0.00    -0.357 N 
HETATM   24  H   UNL     1       7.752  21.394  56.595  1.00  0.00     0.166 HD
HETATM   25  C   UNL     1       8.262  20.347  54.908  1.00  0.00     0.089 A 
HETATM   26  C   UNL     1       8.386  20.402  53.527  1.00  0.00     0.017 A 
HETATM   27  C   UNL     1       8.064  21.585  52.869  1.00  0.00     0.005 A 
HETATM   28  C   UNL     1       7.628  22.687  53.604  1.00  0.00     0.042 A 
ENDBRANCH  20  22
ENDBRANCH  19  20
ENDBRANCH   4  19
TORSDOF 7
ENDMDL
MODEL 9
REMARK VINA RESULT:      -7.4      4.115      5.842
REMARK  7 active torsions:
REMARK  status: ('A' for Active; 'I' for Inactive)
REMARK    1  A    between atoms: O_2  and  C_3 
REMARK    2  A    between atoms: C_4  and  O_5 
REMARK    3  A    between atoms: C_6  and  C_7 
REMARK    4  A    between atoms: C_7  and  N_8 
REMARK    5  A    between atoms: C_11  and  C_12 
REMARK    6  A    between atoms: C_12  and  N_13 
REMARK    7  A    between atoms: N_13  and  C_14 
ROOT
HETATM    1  N   UNL     1       6.117  27.616  53.313  1.00  0.00    -0.067 N 
HETATM    2  H   UNL     1       6.196  28.574  52.918  1.00  0.00     0.280 HD
HETATM    3  C   UNL     1       7.186  27.481  54.368  1.00  0.00     0.241 C 
HETATM    4  C   UNL     1       6.503  26.781  55.541  1.00  0.00     0.026 C 
HETATM    5  C   UNL     1       5.091  27.360  55.471  1.00  0.00     0.035 C 
HETATM    6  C   UNL     1       4.774  27.487  53.987  1.00  0.00     0.235 C 
ENDROOT
BRANCH   1   7
HETATM    7  C   UNL     1       6.262  26.748  52.086  1.00  0.00     0.276 C 
BRANCH   7   8
HETATM    8  C   UNL     1       5.468  27.224  50.907  1.00  0.00     0.005 A 
HETATM    9  C   UNL     1       5.381  28.585  50.609  1.00  0.00     0.107 A 
HETATM   10  C   UNL     1       4.597  29.067  49.551  1.00  0.00     0.103 A 
HETATM   11  C   UNL     1       3.922  28.158  48.740  1.00  0.00     0.058 A 
HETATM   12  C   UNL     1       4.021  26.793  49.011  1.00  0.00     0.014 A 
HETATM   13  C   UNL     1       4.772  26.323  50.091  1.00  0.00     0.030 A 
HETATM   14 BR   UNL     1       3.129  25.548  47.900  1.00  0.00    -0.051 Br
BRANCH   9  15
HETATM   15  O   UNL     1       6.101  29.466  51.378  1.00  0.00    -0.357 OA
HETATM   16  H   UNL     1       6.964  29.014  51.529  1.00  0.00     0.218 HD
ENDBRANCH   9  15
BRANCH  10  17
HETATM   17  O   UNL     1       4.590  30.429  49.417  1.00  0.00    -0.353 OA
HETATM   18  C   UNL     1       4.614  30.932  48.081  1.00  0.00     0.210 C 
ENDBRANCH  10  17
ENDBRANCH   7   8
ENDBRANCH   1   7
BRANCH   4  19
HETATM   19  C   UNL     1       6.577  25.248  55.411  1.00  0.00     0.100 C 
BRANCH  19  20
HETATM   20  N   UNL     1       7.691  24.855  54.527  1.00  0.00    -0.279 NA
HETATM   21  H   UNL     1       8.571  25.159  54.961  1.00  0.00     0.129 HD
BRANCH  20  22
HETATM   22  C   UNL     1       7.788  23.471  54.340  1.00  0.00     0.079 A 
HETATM   23  N   UNL     1       7.681  22.705  55.436  1.00  0.00    -0.357 N 
HETATM   24  H   UNL     1       7.534  23.193  56.318  1.00  0.00     0.166 HD
HETATM   25  C   UNL     1       7.749  21.367  55.413  1.00  0.00     0.089 A 
HETATM   26  C   UNL     1       7.941  20.708  54.206  1.00  0.00     0.017 A 
HETATM   27  C   UNL     1       8.044  21.458  53.039  1.00  0.00     0.005 A 
HETATM   28  C   UNL     1       7.956  22.849  53.103  1.00  0.00     0.042 A 
ENDBRANCH  20  22
ENDBRANCH  19  20
ENDBRANCH   4  19
TORSDOF 7
ENDMDL
MODEL 10
REMARK VINA RESULT:      -7.3      2.475      3.339
REMARK  7 active torsions:
REMARK  status: ('A' for Active; 'I' for Inactive)
REMARK    1  A    between atoms: O_2  and  C_3 
REMARK    2  A    between atoms: C_4  and  O_5 
REMARK    3  A    between atoms: C_6  and  C_7 
REMARK    4  A    between atoms: C_7  and  N_8 
REMARK    5  A    between atoms: C_11  and  C_12 
REMARK    6  A    between atoms: C_12  and  N_13 
REMARK    7  A    between atoms: N_13  and  C_14 
ROOT
HETATM    1  N   UNL     1       5.994  27.000  56.557  1.00  0.00    -0.067 N 
HETATM    2  H   UNL     1       5.165  27.606  56.720  1.00  0.00     0.280 HD
HETATM    3  C   UNL     1       5.632  25.615  57.031  1.00  0.00     0.241 C 
HETATM    4  C   UNL     1       6.164  24.673  55.954  1.00  0.00     0.026 C 
HETATM    5  C   UNL     1       5.948  25.495  54.685  1.00  0.00     0.035 C 
HETATM    6  C   UNL     1       6.253  26.935  55.073  1.00  0.00     0.235 C 
ENDROOT
BRANCH   1   7
HETATM    7  C   UNL     1       7.076  27.719  57.327  1.00  0.00     0.276 C 
BRANCH   7   8
HETATM    8  C   UNL     1       6.758  29.151  57.631  1.00  0.00     0.005 A 
HETATM    9  C   UNL     1       7.710  29.983  58.224  1.00  0.00     0.107 A 
HETATM   10  C   UNL     1       7.425  31.309  58.577  1.00  0.00     0.103 A 
HETATM   11  C   UNL     1       6.168  31.832  58.283  1.00  0.00     0.058 A 
HETATM   12  C   UNL     1       5.214  31.020  57.668  1.00  0.00     0.014 A 
HETATM   13  C   UNL     1       5.493  29.687  57.355  1.00  0.00     0.030 A 
HETATM   14 BR   UNL     1       3.512  31.727  57.242  1.00  0.00    -0.051 Br
BRANCH   9  15
HETATM   15  O   UNL     1       8.966  29.474  58.450  1.00  0.00    -0.357 OA
HETATM   16  H   UNL     1       8.873  28.943  59.276  1.00  0.00     0.218 HD
ENDBRANCH   9  15
BRANCH  10  17
HETATM   17  O   UNL     1       8.455  31.976  59.183  1.00  0.00    -0.353 OA
HETATM   18  C   UNL     1       8.217  32.429  60.516  1.00  0.00     0.210 C 
ENDBRANCH  10  17
ENDBRANCH   7   8
ENDBRANCH   1   7
BRANCH   4  19
HETATM   19  C   UNL     1       7.628  24.273  56.220  1.00  0.00     0.100 C 
BRANCH  19  20
HETATM   20  N   UNL     1       8.349  24.072  54.947  1.00  0.00    -0.279 NA
HETATM   21  H   UNL     1       9.314  24.401  55.068  1.00  0.00     0.129 HD
BRANCH  20  22
HETATM   22  C   UNL     1       8.424  22.728  54.561  1.00  0.00     0.079 A 
HETATM   23  N   UNL     1       8.812  21.851  55.498  1.00  0.00    -0.357 N 
HETATM   24  H   UNL     1       9.020  22.233  56.418  1.00  0.00     0.166 HD
HETATM   25  C   UNL     1       8.927  20.534  55.276  1.00  0.00     0.089 A 
HETATM   26  C   UNL     1       8.635  20.019  54.020  1.00  0.00     0.017 A 
HETATM   27  C   UNL     1       8.214  20.888  53.018  1.00  0.00     0.005 A 
HETATM   28  C   UNL     1       8.097  22.250  53.291  1.00  0.00     0.042 A 
ENDBRANCH  20  22
ENDBRANCH  19  20
ENDBRANCH   4  19
TORSDOF 7
ENDMDL
