MODEL 1
REMARK VINA RESULT:      -9.7      0.000      0.000
REMARK  6 active torsions:
REMARK  status: ('A' for Active; 'I' for Inactive)
REMARK    1  A    between atoms: C_2  and  C_3 
REMARK    2  A    between atoms: C_6  and  C_7 
REMARK    3  A    between atoms: C_11  and  C_12 
REMARK       I    between atoms: C_12  and  N_13 
REMARK    4  A    between atoms: N_13  and  N_14 
REMARK    5  A    between atoms: C_15  and  C_16 
REMARK    6  A    between atoms: C_17  and  O_18 
ROOT
HETATM    1  C   UNL     1       9.339  29.316  57.376  1.00  0.00     0.289 C 
HETATM    2  N   UNL     1       8.305  28.400  57.259  1.00  0.00    -0.241 N 
HETATM    3  O   UNL     1      10.362  29.281  56.697  1.00  0.00    -0.264 OA
HETATM    4  H   UNL     1       7.496  28.470  57.858  1.00  0.00     0.192 HD
ENDROOT
BRANCH   1   5
HETATM    5  C   UNL     1       9.139  30.326  58.385  1.00  0.00     0.121 A 
HETATM    6  N   UNL     1       9.855  31.489  58.380  1.00  0.00    -0.272 N 
HETATM    7  N   UNL     1       9.563  32.319  59.391  1.00  0.00    -0.174 NA
HETATM    8  H   UNL     1      10.566  31.762  57.707  1.00  0.00     0.189 HD
HETATM    9  C   UNL     1       8.591  31.698  60.075  1.00  0.00     0.089 A 
HETATM   10  C   UNL     1       8.304  30.435  59.480  1.00  0.00     0.071 A 
BRANCH   9  11
HETATM   11  C   UNL     1       7.969  32.299  61.259  1.00  0.00    -0.006 A 
HETATM   12  C   UNL     1       8.534  32.144  62.533  1.00  0.00     0.014 A 
HETATM   13  C   UNL     1       7.936  32.724  63.658  1.00  0.00     0.008 A 
HETATM   14  C   UNL     1       6.758  33.467  63.533  1.00  0.00    -0.059 A 
HETATM   15  C   UNL     1       6.191  33.628  62.263  1.00  0.00     0.008 A 
HETATM   16  C   UNL     1       6.788  33.045  61.141  1.00  0.00     0.014 A 
BRANCH  14  17
HETATM   17  C   UNL     1       6.125  34.105  64.743  1.00  0.00     0.034 C 
HETATM   18  C   UNL     1       6.936  33.855  66.005  1.00  0.00     0.010 C 
ENDBRANCH  14  17
ENDBRANCH   9  11
ENDBRANCH   1   5
BRANCH   2  19
HETATM   19  N   UNL     1       8.354  27.441  56.294  1.00  0.00    -0.176 NA
HETATM   20  C   UNL     1       7.333  26.652  56.112  1.00  0.00     0.064 C 
HETATM   21  C   UNL     1       6.087  26.680  56.975  1.00  0.00     0.073 C 
BRANCH  20  22
HETATM   22  C   UNL     1       7.413  25.661  54.985  1.00  0.00     0.023 A 
HETATM   23  C   UNL     1       7.534  26.098  53.655  1.00  0.00     0.077 A 
HETATM   24  C   UNL     1       7.622  25.181  52.608  1.00  0.00     0.037 A 
HETATM   25  C   UNL     1       7.575  23.815  52.871  1.00  0.00     0.003 A 
HETATM   26  C   UNL     1       7.434  23.365  54.182  1.00  0.00     0.001 A 
HETATM   27  C   UNL     1       7.347  24.282  55.235  1.00  0.00     0.016 A 
BRANCH  23  28
HETATM   28  O   UNL     1       7.575  27.417  53.289  1.00  0.00    -0.360 OA
HETATM   29  H   UNL     1       8.427  27.584  52.824  1.00  0.00     0.217 HD
ENDBRANCH  23  28
ENDBRANCH  20  22
ENDBRANCH   2  19
TORSDOF 6
ENDMDL
MODEL 2
REMARK VINA RESULT:      -9.4      1.926      2.787
REMARK  6 active torsions:
REMARK  status: ('A' for Active; 'I' for Inactive)
REMARK    1  A    between atoms: C_2  and  C_3 
REMARK    2  A    between atoms: C_6  and  C_7 
REMARK    3  A    between atoms: C_11  and  C_12 
REMARK       I    between atoms: C_12  and  N_13 
REMARK    4  A    between atoms: N_13  and  N_14 
REMARK    5  A    between atoms: C_15  and  C_16 
REMARK    6  A    between atoms: C_17  and  O_18 
ROOT
HETATM    1  C   UNL     1       7.166  27.733  55.896  1.00  0.00     0.289 C 
HETATM    2  N   UNL     1       7.612  26.526  56.412  1.00  0.00    -0.241 N 
HETATM    3  O   UNL     1       6.814  27.888  54.729  1.00  0.00    -0.264 OA
HETATM    4  H   UNL     1       7.905  26.465  57.376  1.00  0.00     0.192 HD
ENDROOT
BRANCH   1   5
HETATM    5  C   UNL     1       7.161  28.826  56.836  1.00  0.00     0.121 A 
HETATM    6  N   UNL     1       6.634  30.043  56.509  1.00  0.00    -0.272 N 
HETATM    7  N   UNL     1       6.717  30.959  57.485  1.00  0.00    -0.174 NA
HETATM    8  H   UNL     1       6.208  30.304  55.624  1.00  0.00     0.189 HD
HETATM    9  C   UNL     1       7.292  30.314  58.511  1.00  0.00     0.089 A 
HETATM   10  C   UNL     1       7.597  28.973  58.138  1.00  0.00     0.071 A 
BRANCH   9  11
HETATM   11  C   UNL     1       7.541  30.970  59.799  1.00  0.00    -0.006 A 
HETATM   12  C   UNL     1       8.631  30.605  60.601  1.00  0.00     0.014 A 
HETATM   13  C   UNL     1       8.863  31.239  61.827  1.00  0.00     0.008 A 
HETATM   14  C   UNL     1       8.008  32.250  62.279  1.00  0.00    -0.059 A 
HETATM   15  C   UNL     1       6.920  32.620  61.480  1.00  0.00     0.008 A 
HETATM   16  C   UNL     1       6.687  31.984  60.257  1.00  0.00     0.014 A 
BRANCH  14  17
HETATM   17  C   UNL     1       8.269  32.943  63.591  1.00  0.00     0.034 C 
HETATM   18  C   UNL     1       6.988  33.164  64.379  1.00  0.00     0.010 C 
ENDBRANCH  14  17
ENDBRANCH   9  11
ENDBRANCH   1   5
BRANCH   2  19
HETATM   19  N   UNL     1       7.596  25.409  55.634  1.00  0.00    -0.176 NA
HETATM   20  C   UNL     1       8.170  24.318  56.057  1.00  0.00     0.064 C 
HETATM   21  C   UNL     1       8.939  24.225  57.360  1.00  0.00     0.073 C 
BRANCH  20  22
HETATM   22  C   UNL     1       8.060  23.096  55.190  1.00  0.00     0.023 A 
HETATM   23  C   UNL     1       8.133  23.201  53.791  1.00  0.00     0.077 A 
HETATM   24  C   UNL     1       8.045  22.067  52.984  1.00  0.00     0.037 A 
HETATM   25  C   UNL     1       7.865  20.812  53.560  1.00  0.00     0.003 A 
HETATM   26  C   UNL     1       7.768  20.692  54.945  1.00  0.00     0.001 A 
HETATM   27  C   UNL     1       7.859  21.828  55.757  1.00  0.00     0.016 A 
BRANCH  23  28
HETATM   28  O   UNL     1       8.294  24.388  53.126  1.00  0.00    -0.360 OA
HETATM   29  H   UNL     1       7.410  24.809  53.024  1.00  0.00     0.217 HD
ENDBRANCH  23  28
ENDBRANCH  20  22
ENDBRANCH   2  19
TORSDOF 6
ENDMDL
MODEL 3
REMARK VINA RESULT:      -9.4      1.577      1.832
REMARK  6 active torsions:
REMARK  status: ('A' for Active; 'I' for Inactive)
REMARK    1  A    between atoms: C_2  and  C_3 
REMARK    2  A    between atoms: C_6  and  C_7 
REMARK    3  A    between atoms: C_11  and  C_12 
REMARK       I    between atoms: C_12  and  N_13 
REMARK    4  A    between atoms: N_13  and  N_14 
REMARK    5  A    between atoms: C_15  and  C_16 
REMARK    6  A    between atoms: C_17  and  O_18 
ROOT
HETATM    1  C   UNL     1       8.361  28.844  57.137  1.00  0.00     0.289 C 
HETATM    2  N   UNL     1       7.957  27.563  57.481  1.00  0.00    -0.241 N 
HETATM    3  O   UNL     1       9.016  29.106  56.132  1.00  0.00    -0.264 OA
HETATM    4  H   UNL     1       7.435  27.407  58.330  1.00  0.00     0.192 HD
ENDROOT
BRANCH   1   5
HETATM    5  C   UNL     1       7.971  29.870  58.071  1.00  0.00     0.121 A 
HETATM    6  N   UNL     1       7.190  30.923  57.686  1.00  0.00    -0.272 N 
HETATM    7  N   UNL     1       6.926  31.800  58.666  1.00  0.00    -0.174 NA
HETATM    8  H   UNL     1       6.816  31.095  56.757  1.00  0.00     0.189 HD
HETATM    9  C   UNL     1       7.526  31.290  59.752  1.00  0.00     0.089 A 
HETATM   10  C   UNL     1       8.204  30.082  59.416  1.00  0.00     0.071 A 
BRANCH   9  11
HETATM   11  C   UNL     1       7.451  31.948  61.060  1.00  0.00    -0.006 A 
HETATM   12  C   UNL     1       8.372  31.652  62.076  1.00  0.00     0.014 A 
HETATM   13  C   UNL     1       8.295  32.287  63.320  1.00  0.00     0.008 A 
HETATM   14  C   UNL     1       7.294  33.229  63.578  1.00  0.00    -0.059 A 
HETATM   15  C   UNL     1       6.375  33.531  62.567  1.00  0.00     0.008 A 
HETATM   16  C   UNL     1       6.450  32.894  61.325  1.00  0.00     0.014 A 
BRANCH  14  17
HETATM   17  C   UNL     1       7.223  33.924  64.913  1.00  0.00     0.034 C 
HETATM   18  C   UNL     1       5.825  33.868  65.507  1.00  0.00     0.010 C 
ENDBRANCH  14  17
ENDBRANCH   9  11
ENDBRANCH   1   5
BRANCH   2  19
HETATM   19  N   UNL     1       8.211  26.524  56.639  1.00  0.00    -0.176 NA
HETATM   20  C   UNL     1       7.226  25.932  56.026  1.00  0.00     0.064 C 
HETATM   21  C   UNL     1       5.768  26.283  56.247  1.00  0.00     0.073 C 
BRANCH  20  22
HETATM   22  C   UNL     1       7.569  24.839  55.053  1.00  0.00     0.023 A 
HETATM   23  C   UNL     1       8.248  23.686  55.484  1.00  0.00     0.077 A 
HETATM   24  C   UNL     1       8.557  22.663  54.587  1.00  0.00     0.037 A 
HETATM   25  C   UNL     1       8.208  22.783  53.244  1.00  0.00     0.003 A 
HETATM   26  C   UNL     1       7.554  23.929  52.797  1.00  0.00     0.001 A 
HETATM   27  C   UNL     1       7.241  24.956  53.694  1.00  0.00     0.016 A 
BRANCH  23  28
HETATM   28  O   UNL     1       8.647  23.477  56.777  1.00  0.00    -0.360 OA
HETATM   29  H   UNL     1       9.352  22.791  56.778  1.00  0.00     0.217 HD
ENDBRANCH  23  28
ENDBRANCH  20  22
ENDBRANCH   2  19
TORSDOF 6
ENDMDL
MODEL 4
REMARK VINA RESULT:      -9.1      6.583     13.767
REMARK  6 active torsions:
REMARK  status: ('A' for Active; 'I' for Inactive)
REMARK    1  A    between atoms: C_2  and  C_3 
REMARK    2  A    between atoms: C_6  and  C_7 
REMARK    3  A    between atoms: C_11  and  C_12 
REMARK       I    between atoms: C_12  and  N_13 
REMARK    4  A    between atoms: N_13  and  N_14 
REMARK    5  A    between atoms: C_15  and  C_16 
REMARK    6  A    between atoms: C_17  and  O_18 
ROOT
HETATM    1  C   UNL     1       5.534  34.590  67.109  1.00  0.00     0.289 C 
HETATM    2  N   UNL     1       6.040  33.886  68.192  1.00  0.00    -0.241 N 
HETATM    3  O   UNL     1       4.941  35.661  67.208  1.00  0.00    -0.264 OA
HETATM    4  H   UNL     1       6.502  33.001  68.049  1.00  0.00     0.192 HD
ENDROOT
BRANCH   1   5
HETATM    5  C   UNL     1       5.735  33.955  65.831  1.00  0.00     0.121 A 
HETATM    6  N   UNL     1       4.710  33.338  65.172  1.00  0.00    -0.272 N 
HETATM    7  N   UNL     1       5.060  32.784  64.003  1.00  0.00    -0.174 NA
HETATM    8  H   UNL     1       3.746  33.260  65.485  1.00  0.00     0.189 HD
HETATM    9  C   UNL     1       6.363  33.075  63.863  1.00  0.00     0.089 A 
HETATM   10  C   UNL     1       6.827  33.800  64.999  1.00  0.00     0.071 A 
BRANCH   9  11
HETATM   11  C   UNL     1       7.128  32.662  62.682  1.00  0.00    -0.006 A 
HETATM   12  C   UNL     1       8.429  32.154  62.801  1.00  0.00     0.014 A 
HETATM   13  C   UNL     1       9.151  31.759  61.670  1.00  0.00     0.008 A 
HETATM   14  C   UNL     1       8.588  31.867  60.393  1.00  0.00    -0.059 A 
HETATM   15  C   UNL     1       7.288  32.370  60.269  1.00  0.00     0.008 A 
HETATM   16  C   UNL     1       6.569  32.767  61.401  1.00  0.00     0.014 A 
BRANCH  14  17
HETATM   17  C   UNL     1       9.360  31.425  59.177  1.00  0.00     0.034 C 
HETATM   18  C   UNL     1       8.853  30.098  58.636  1.00  0.00     0.010 C 
ENDBRANCH  14  17
ENDBRANCH   9  11
ENDBRANCH   1   5
BRANCH   2  19
HETATM   19  N   UNL     1       5.966  34.421  69.441  1.00  0.00    -0.176 NA
HETATM   20  C   UNL     1       7.046  34.868  70.018  1.00  0.00     0.064 C 
HETATM   21  C   UNL     1       8.429  34.764  69.406  1.00  0.00     0.073 C 
BRANCH  20  22
HETATM   22  C   UNL     1       6.896  35.514  71.367  1.00  0.00     0.023 A 
HETATM   23  C   UNL     1       5.978  35.009  72.304  1.00  0.00     0.077 A 
HETATM   24  C   UNL     1       5.846  35.598  73.561  1.00  0.00     0.037 A 
HETATM   25  C   UNL     1       6.616  36.709  73.896  1.00  0.00     0.003 A 
HETATM   26  C   UNL     1       7.514  37.236  72.971  1.00  0.00     0.001 A 
HETATM   27  C   UNL     1       7.651  36.646  71.710  1.00  0.00     0.016 A 
BRANCH  23  28
HETATM   28  O   UNL     1       5.166  33.932  72.068  1.00  0.00    -0.360 OA
HETATM   29  H   UNL     1       5.057  33.435  72.910  1.00  0.00     0.217 HD
ENDBRANCH  23  28
ENDBRANCH  20  22
ENDBRANCH   2  19
TORSDOF 6
ENDMDL
MODEL 5
REMARK VINA RESULT:      -9.0      8.379     11.177
REMARK  6 active torsions:
REMARK  status: ('A' for Active; 'I' for Inactive)
REMARK    1  A    between atoms: C_2  and  C_3 
REMARK    2  A    between atoms: C_6  and  C_7 
REMARK    3  A    between atoms: C_11  and  C_12 
REMARK       I    between atoms: C_12  and  N_13 
REMARK    4  A    between atoms: N_13  and  N_14 
REMARK    5  A    between atoms: C_15  and  C_16 
REMARK    6  A    between atoms: C_17  and  O_18 
ROOT
HETATM    1  C   UNL     1       4.890  27.686  50.818  1.00  0.00     0.289 C 
HETATM    2  N   UNL     1       3.920  27.029  50.077  1.00  0.00    -0.241 N 
HETATM    3  O   UNL     1       5.125  28.888  50.722  1.00  0.00    -0.264 OA
HETATM    4  H   UNL     1       3.785  26.035  50.187  1.00  0.00     0.192 HD
ENDROOT
BRANCH   1   5
HETATM    5  C   UNL     1       5.636  26.842  51.717  1.00  0.00     0.121 A 
HETATM    6  N   UNL     1       6.378  27.368  52.737  1.00  0.00    -0.272 N 
HETATM    7  N   UNL     1       7.025  26.454  53.475  1.00  0.00    -0.174 NA
HETATM    8  H   UNL     1       6.483  28.352  52.968  1.00  0.00     0.189 HD
HETATM    9  C   UNL     1       6.671  25.274  52.946  1.00  0.00     0.089 A 
HETATM   10  C   UNL     1       5.808  25.476  51.830  1.00  0.00     0.071 A 
BRANCH   9  11
HETATM   11  C   UNL     1       7.154  24.002  53.494  1.00  0.00    -0.006 A 
HETATM   12  C   UNL     1       7.086  23.732  54.868  1.00  0.00     0.014 A 
HETATM   13  C   UNL     1       7.546  22.514  55.383  1.00  0.00     0.008 A 
HETATM   14  C   UNL     1       8.087  21.542  54.534  1.00  0.00    -0.059 A 
HETATM   15  C   UNL     1       8.154  21.806  53.161  1.00  0.00     0.008 A 
HETATM   16  C   UNL     1       7.697  23.024  52.649  1.00  0.00     0.014 A 
BRANCH  14  17
HETATM   17  C   UNL     1       8.566  20.225  55.088  1.00  0.00     0.034 C 
HETATM   18  C   UNL     1       9.051  20.357  56.523  1.00  0.00     0.010 C 
ENDBRANCH  14  17
ENDBRANCH   9  11
ENDBRANCH   1   5
BRANCH   2  19
HETATM   19  N   UNL     1       3.108  27.737  49.244  1.00  0.00    -0.176 NA
HETATM   20  C   UNL     1       2.652  27.180  48.158  1.00  0.00     0.064 C 
HETATM   21  C   UNL     1       3.032  25.784  47.707  1.00  0.00     0.073 C 
BRANCH  20  22
HETATM   22  C   UNL     1       1.702  27.982  47.314  1.00  0.00     0.023 A 
HETATM   23  C   UNL     1       1.991  29.318  46.984  1.00  0.00     0.077 A 
HETATM   24  C   UNL     1       1.118  30.061  46.190  1.00  0.00     0.037 A 
HETATM   25  C   UNL     1      -0.062  29.488  45.724  1.00  0.00     0.003 A 
HETATM   26  C   UNL     1      -0.374  28.173  46.060  1.00  0.00     0.001 A 
HETATM   27  C   UNL     1       0.500  27.424  46.855  1.00  0.00     0.016 A 
BRANCH  23  28
HETATM   28  O   UNL     1       3.116  29.977  47.402  1.00  0.00    -0.360 OA
HETATM   29  H   UNL     1       3.659  30.197  46.611  1.00  0.00     0.217 HD
ENDBRANCH  23  28
ENDBRANCH  20  22
ENDBRANCH   2  19
TORSDOF 6
ENDMDL
MODEL 6
REMARK VINA RESULT:      -8.7      1.972      2.063
REMARK  6 active torsions:
REMARK  status: ('A' for Active; 'I' for Inactive)
REMARK    1  A    between atoms: C_2  and  C_3 
REMARK    2  A    between atoms: C_6  and  C_7 
REMARK    3  A    between atoms: C_11  and  C_12 
REMARK       I    between atoms: C_12  and  N_13 
REMARK    4  A    between atoms: N_13  and  N_14 
REMARK    5  A    between atoms: C_15  and  C_16 
REMARK    6  A    between atoms: C_17  and  O_18 
ROOT
HETATM    1  C   UNL     1       6.412  29.812  56.511  1.00  0.00     0.289 C 
HETATM    2  N   UNL     1       7.023  28.597  56.783  1.00  0.00    -0.241 N 
HETATM    3  O   UNL     1       5.934  30.106  55.418  1.00  0.00    -0.264 OA
HETATM    4  H   UNL     1       7.413  28.420  57.697  1.00  0.00     0.192 HD
ENDROOT
BRANCH   1   5
HETATM    5  C   UNL     1       6.392  30.737  57.616  1.00  0.00     0.121 A 
HETATM    6  N   UNL     1       5.787  31.957  57.511  1.00  0.00    -0.272 N 
HETATM    7  N   UNL     1       5.866  32.708  58.619  1.00  0.00    -0.174 NA
HETATM    8  H   UNL     1       5.308  32.331  56.696  1.00  0.00     0.189 HD
HETATM    9  C   UNL     1       6.521  31.942  59.505  1.00  0.00     0.089 A 
HETATM   10  C   UNL     1       6.879  30.699  58.907  1.00  0.00     0.071 A 
BRANCH   9  11
HETATM   11  C   UNL     1       6.793  32.398  60.872  1.00  0.00    -0.006 A 
HETATM   12  C   UNL     1       7.869  31.883  61.608  1.00  0.00     0.014 A 
HETATM   13  C   UNL     1       8.124  32.325  62.911  1.00  0.00     0.008 A 
HETATM   14  C   UNL     1       7.306  33.289  63.508  1.00  0.00    -0.059 A 
HETATM   15  C   UNL     1       6.232  33.810  62.777  1.00  0.00     0.008 A 
HETATM   16  C   UNL     1       5.976  33.364  61.476  1.00  0.00     0.014 A 
BRANCH  14  17
HETATM   17  C   UNL     1       7.592  33.777  64.905  1.00  0.00     0.034 C 
HETATM   18  C   UNL     1       6.328  33.860  65.746  1.00  0.00     0.010 C 
ENDBRANCH  14  17
ENDBRANCH   9  11
ENDBRANCH   1   5
BRANCH   2  19
HETATM   19  N   UNL     1       7.040  27.620  55.835  1.00  0.00    -0.176 NA
HETATM   20  C   UNL     1       7.236  26.380  56.187  1.00  0.00     0.064 C 
HETATM   21  C   UNL     1       7.526  25.948  57.610  1.00  0.00     0.073 C 
BRANCH  20  22
HETATM   22  C   UNL     1       7.173  25.335  55.109  1.00  0.00     0.023 A 
HETATM   23  C   UNL     1       6.106  25.313  54.194  1.00  0.00     0.077 A 
HETATM   24  C   UNL     1       6.052  24.353  53.185  1.00  0.00     0.037 A 
HETATM   25  C   UNL     1       7.052  23.390  53.083  1.00  0.00     0.003 A 
HETATM   26  C   UNL     1       8.105  23.383  53.995  1.00  0.00     0.001 A 
HETATM   27  C   UNL     1       8.164  24.347  55.008  1.00  0.00     0.016 A 
BRANCH  23  28
HETATM   28  O   UNL     1       5.068  26.206  54.217  1.00  0.00    -0.360 OA
HETATM   29  H   UNL     1       4.401  25.889  54.869  1.00  0.00     0.217 HD
ENDBRANCH  23  28
ENDBRANCH  20  22
ENDBRANCH   2  19
TORSDOF 6
ENDMDL
MODEL 7
REMARK VINA RESULT:      -8.7      4.119     10.616
REMARK  6 active torsions:
REMARK  status: ('A' for Active; 'I' for Inactive)
REMARK    1  A    between atoms: C_2  and  C_3 
REMARK    2  A    between atoms: C_6  and  C_7 
REMARK    3  A    between atoms: C_11  and  C_12 
REMARK       I    between atoms: C_12  and  N_13 
REMARK    4  A    between atoms: N_13  and  N_14 
REMARK    5  A    between atoms: C_15  and  C_16 
REMARK    6  A    between atoms: C_17  and  O_18 
ROOT
HETATM    1  C   UNL     1       4.376  28.997  56.386  1.00  0.00     0.289 C 
HETATM    2  N   UNL     1       4.265  29.426  57.700  1.00  0.00    -0.241 N 
HETATM    3  O   UNL     1       4.053  29.678  55.416  1.00  0.00    -0.264 OA
HETATM    4  H   UNL     1       4.530  28.813  58.457  1.00  0.00     0.192 HD
ENDROOT
BRANCH   1   5
HETATM    5  C   UNL     1       4.889  27.659  56.230  1.00  0.00     0.121 A 
HETATM    6  N   UNL     1       4.487  26.642  57.048  1.00  0.00    -0.272 N 
HETATM    7  N   UNL     1       5.065  25.462  56.785  1.00  0.00    -0.174 NA
HETATM    8  H   UNL     1       3.820  26.705  57.813  1.00  0.00     0.189 HD
HETATM    9  C   UNL     1       5.857  25.697  55.727  1.00  0.00     0.089 A 
HETATM   10  C   UNL     1       5.782  27.071  55.356  1.00  0.00     0.071 A 
BRANCH   9  11
HETATM   11  C   UNL     1       6.656  24.636  55.106  1.00  0.00    -0.006 A 
HETATM   12  C   UNL     1       6.907  24.630  53.727  1.00  0.00     0.014 A 
HETATM   13  C   UNL     1       7.674  23.616  53.142  1.00  0.00     0.008 A 
HETATM   14  C   UNL     1       8.203  22.584  53.924  1.00  0.00    -0.059 A 
HETATM   15  C   UNL     1       7.959  22.587  55.302  1.00  0.00     0.008 A 
HETATM   16  C   UNL     1       7.190  23.599  55.884  1.00  0.00     0.014 A 
BRANCH  14  17
HETATM   17  C   UNL     1       9.043  21.502  53.295  1.00  0.00     0.034 C 
HETATM   18  C   UNL     1       8.199  20.323  52.839  1.00  0.00     0.010 C 
ENDBRANCH  14  17
ENDBRANCH   9  11
ENDBRANCH   1   5
BRANCH   2  19
HETATM   19  N   UNL     1       3.855  30.696  57.966  1.00  0.00    -0.176 NA
HETATM   20  C   UNL     1       4.735  31.611  58.261  1.00  0.00     0.064 C 
HETATM   21  C   UNL     1       6.218  31.334  58.406  1.00  0.00     0.073 C 
BRANCH  20  22
HETATM   22  C   UNL     1       4.235  33.012  58.474  1.00  0.00     0.023 A 
HETATM   23  C   UNL     1       3.247  33.281  59.437  1.00  0.00     0.077 A 
HETATM   24  C   UNL     1       2.790  34.581  59.647  1.00  0.00     0.037 A 
HETATM   25  C   UNL     1       3.300  35.631  58.888  1.00  0.00     0.003 A 
HETATM   26  C   UNL     1       4.264  35.380  57.914  1.00  0.00     0.001 A 
HETATM   27  C   UNL     1       4.726  34.076  57.703  1.00  0.00     0.016 A 
BRANCH  23  28
HETATM   28  O   UNL     1       2.671  32.318  60.224  1.00  0.00    -0.360 OA
HETATM   29  H   UNL     1       2.421  32.729  61.083  1.00  0.00     0.217 HD
ENDBRANCH  23  28
ENDBRANCH  20  22
ENDBRANCH   2  19
TORSDOF 6
ENDMDL
MODEL 8
REMARK VINA RESULT:      -8.4      3.132     10.401
REMARK  6 active torsions:
REMARK  status: ('A' for Active; 'I' for Inactive)
REMARK    1  A    between atoms: C_2  and  C_3 
REMARK    2  A    between atoms: C_6  and  C_7 
REMARK    3  A    between atoms: C_11  and  C_12 
REMARK       I    between atoms: C_12  and  N_13 
REMARK    4  A    between atoms: N_13  and  N_14 
REMARK    5  A    between atoms: C_15  and  C_16 
REMARK    6  A    between atoms: C_17  and  O_18 
ROOT
HETATM    1  C   UNL     1       6.360  31.596  58.675  1.00  0.00     0.289 C 
HETATM    2  N   UNL     1       6.157  31.658  60.045  1.00  0.00    -0.241 N 
HETATM    3  O   UNL     1       6.049  32.495  57.898  1.00  0.00    -0.264 OA
HETATM    4  H   UNL     1       6.418  30.879  60.631  1.00  0.00     0.192 HD
ENDROOT
BRANCH   1   5
HETATM    5  C   UNL     1       6.956  30.369  58.208  1.00  0.00     0.121 A 
HETATM    6  N   UNL     1       8.232  30.022  58.550  1.00  0.00    -0.272 N 
HETATM    7  N   UNL     1       8.646  28.860  58.026  1.00  0.00    -0.174 NA
HETATM    8  H   UNL     1       8.869  30.552  59.138  1.00  0.00     0.189 HD
HETATM    9  C   UNL     1       7.590  28.401  57.335  1.00  0.00     0.089 A 
HETATM   10  C   UNL     1       6.512  29.329  57.416  1.00  0.00     0.071 A 
BRANCH   9  11
HETATM   11  C   UNL     1       7.628  27.120  56.622  1.00  0.00    -0.006 A 
HETATM   12  C   UNL     1       7.271  27.032  55.270  1.00  0.00     0.014 A 
HETATM   13  C   UNL     1       7.312  25.806  54.596  1.00  0.00     0.008 A 
HETATM   14  C   UNL     1       7.707  24.641  55.262  1.00  0.00    -0.059 A 
HETATM   15  C   UNL     1       8.068  24.724  56.611  1.00  0.00     0.008 A 
HETATM   16  C   UNL     1       8.023  25.949  57.284  1.00  0.00     0.014 A 
BRANCH  14  17
HETATM   17  C   UNL     1       7.767  23.325  54.530  1.00  0.00     0.034 C 
HETATM   18  C   UNL     1       7.786  23.516  53.021  1.00  0.00     0.010 C 
ENDBRANCH  14  17
ENDBRANCH   9  11
ENDBRANCH   1   5
BRANCH   2  19
HETATM   19  N   UNL     1       5.663  32.795  60.607  1.00  0.00    -0.176 NA
HETATM   20  C   UNL     1       5.455  32.845  61.892  1.00  0.00     0.064 C 
HETATM   21  C   UNL     1       5.662  31.665  62.822  1.00  0.00     0.073 C 
BRANCH  20  22
HETATM   22  C   UNL     1       4.978  34.147  62.468  1.00  0.00     0.023 A 
HETATM   23  C   UNL     1       3.644  34.300  62.884  1.00  0.00     0.077 A 
HETATM   24  C   UNL     1       3.201  35.504  63.431  1.00  0.00     0.037 A 
HETATM   25  C   UNL     1       4.077  36.578  63.558  1.00  0.00     0.003 A 
HETATM   26  C   UNL     1       5.397  36.451  63.131  1.00  0.00     0.001 A 
HETATM   27  C   UNL     1       5.846  35.244  62.583  1.00  0.00     0.016 A 
BRANCH  23  28
HETATM   28  O   UNL     1       2.701  33.312  62.789  1.00  0.00    -0.360 OA
HETATM   29  H   UNL     1       3.086  32.563  62.279  1.00  0.00     0.217 HD
ENDBRANCH  23  28
ENDBRANCH  20  22
ENDBRANCH   2  19
TORSDOF 6
ENDMDL
MODEL 9
REMARK VINA RESULT:      -8.3      3.369      4.460
REMARK  6 active torsions:
REMARK  status: ('A' for Active; 'I' for Inactive)
REMARK    1  A    between atoms: C_2  and  C_3 
REMARK    2  A    between atoms: C_6  and  C_7 
REMARK    3  A    between atoms: C_11  and  C_12 
REMARK       I    between atoms: C_12  and  N_13 
REMARK    4  A    between atoms: N_13  and  N_14 
REMARK    5  A    between atoms: C_15  and  C_16 
REMARK    6  A    between atoms: C_17  and  O_18 
ROOT
HETATM    1  C   UNL     1       7.670  26.819  57.424  1.00  0.00     0.289 C 
HETATM    2  N   UNL     1       7.664  26.414  56.098  1.00  0.00    -0.241 N 
HETATM    3  O   UNL     1       7.875  26.060  58.368  1.00  0.00    -0.264 OA
HETATM    4  H   UNL     1       7.472  27.081  55.366  1.00  0.00     0.192 HD
ENDROOT
BRANCH   1   5
HETATM    5  C   UNL     1       7.394  28.219  57.628  1.00  0.00     0.121 A 
HETATM    6  N   UNL     1       8.364  29.081  58.054  1.00  0.00    -0.272 N 
HETATM    7  N   UNL     1       7.947  30.345  58.210  1.00  0.00    -0.174 NA
HETATM    8  H   UNL     1       9.333  28.852  58.262  1.00  0.00     0.189 HD
HETATM    9  C   UNL     1       6.658  30.329  57.839  1.00  0.00     0.089 A 
HETATM   10  C   UNL     1       6.270  29.006  57.478  1.00  0.00     0.071 A 
BRANCH   9  11
HETATM   11  C   UNL     1       5.834  31.542  57.841  1.00  0.00    -0.006 A 
HETATM   12  C   UNL     1       5.147  31.954  56.691  1.00  0.00     0.014 A 
HETATM   13  C   UNL     1       4.361  33.112  56.701  1.00  0.00     0.008 A 
HETATM   14  C   UNL     1       4.248  33.884  57.862  1.00  0.00    -0.059 A 
HETATM   15  C   UNL     1       4.929  33.476  59.014  1.00  0.00     0.008 A 
HETATM   16  C   UNL     1       5.717  32.320  59.001  1.00  0.00     0.014 A 
BRANCH  14  17
HETATM   17  C   UNL     1       3.387  35.121  57.877  1.00  0.00     0.034 C 
HETATM   18  C   UNL     1       3.733  36.038  59.040  1.00  0.00     0.010 C 
ENDBRANCH  14  17
ENDBRANCH   9  11
ENDBRANCH   1   5
BRANCH   2  19
HETATM   19  N   UNL     1       7.979  25.128  55.781  1.00  0.00    -0.176 NA
HETATM   20  C   UNL     1       7.178  24.434  55.022  1.00  0.00     0.064 C 
HETATM   21  C   UNL     1       5.846  24.951  54.514  1.00  0.00     0.073 C 
BRANCH  20  22
HETATM   22  C   UNL     1       7.609  23.045  54.645  1.00  0.00     0.023 A 
HETATM   23  C   UNL     1       8.085  22.153  55.621  1.00  0.00     0.077 A 
HETATM   24  C   UNL     1       8.473  20.859  55.276  1.00  0.00     0.037 A 
HETATM   25  C   UNL     1       8.408  20.440  53.950  1.00  0.00     0.003 A 
HETATM   26  C   UNL     1       7.959  21.319  52.966  1.00  0.00     0.001 A 
HETATM   27  C   UNL     1       7.567  22.617  53.309  1.00  0.00     0.016 A 
BRANCH  23  28
HETATM   28  O   UNL     1       8.201  22.471  56.948  1.00  0.00    -0.360 OA
HETATM   29  H   UNL     1       8.879  21.881  57.350  1.00  0.00     0.217 HD
ENDBRANCH  23  28
ENDBRANCH  20  22
ENDBRANCH   2  19
TORSDOF 6
ENDMDL
MODEL 10
REMARK VINA RESULT:      -8.2      3.061     10.443
REMARK  6 active torsions:
REMARK  status: ('A' for Active; 'I' for Inactive)
REMARK    1  A    between atoms: C_2  and  C_3 
REMARK    2  A    between atoms: C_6  and  C_7 
REMARK    3  A    between atoms: C_11  and  C_12 
REMARK       I    between atoms: C_12  and  N_13 
REMARK    4  A    between atoms: N_13  and  N_14 
REMARK    5  A    between atoms: C_15  and  C_16 
REMARK    6  A    between atoms: C_17  and  O_18 
ROOT
HETATM    1  C   UNL     1       5.163  29.051  56.268  1.00  0.00     0.289 C 
HETATM    2  N   UNL     1       5.945  29.891  57.047  1.00  0.00    -0.241 N 
HETATM    3  O   UNL     1       3.940  29.134  56.192  1.00  0.00    -0.264 OA
HETATM    4  H   UNL     1       6.945  29.762  57.082  1.00  0.00     0.192 HD
ENDROOT
BRANCH   1   5
HETATM    5  C   UNL     1       5.895  28.037  55.552  1.00  0.00     0.121 A 
HETATM    6  N   UNL     1       6.855  28.365  54.637  1.00  0.00    -0.272 N 
HETATM    7  N   UNL     1       7.435  27.310  54.046  1.00  0.00    -0.174 NA
HETATM    8  H   UNL     1       7.148  29.301  54.372  1.00  0.00     0.189 HD
HETATM    9  C   UNL     1       6.861  26.240  54.617  1.00  0.00     0.089 A 
HETATM   10  C   UNL     1       5.878  26.656  55.561  1.00  0.00     0.071 A 
BRANCH   9  11
HETATM   11  C   UNL     1       7.244  24.871  54.258  1.00  0.00    -0.006 A 
HETATM   12  C   UNL     1       7.247  23.844  55.212  1.00  0.00     0.014 A 
HETATM   13  C   UNL     1       7.611  22.539  54.861  1.00  0.00     0.008 A 
HETATM   14  C   UNL     1       7.984  22.234  53.547  1.00  0.00    -0.059 A 
HETATM   15  C   UNL     1       7.980  23.254  52.590  1.00  0.00     0.008 A 
HETATM   16  C   UNL     1       7.619  24.558  52.943  1.00  0.00     0.014 A 
BRANCH  14  17
HETATM   17  C   UNL     1       8.360  20.825  53.167  1.00  0.00     0.034 C 
HETATM   18  C   UNL     1       8.740  19.993  54.381  1.00  0.00     0.010 C 
ENDBRANCH  14  17
ENDBRANCH   9  11
ENDBRANCH   1   5
BRANCH   2  19
HETATM   19  N   UNL     1       5.369  30.928  57.714  1.00  0.00    -0.176 NA
HETATM   20  C   UNL     1       6.062  31.597  58.592  1.00  0.00     0.064 C 
HETATM   21  C   UNL     1       7.483  31.245  58.985  1.00  0.00     0.073 C 
BRANCH  20  22
HETATM   22  C   UNL     1       5.399  32.776  59.246  1.00  0.00     0.023 A 
HETATM   23  C   UNL     1       4.881  33.828  58.470  1.00  0.00     0.077 A 
HETATM   24  C   UNL     1       4.254  34.917  59.074  1.00  0.00     0.037 A 
HETATM   25  C   UNL     1       4.148  34.983  60.460  1.00  0.00     0.003 A 
HETATM   26  C   UNL     1       4.676  33.960  61.245  1.00  0.00     0.001 A 
HETATM   27  C   UNL     1       5.304  32.864  60.643  1.00  0.00     0.016 A 
BRANCH  23  28
HETATM   28  O   UNL     1       4.946  33.866  57.103  1.00  0.00    -0.360 OA
HETATM   29  H   UNL     1       5.012  32.942  56.769  1.00  0.00     0.217 HD
ENDBRANCH  23  28
ENDBRANCH  20  22
ENDBRANCH   2  19
TORSDOF 6
ENDMDL
