MODEL 1
REMARK VINA RESULT:      -8.4      0.000      0.000
REMARK  5 active torsions:
REMARK  status: ('A' for Active; 'I' for Inactive)
REMARK    1  A    between atoms: C_11  and  N_12 
REMARK       I    between atoms: N_12  and  C_13 
REMARK       I    between atoms: C_13  and  N_14 
REMARK    2  A    between atoms: N_14  and  C_15 
REMARK    3  A    between atoms: C_15  and  C_16 
REMARK    4  A    between atoms: C_16  and  N_17 
REMARK    5  A    between atoms: C_16  and  C_21 
ROOT
HETATM    1  N   UNL     1       7.423  28.798  55.077  1.00  0.00    -0.314 N 
HETATM    2  C   UNL     1       6.891  27.584  54.797  1.00  0.00     0.298 C 
HETATM    3  N   UNL     1       7.112  26.555  55.658  1.00  0.00    -0.242 NA
HETATM    4  O   UNL     1       6.183  27.453  53.801  1.00  0.00    -0.254 OA
HETATM    5  H   UNL     1       7.247  29.440  54.308  1.00  0.00     0.170 HD
HETATM    6  H   UNL     1       8.076  26.560  55.970  1.00  0.00     0.132 HD
ENDROOT
BRANCH   1   7
HETATM    7  C   UNL     1       8.040  29.376  56.206  1.00  0.00     0.038 A 
HETATM    8  C   UNL     1       9.385  29.273  56.539  1.00  0.00     0.032 A 
HETATM    9  C   UNL     1       9.865  29.848  57.723  1.00  0.00     0.036 A 
HETATM   10  C   UNL     1       9.024  30.511  58.601  1.00  0.00     0.086 A 
HETATM   11  N   UNL     1       9.521  31.014  59.742  1.00  0.00    -0.250 NA
HETATM   12  C   UNL     1       7.658  30.623  58.277  1.00  0.00     0.088 A 
HETATM   13  C   UNL     1       8.649  31.633  60.579  1.00  0.00     0.055 A 
HETATM   14  C   UNL     1       9.217  32.173  61.856  1.00  0.00     0.072 C 
HETATM   15  C   UNL     1       7.294  31.742  60.263  1.00  0.00     0.055 A 
HETATM   16  N   UNL     1       6.796  31.237  59.104  1.00  0.00    -0.250 NA
HETATM   17  C   UNL     1       6.312  32.405  61.181  1.00  0.00     0.072 C 
HETATM   18  C   UNL     1       7.197  30.065  57.088  1.00  0.00     0.063 A 
ENDBRANCH   1   7
BRANCH   3  19
HETATM   19  C   UNL     1       6.594  25.220  55.361  1.00  0.00     0.135 C 
BRANCH  19  20
HETATM   20  C   UNL     1       7.405  24.312  54.383  1.00  0.00     0.240 C 
BRANCH  20  21
HETATM   21  N   UNL     1       6.893  24.212  52.949  1.00  0.00    -0.069 N 
HETATM   22  H   UNL     1       6.991  23.210  52.741  1.00  0.00     0.279 HD
HETATM   23  C   UNL     1       5.440  24.494  52.710  1.00  0.00     0.270 C 
HETATM   24  C   UNL     1       7.767  24.911  51.949  1.00  0.00     0.270 C 
ENDBRANCH  20  21
BRANCH  20  25
HETATM   25  C   UNL     1       7.743  22.947  54.952  1.00  0.00     0.014 A 
HETATM   26  S   UNL     1       8.287  22.840  56.582  1.00  0.00    -0.104 SA
HETATM   27  C   UNL     1       8.458  21.145  56.492  1.00  0.00     0.050 A 
HETATM   28  C   UNL     1       8.128  20.660  55.248  1.00  0.00     0.008 A 
HETATM   29  C   UNL     1       7.722  21.697  54.361  1.00  0.00     0.017 A 
ENDBRANCH  20  25
ENDBRANCH  19  20
ENDBRANCH   3  19
TORSDOF 5
ENDMDL
MODEL 2
REMARK VINA RESULT:      -8.2      2.621      8.680
REMARK  5 active torsions:
REMARK  status: ('A' for Active; 'I' for Inactive)
REMARK    1  A    between atoms: C_11  and  N_12 
REMARK       I    between atoms: N_12  and  C_13 
REMARK       I    between atoms: C_13  and  N_14 
REMARK    2  A    between atoms: N_14  and  C_15 
REMARK    3  A    between atoms: C_15  and  C_16 
REMARK    4  A    between atoms: C_16  and  N_17 
REMARK    5  A    between atoms: C_16  and  C_21 
ROOT
HETATM    1  N   UNL     1       4.660  26.929  54.916  1.00  0.00    -0.314 N 
HETATM    2  C   UNL     1       4.904  28.192  55.341  1.00  0.00     0.298 C 
HETATM    3  N   UNL     1       6.192  28.611  55.453  1.00  0.00    -0.242 NA
HETATM    4  O   UNL     1       3.957  28.943  55.567  1.00  0.00    -0.254 OA
HETATM    5  H   UNL     1       3.663  26.732  54.962  1.00  0.00     0.170 HD
HETATM    6  H   UNL     1       6.763  27.882  55.866  1.00  0.00     0.132 HD
ENDROOT
BRANCH   1   7
HETATM    7  C   UNL     1       5.442  25.908  54.335  1.00  0.00     0.038 A 
HETATM    8  C   UNL     1       5.673  25.736  52.976  1.00  0.00     0.032 A 
HETATM    9  C   UNL     1       6.423  24.645  52.520  1.00  0.00     0.036 A 
HETATM   10  C   UNL     1       6.937  23.701  53.395  1.00  0.00     0.086 A 
HETATM   11  N   UNL     1       7.619  22.650  52.911  1.00  0.00    -0.250 NA
HETATM   12  C   UNL     1       6.710  23.862  54.775  1.00  0.00     0.088 A 
HETATM   13  C   UNL     1       8.079  21.742  53.809  1.00  0.00     0.055 A 
HETATM   14  C   UNL     1       8.822  20.567  53.251  1.00  0.00     0.072 C 
HETATM   15  C   UNL     1       7.852  21.897  55.177  1.00  0.00     0.055 A 
HETATM   16  N   UNL     1       7.167  22.964  55.664  1.00  0.00    -0.250 NA
HETATM   17  C   UNL     1       8.335  20.896  56.183  1.00  0.00     0.072 C 
HETATM   18  C   UNL     1       5.980  24.961  55.217  1.00  0.00     0.063 A 
ENDBRANCH   1   7
BRANCH   3  19
HETATM   19  C   UNL     1       6.492  29.951  55.957  1.00  0.00     0.135 C 
BRANCH  19  20
HETATM   20  C   UNL     1       6.099  30.294  57.428  1.00  0.00     0.240 C 
BRANCH  20  21
HETATM   21  N   UNL     1       4.987  31.320  57.626  1.00  0.00    -0.069 N 
HETATM   22  H   UNL     1       5.376  31.942  58.346  1.00  0.00     0.279 HD
HETATM   23  C   UNL     1       4.676  32.235  56.480  1.00  0.00     0.270 C 
HETATM   24  C   UNL     1       3.740  30.745  58.232  1.00  0.00     0.270 C 
ENDBRANCH  20  21
BRANCH  20  25
HETATM   25  C   UNL     1       7.286  30.578  58.329  1.00  0.00     0.014 A 
HETATM   26  S   UNL     1       7.146  31.816  59.518  1.00  0.00    -0.104 SA
HETATM   27  C   UNL     1       8.740  31.568  60.072  1.00  0.00     0.050 A 
HETATM   28  C   UNL     1       9.383  30.579  59.364  1.00  0.00     0.008 A 
HETATM   29  C   UNL     1       8.548  30.013  58.359  1.00  0.00     0.017 A 
ENDBRANCH  20  25
ENDBRANCH  19  20
ENDBRANCH   3  19
TORSDOF 5
ENDMDL
MODEL 3
REMARK VINA RESULT:      -8.2      5.121      8.643
REMARK  5 active torsions:
REMARK  status: ('A' for Active; 'I' for Inactive)
REMARK    1  A    between atoms: C_11  and  N_12 
REMARK       I    between atoms: N_12  and  C_13 
REMARK       I    between atoms: C_13  and  N_14 
REMARK    2  A    between atoms: N_14  and  C_15 
REMARK    3  A    between atoms: C_15  and  C_16 
REMARK    4  A    between atoms: C_16  and  N_17 
REMARK    5  A    between atoms: C_16  and  C_21 
ROOT
HETATM    1  N   UNL     1       7.021  27.409  53.407  1.00  0.00    -0.314 N 
HETATM    2  C   UNL     1       6.152  27.945  52.515  1.00  0.00     0.298 C 
HETATM    3  N   UNL     1       5.207  27.144  51.957  1.00  0.00    -0.242 NA
HETATM    4  O   UNL     1       6.208  29.148  52.270  1.00  0.00    -0.254 OA
HETATM    5  H   UNL     1       7.717  28.102  53.673  1.00  0.00     0.170 HD
HETATM    6  H   UNL     1       5.609  26.248  51.707  1.00  0.00     0.132 HD
ENDROOT
BRANCH   1   7
HETATM    7  C   UNL     1       7.097  26.188  54.109  1.00  0.00     0.038 A 
HETATM    8  C   UNL     1       6.963  26.030  55.482  1.00  0.00     0.032 A 
HETATM    9  C   UNL     1       7.117  24.766  56.066  1.00  0.00     0.036 A 
HETATM   10  C   UNL     1       7.425  23.648  55.307  1.00  0.00     0.086 A 
HETATM   11  N   UNL     1       7.601  22.463  55.913  1.00  0.00    -0.250 NA
HETATM   12  C   UNL     1       7.565  23.794  53.913  1.00  0.00     0.088 A 
HETATM   13  C   UNL     1       7.925  21.406  55.126  1.00  0.00     0.055 A 
HETATM   14  C   UNL     1       8.135  20.095  55.821  1.00  0.00     0.072 C 
HETATM   15  C   UNL     1       8.068  21.547  53.745  1.00  0.00     0.055 A 
HETATM   16  N   UNL     1       7.883  22.746  53.134  1.00  0.00    -0.250 NA
HETATM   17  C   UNL     1       8.444  20.397  52.861  1.00  0.00     0.072 C 
HETATM   18  C   UNL     1       7.389  25.051  53.343  1.00  0.00     0.063 A 
ENDBRANCH   1   7
BRANCH   3  19
HETATM   19  C   UNL     1       4.286  27.678  50.954  1.00  0.00     0.135 C 
BRANCH  19  20
HETATM   20  C   UNL     1       4.536  27.320  49.455  1.00  0.00     0.240 C 
BRANCH  20  21
HETATM   21  N   UNL     1       5.559  28.168  48.704  1.00  0.00    -0.069 N 
HETATM   22  H   UNL     1       6.454  27.841  49.089  1.00  0.00     0.279 HD
HETATM   23  C   UNL     1       5.694  27.947  47.228  1.00  0.00     0.270 C 
HETATM   24  C   UNL     1       5.493  29.629  49.043  1.00  0.00     0.270 C 
ENDBRANCH  20  21
BRANCH  20  25
HETATM   25  C   UNL     1       3.265  27.135  48.648  1.00  0.00     0.014 A 
HETATM   26  S   UNL     1       1.975  28.255  48.867  1.00  0.00    -0.104 SA
HETATM   27  C   UNL     1       0.987  27.452  47.730  1.00  0.00     0.050 A 
HETATM   28  C   UNL     1       1.607  26.343  47.202  1.00  0.00     0.008 A 
HETATM   29  C   UNL     1       2.915  26.159  47.733  1.00  0.00     0.017 A 
ENDBRANCH  20  25
ENDBRANCH  19  20
ENDBRANCH   3  19
TORSDOF 5
ENDMDL
MODEL 4
REMARK VINA RESULT:      -8.1      4.215     10.094
REMARK  5 active torsions:
REMARK  status: ('A' for Active; 'I' for Inactive)
REMARK    1  A    between atoms: C_11  and  N_12 
REMARK       I    between atoms: N_12  and  C_13 
REMARK       I    between atoms: C_13  and  N_14 
REMARK    2  A    between atoms: N_14  and  C_15 
REMARK    3  A    between atoms: C_15  and  C_16 
REMARK    4  A    between atoms: C_16  and  N_17 
REMARK    5  A    between atoms: C_16  and  C_21 
ROOT
HETATM    1  N   UNL     1       7.828  31.445  58.992  1.00  0.00    -0.314 N 
HETATM    2  C   UNL     1       7.840  31.833  60.290  1.00  0.00     0.298 C 
HETATM    3  N   UNL     1       7.025  31.197  61.173  1.00  0.00    -0.242 NA
HETATM    4  O   UNL     1       8.619  32.715  60.647  1.00  0.00    -0.254 OA
HETATM    5  H   UNL     1       8.420  32.061  58.440  1.00  0.00     0.170 HD
HETATM    6  H   UNL     1       6.113  31.043  60.760  1.00  0.00     0.132 HD
ENDROOT
BRANCH   1   7
HETATM    7  C   UNL     1       7.292  30.347  58.288  1.00  0.00     0.038 A 
HETATM    8  C   UNL     1       6.044  30.303  57.680  1.00  0.00     0.032 A 
HETATM    9  C   UNL     1       5.601  29.128  57.058  1.00  0.00     0.036 A 
HETATM   10  C   UNL     1       6.375  27.979  57.046  1.00  0.00     0.086 A 
HETATM   11  N   UNL     1       5.895  26.864  56.471  1.00  0.00    -0.250 NA
HETATM   12  C   UNL     1       7.642  28.008  57.659  1.00  0.00     0.088 A 
HETATM   13  C   UNL     1       6.683  25.759  56.509  1.00  0.00     0.055 A 
HETATM   14  C   UNL     1       6.126  24.519  55.878  1.00  0.00     0.072 C 
HETATM   15  C   UNL     1       7.938  25.784  57.119  1.00  0.00     0.055 A 
HETATM   16  N   UNL     1       8.422  26.915  57.694  1.00  0.00    -0.250 NA
HETATM   17  C   UNL     1       8.814  24.569  57.187  1.00  0.00     0.072 C 
HETATM   18  C   UNL     1       8.078  29.187  58.256  1.00  0.00     0.063 A 
ENDBRANCH   1   7
BRANCH   3  19
HETATM   19  C   UNL     1       6.976  31.624  62.571  1.00  0.00     0.135 C 
BRANCH  19  20
HETATM   20  C   UNL     1       5.781  32.518  63.030  1.00  0.00     0.240 C 
BRANCH  20  21
HETATM   21  N   UNL     1       5.223  33.505  62.008  1.00  0.00    -0.069 N 
HETATM   22  H   UNL     1       5.588  33.142  61.118  1.00  0.00     0.279 HD
HETATM   23  C   UNL     1       3.738  33.534  61.811  1.00  0.00     0.270 C 
HETATM   24  C   UNL     1       5.796  34.887  62.134  1.00  0.00     0.270 C 
ENDBRANCH  20  21
BRANCH  20  25
HETATM   25  C   UNL     1       5.990  33.174  64.382  1.00  0.00     0.014 A 
HETATM   26  S   UNL     1       4.610  33.685  65.277  1.00  0.00    -0.104 SA
HETATM   27  C   UNL     1       5.568  34.280  66.557  1.00  0.00     0.050 A 
HETATM   28  C   UNL     1       6.912  34.117  66.313  1.00  0.00     0.008 A 
HETATM   29  C   UNL     1       7.154  33.485  65.060  1.00  0.00     0.017 A 
ENDBRANCH  20  25
ENDBRANCH  19  20
ENDBRANCH   3  19
TORSDOF 5
ENDMDL
MODEL 5
REMARK VINA RESULT:      -8.0      5.482      8.751
REMARK  5 active torsions:
REMARK  status: ('A' for Active; 'I' for Inactive)
REMARK    1  A    between atoms: C_11  and  N_12 
REMARK       I    between atoms: N_12  and  C_13 
REMARK       I    between atoms: C_13  and  N_14 
REMARK    2  A    between atoms: N_14  and  C_15 
REMARK    3  A    between atoms: C_15  and  C_16 
REMARK    4  A    between atoms: C_16  and  N_17 
REMARK    5  A    between atoms: C_16  and  C_21 
ROOT
HETATM    1  N   UNL     1       6.010  27.299  54.031  1.00  0.00    -0.314 N 
HETATM    2  C   UNL     1       5.016  28.055  53.504  1.00  0.00     0.298 C 
HETATM    3  N   UNL     1       4.594  27.795  52.238  1.00  0.00    -0.242 NA
HETATM    4  O   UNL     1       4.487  28.921  54.197  1.00  0.00    -0.254 OA
HETATM    5  H   UNL     1       6.275  27.661  54.944  1.00  0.00     0.170 HD
HETATM    6  H   UNL     1       5.388  27.614  51.634  1.00  0.00     0.132 HD
ENDROOT
BRANCH   1   7
HETATM    7  C   UNL     1       6.651  26.100  53.658  1.00  0.00     0.038 A 
HETATM    8  C   UNL     1       7.189  25.821  52.408  1.00  0.00     0.032 A 
HETATM    9  C   UNL     1       7.751  24.565  52.145  1.00  0.00     0.036 A 
HETATM   10  C   UNL     1       7.771  23.564  53.103  1.00  0.00     0.086 A 
HETATM   11  N   UNL     1       8.286  22.362  52.796  1.00  0.00    -0.250 NA
HETATM   12  C   UNL     1       7.228  23.832  54.375  1.00  0.00     0.088 A 
HETATM   13  C   UNL     1       8.258  21.410  53.763  1.00  0.00     0.055 A 
HETATM   14  C   UNL     1       8.821  20.070  53.398  1.00  0.00     0.072 C 
HETATM   15  C   UNL     1       7.718  21.672  55.023  1.00  0.00     0.055 A 
HETATM   16  N   UNL     1       7.204  22.890  55.332  1.00  0.00    -0.250 NA
HETATM   17  C   UNL     1       7.661  20.628  56.097  1.00  0.00     0.072 C 
HETATM   18  C   UNL     1       6.691  25.090  54.630  1.00  0.00     0.063 A 
ENDBRANCH   1   7
BRANCH   3  19
HETATM   19  C   UNL     1       3.558  28.622  51.620  1.00  0.00     0.135 C 
BRANCH  19  20
HETATM   20  C   UNL     1       3.696  28.971  50.105  1.00  0.00     0.240 C 
BRANCH  20  21
HETATM   21  N   UNL     1       3.025  30.256  49.628  1.00  0.00    -0.069 N 
HETATM   22  H   UNL     1       2.386  29.922  48.895  1.00  0.00     0.279 HD
HETATM   23  C   UNL     1       2.130  30.971  50.594  1.00  0.00     0.270 C 
HETATM   24  C   UNL     1       3.962  31.201  48.933  1.00  0.00     0.270 C 
ENDBRANCH  20  21
BRANCH  20  25
HETATM   25  C   UNL     1       3.397  27.809  49.178  1.00  0.00     0.014 A 
HETATM   26  S   UNL     1       1.846  27.721  48.433  1.00  0.00    -0.104 SA
HETATM   27  C   UNL     1       2.234  26.270  47.625  1.00  0.00     0.050 A 
HETATM   28  C   UNL     1       3.506  25.839  47.921  1.00  0.00     0.008 A 
HETATM   29  C   UNL     1       4.173  26.722  48.817  1.00  0.00     0.017 A 
ENDBRANCH  20  25
ENDBRANCH  19  20
ENDBRANCH   3  19
TORSDOF 5
ENDMDL
MODEL 6
REMARK VINA RESULT:      -7.9      2.168      3.689
REMARK  5 active torsions:
REMARK  status: ('A' for Active; 'I' for Inactive)
REMARK    1  A    between atoms: C_11  and  N_12 
REMARK       I    between atoms: N_12  and  C_13 
REMARK       I    between atoms: C_13  and  N_14 
REMARK    2  A    between atoms: N_14  and  C_15 
REMARK    3  A    between atoms: C_15  and  C_16 
REMARK    4  A    between atoms: C_16  and  N_17 
REMARK    5  A    between atoms: C_16  and  C_21 
ROOT
HETATM    1  N   UNL     1       8.822  30.219  58.209  1.00  0.00    -0.314 N 
HETATM    2  C   UNL     1       8.847  28.982  57.655  1.00  0.00     0.298 C 
HETATM    3  N   UNL     1       7.877  28.092  57.994  1.00  0.00    -0.242 NA
HETATM    4  O   UNL     1       9.713  28.711  56.827  1.00  0.00    -0.254 OA
HETATM    5  H   UNL     1       9.650  30.741  57.930  1.00  0.00     0.170 HD
HETATM    6  H   UNL     1       7.695  28.133  58.991  1.00  0.00     0.132 HD
ENDROOT
BRANCH   1   7
HETATM    7  C   UNL     1       7.881  30.952  58.961  1.00  0.00     0.038 A 
HETATM    8  C   UNL     1       6.680  31.461  58.484  1.00  0.00     0.032 A 
HETATM    9  C   UNL     1       5.855  32.226  59.320  1.00  0.00     0.036 A 
HETATM   10  C   UNL     1       6.214  32.513  60.627  1.00  0.00     0.086 A 
HETATM   11  N   UNL     1       5.411  33.280  61.381  1.00  0.00    -0.250 NA
HETATM   12  C   UNL     1       7.429  32.004  61.124  1.00  0.00     0.088 A 
HETATM   13  C   UNL     1       5.821  33.552  62.646  1.00  0.00     0.055 A 
HETATM   14  C   UNL     1       4.921  34.424  63.468  1.00  0.00     0.072 C 
HETATM   15  C   UNL     1       7.027  33.053  63.140  1.00  0.00     0.055 A 
HETATM   16  N   UNL     1       7.834  32.272  62.377  1.00  0.00    -0.250 NA
HETATM   17  C   UNL     1       7.506  33.357  64.527  1.00  0.00     0.072 C 
HETATM   18  C   UNL     1       8.230  31.230  60.290  1.00  0.00     0.063 A 
ENDBRANCH   1   7
BRANCH   3  19
HETATM   19  C   UNL     1       7.902  26.732  57.455  1.00  0.00     0.135 C 
BRANCH  19  20
HETATM   20  C   UNL     1       7.459  26.516  55.973  1.00  0.00     0.240 C 
BRANCH  20  21
HETATM   21  N   UNL     1       6.084  27.049  55.578  1.00  0.00    -0.069 N 
HETATM   22  H   UNL     1       5.794  26.402  54.834  1.00  0.00     0.279 HD
HETATM   23  C   UNL     1       4.986  26.956  56.593  1.00  0.00     0.270 C 
HETATM   24  C   UNL     1       6.129  28.402  54.929  1.00  0.00     0.270 C 
ENDBRANCH  20  21
BRANCH  20  25
HETATM   25  C   UNL     1       7.675  25.102  55.469  1.00  0.00     0.014 A 
HETATM   26  S   UNL     1       8.305  23.923  56.554  1.00  0.00    -0.104 SA
HETATM   27  C   UNL     1       8.276  22.703  55.362  1.00  0.00     0.050 A 
HETATM   28  C   UNL     1       7.817  23.174  54.154  1.00  0.00     0.008 A 
HETATM   29  C   UNL     1       7.476  24.555  54.215  1.00  0.00     0.017 A 
ENDBRANCH  20  25
ENDBRANCH  19  20
ENDBRANCH   3  19
TORSDOF 5
ENDMDL
MODEL 7
REMARK VINA RESULT:      -7.6      7.236     10.843
REMARK  5 active torsions:
REMARK  status: ('A' for Active; 'I' for Inactive)
REMARK    1  A    between atoms: C_11  and  N_12 
REMARK       I    between atoms: N_12  and  C_13 
REMARK       I    between atoms: C_13  and  N_14 
REMARK    2  A    between atoms: N_14  and  C_15 
REMARK    3  A    between atoms: C_15  and  C_16 
REMARK    4  A    between atoms: C_16  and  N_17 
REMARK    5  A    between atoms: C_16  and  C_21 
ROOT
HETATM    1  N   UNL     1       3.807  33.800  64.816  1.00  0.00    -0.314 N 
HETATM    2  C   UNL     1       3.686  33.692  63.470  1.00  0.00     0.298 C 
HETATM    3  N   UNL     1       4.744  34.029  62.687  1.00  0.00    -0.242 NA
HETATM    4  O   UNL     1       2.644  33.247  62.995  1.00  0.00    -0.254 OA
HETATM    5  H   UNL     1       2.916  33.596  65.262  1.00  0.00     0.170 HD
HETATM    6  H   UNL     1       5.179  34.878  63.030  1.00  0.00     0.132 HD
ENDROOT
BRANCH   1   7
HETATM    7  C   UNL     1       4.883  34.009  65.703  1.00  0.00     0.038 A 
HETATM    8  C   UNL     1       6.231  33.968  65.369  1.00  0.00     0.032 A 
HETATM    9  C   UNL     1       7.209  34.136  66.358  1.00  0.00     0.036 A 
HETATM   10  C   UNL     1       6.871  34.328  67.688  1.00  0.00     0.086 A 
HETATM   11  N   UNL     1       7.842  34.448  68.608  1.00  0.00    -0.250 NA
HETATM   12  C   UNL     1       5.509  34.371  68.041  1.00  0.00     0.088 A 
HETATM   13  C   UNL     1       7.456  34.609  69.899  1.00  0.00     0.055 A 
HETATM   14  C   UNL     1       8.552  34.723  70.915  1.00  0.00     0.072 C 
HETATM   15  C   UNL     1       6.107  34.649  70.253  1.00  0.00     0.055 A 
HETATM   16  N   UNL     1       5.128  34.533  69.319  1.00  0.00    -0.250 NA
HETATM   17  C   UNL     1       5.661  34.807  71.675  1.00  0.00     0.072 C 
HETATM   18  C   UNL     1       4.546  34.223  67.047  1.00  0.00     0.063 A 
ENDBRANCH   1   7
BRANCH   3  19
HETATM   19  C   UNL     1       4.631  33.972  61.229  1.00  0.00     0.135 C 
BRANCH  19  20
HETATM   20  C   UNL     1       5.481  32.910  60.463  1.00  0.00     0.240 C 
BRANCH  20  21
HETATM   21  N   UNL     1       4.720  31.770  59.792  1.00  0.00    -0.069 N 
HETATM   22  H   UNL     1       5.030  30.946  60.323  1.00  0.00     0.279 HD
HETATM   23  C   UNL     1       3.228  31.755  59.930  1.00  0.00     0.270 C 
HETATM   24  C   UNL     1       5.150  31.512  58.377  1.00  0.00     0.270 C 
ENDBRANCH  20  21
BRANCH  20  25
HETATM   25  C   UNL     1       6.676  32.399  61.245  1.00  0.00     0.014 A 
HETATM   26  S   UNL     1       8.245  32.548  60.552  1.00  0.00    -0.104 SA
HETATM   27  C   UNL     1       8.990  31.810  61.898  1.00  0.00     0.050 A 
HETATM   28  C   UNL     1       8.074  31.436  62.853  1.00  0.00     0.008 A 
HETATM   29  C   UNL     1       6.743  31.771  62.475  1.00  0.00     0.017 A 
ENDBRANCH  20  25
ENDBRANCH  19  20
ENDBRANCH   3  19
TORSDOF 5
ENDMDL
MODEL 8
REMARK VINA RESULT:      -7.5      3.198      9.044
REMARK  5 active torsions:
REMARK  status: ('A' for Active; 'I' for Inactive)
REMARK    1  A    between atoms: C_11  and  N_12 
REMARK       I    between atoms: N_12  and  C_13 
REMARK       I    between atoms: C_13  and  N_14 
REMARK    2  A    between atoms: N_14  and  C_15 
REMARK    3  A    between atoms: C_15  and  C_16 
REMARK    4  A    between atoms: C_16  and  N_17 
REMARK    5  A    between atoms: C_16  and  C_21 
ROOT
HETATM    1  N   UNL     1       5.954  31.330  57.298  1.00  0.00    -0.314 N 
HETATM    2  C   UNL     1       5.592  32.146  58.317  1.00  0.00     0.298 C 
HETATM    3  N   UNL     1       5.408  31.611  59.553  1.00  0.00    -0.242 NA
HETATM    4  O   UNL     1       5.486  33.353  58.112  1.00  0.00    -0.254 OA
HETATM    5  H   UNL     1       5.971  31.851  56.425  1.00  0.00     0.170 HD
HETATM    6  H   UNL     1       4.908  30.732  59.485  1.00  0.00     0.132 HD
ENDROOT
BRANCH   1   7
HETATM    7  C   UNL     1       6.409  29.998  57.205  1.00  0.00     0.038 A 
HETATM    8  C   UNL     1       7.466  29.449  57.919  1.00  0.00     0.032 A 
HETATM    9  C   UNL     1       7.858  28.123  57.694  1.00  0.00     0.036 A 
HETATM   10  C   UNL     1       7.226  27.331  56.749  1.00  0.00     0.086 A 
HETATM   11  N   UNL     1       7.659  26.077  56.540  1.00  0.00    -0.250 NA
HETATM   12  C   UNL     1       6.153  27.874  56.017  1.00  0.00     0.088 A 
HETATM   13  C   UNL     1       7.021  25.351  55.586  1.00  0.00     0.055 A 
HETATM   14  C   UNL     1       7.527  23.961  55.353  1.00  0.00     0.072 C 
HETATM   15  C   UNL     1       5.959  25.888  54.856  1.00  0.00     0.055 A 
HETATM   16  N   UNL     1       5.520  27.155  55.075  1.00  0.00    -0.250 NA
HETATM   17  C   UNL     1       5.254  25.110  53.787  1.00  0.00     0.072 C 
HETATM   18  C   UNL     1       5.760  29.186  56.264  1.00  0.00     0.063 A 
ENDBRANCH   1   7
BRANCH   3  19
HETATM   19  C   UNL     1       4.968  32.454  60.665  1.00  0.00     0.135 C 
BRANCH  19  20
HETATM   20  C   UNL     1       6.013  32.840  61.759  1.00  0.00     0.240 C 
BRANCH  20  21
HETATM   21  N   UNL     1       6.044  34.301  62.200  1.00  0.00    -0.069 N 
HETATM   22  H   UNL     1       6.927  34.642  61.799  1.00  0.00     0.279 HD
HETATM   23  C   UNL     1       5.005  35.220  61.631  1.00  0.00     0.270 C 
HETATM   24  C   UNL     1       6.189  34.478  63.684  1.00  0.00     0.270 C 
ENDBRANCH  20  21
BRANCH  20  25
HETATM   25  C   UNL     1       7.408  32.310  61.489  1.00  0.00     0.014 A 
HETATM   26  S   UNL     1       7.993  30.997  62.438  1.00  0.00    -0.104 SA
HETATM   27  C   UNL     1       9.493  30.981  61.624  1.00  0.00     0.050 A 
HETATM   28  C   UNL     1       9.567  31.960  60.661  1.00  0.00     0.008 A 
HETATM   29  C   UNL     1       8.370  32.727  60.587  1.00  0.00     0.017 A 
ENDBRANCH  20  25
ENDBRANCH  19  20
ENDBRANCH   3  19
TORSDOF 5
ENDMDL
MODEL 9
REMARK VINA RESULT:      -7.5      3.763      9.222
REMARK  5 active torsions:
REMARK  status: ('A' for Active; 'I' for Inactive)
REMARK    1  A    between atoms: C_11  and  N_12 
REMARK       I    between atoms: N_12  and  C_13 
REMARK       I    between atoms: C_13  and  N_14 
REMARK    2  A    between atoms: N_14  and  C_15 
REMARK    3  A    between atoms: C_15  and  C_16 
REMARK    4  A    between atoms: C_16  and  N_17 
REMARK    5  A    between atoms: C_16  and  C_21 
ROOT
HETATM    1  N   UNL     1       8.731  29.381  57.941  1.00  0.00    -0.314 N 
HETATM    2  C   UNL     1       8.462  30.485  58.680  1.00  0.00     0.298 C 
HETATM    3  N   UNL     1       7.194  30.972  58.695  1.00  0.00    -0.242 NA
HETATM    4  O   UNL     1       9.357  30.988  59.355  1.00  0.00    -0.254 OA
HETATM    5  H   UNL     1       9.729  29.186  57.958  1.00  0.00     0.170 HD
HETATM    6  H   UNL     1       6.798  30.951  57.762  1.00  0.00     0.132 HD
ENDROOT
BRANCH   1   7
HETATM    7  C   UNL     1       7.947  28.415  57.276  1.00  0.00     0.038 A 
HETATM    8  C   UNL     1       7.546  27.193  57.801  1.00  0.00     0.032 A 
HETATM    9  C   UNL     1       6.814  26.293  57.015  1.00  0.00     0.036 A 
HETATM   10  C   UNL     1       6.486  26.579  55.699  1.00  0.00     0.086 A 
HETATM   11  N   UNL     1       5.815  25.672  54.972  1.00  0.00    -0.250 NA
HETATM   12  C   UNL     1       6.886  27.814  55.154  1.00  0.00     0.088 A 
HETATM   13  C   UNL     1       5.541  25.991  53.681  1.00  0.00     0.055 A 
HETATM   14  C   UNL     1       4.807  24.960  52.879  1.00  0.00     0.072 C 
HETATM   15  C   UNL     1       5.940  27.213  53.137  1.00  0.00     0.055 A 
HETATM   16  N   UNL     1       6.613  28.131  53.877  1.00  0.00    -0.250 NA
HETATM   17  C   UNL     1       5.663  27.576  51.709  1.00  0.00     0.072 C 
HETATM   18  C   UNL     1       7.596  28.708  55.950  1.00  0.00     0.063 A 
ENDBRANCH   1   7
BRANCH   3  19
HETATM   19  C   UNL     1       6.879  32.189  59.442  1.00  0.00     0.135 C 
BRANCH  19  20
HETATM   20  C   UNL     1       5.871  32.089  60.631  1.00  0.00     0.240 C 
BRANCH  20  21
HETATM   21  N   UNL     1       4.515  32.764  60.445  1.00  0.00    -0.069 N 
HETATM   22  H   UNL     1       4.253  33.017  61.407  1.00  0.00     0.279 HD
HETATM   23  C   UNL     1       4.484  34.066  59.703  1.00  0.00     0.270 C 
HETATM   24  C   UNL     1       3.438  31.830  59.975  1.00  0.00     0.270 C 
ENDBRANCH  20  21
BRANCH  20  25
HETATM   25  C   UNL     1       6.479  32.421  61.980  1.00  0.00     0.014 A 
HETATM   26  S   UNL     1       5.440  32.937  63.253  1.00  0.00    -0.104 SA
HETATM   27  C   UNL     1       6.740  33.114  64.343  1.00  0.00     0.050 A 
HETATM   28  C   UNL     1       7.948  32.808  63.759  1.00  0.00     0.008 A 
HETATM   29  C   UNL     1       7.797  32.414  62.399  1.00  0.00     0.017 A 
ENDBRANCH  20  25
ENDBRANCH  19  20
ENDBRANCH   3  19
TORSDOF 5
ENDMDL
MODEL 10
REMARK VINA RESULT:      -7.5      4.466      8.228
REMARK  5 active torsions:
REMARK  status: ('A' for Active; 'I' for Inactive)
REMARK    1  A    between atoms: C_11  and  N_12 
REMARK       I    between atoms: N_12  and  C_13 
REMARK       I    between atoms: C_13  and  N_14 
REMARK    2  A    between atoms: N_14  and  C_15 
REMARK    3  A    between atoms: C_15  and  C_16 
REMARK    4  A    between atoms: C_16  and  N_17 
REMARK    5  A    between atoms: C_16  and  C_21 
ROOT
HETATM    1  N   UNL     1       7.088  27.468  55.298  1.00  0.00    -0.314 N 
HETATM    2  C   UNL     1       6.150  28.064  54.522  1.00  0.00     0.298 C 
HETATM    3  N   UNL     1       5.370  27.290  53.722  1.00  0.00    -0.242 NA
HETATM    4  O   UNL     1       5.995  29.281  54.595  1.00  0.00    -0.254 OA
HETATM    5  H   UNL     1       7.646  28.173  55.773  1.00  0.00     0.170 HD
HETATM    6  H   UNL     1       5.929  26.571  53.277  1.00  0.00     0.132 HD
ENDROOT
BRANCH   1   7
HETATM    7  C   UNL     1       7.370  26.137  55.668  1.00  0.00     0.038 A 
HETATM    8  C   UNL     1       7.733  25.706  56.938  1.00  0.00     0.032 A 
HETATM    9  C   UNL     1       8.045  24.359  57.165  1.00  0.00     0.036 A 
HETATM   10  C   UNL     1       8.022  23.426  56.141  1.00  0.00     0.086 A 
HETATM   11  N   UNL     1       8.364  22.153  56.396  1.00  0.00    -0.250 NA
HETATM   12  C   UNL     1       7.656  23.848  54.848  1.00  0.00     0.088 A 
HETATM   13  C   UNL     1       8.348  21.286  55.352  1.00  0.00     0.055 A 
HETATM   14  C   UNL     1       8.749  19.873  55.651  1.00  0.00     0.072 C 
HETATM   15  C   UNL     1       7.990  21.702  54.069  1.00  0.00     0.055 A 
HETATM   16  N   UNL     1       7.638  22.989  53.816  1.00  0.00    -0.250 NA
HETATM   17  C   UNL     1       7.984  20.764  52.900  1.00  0.00     0.072 C 
HETATM   18  C   UNL     1       7.329  25.185  54.640  1.00  0.00     0.063 A 
ENDBRANCH   1   7
BRANCH   3  19
HETATM   19  C   UNL     1       4.383  27.905  52.835  1.00  0.00     0.135 C 
BRANCH  19  20
HETATM   20  C   UNL     1       4.875  28.489  51.473  1.00  0.00     0.240 C 
BRANCH  20  21
HETATM   21  N   UNL     1       5.246  29.969  51.450  1.00  0.00    -0.069 N 
HETATM   22  H   UNL     1       6.065  30.009  52.069  1.00  0.00     0.279 HD
HETATM   23  C   UNL     1       5.737  30.541  50.155  1.00  0.00     0.270 C 
HETATM   24  C   UNL     1       4.220  30.855  52.096  1.00  0.00     0.270 C 
ENDBRANCH  20  21
BRANCH  20  25
HETATM   25  C   UNL     1       3.998  28.116  50.293  1.00  0.00     0.014 A 
HETATM   26  S   UNL     1       4.584  26.961  49.157  1.00  0.00    -0.104 SA
HETATM   27  C   UNL     1       3.171  27.067  48.208  1.00  0.00     0.050 A 
HETATM   28  C   UNL     1       2.271  27.972  48.722  1.00  0.00     0.008 A 
HETATM   29  C   UNL     1       2.749  28.578  49.919  1.00  0.00     0.017 A 
ENDBRANCH  20  25
ENDBRANCH  19  20
ENDBRANCH   3  19
TORSDOF 5
ENDMDL
