MODEL 1
REMARK VINA RESULT:     -10.5      0.000      0.000
REMARK  8 active torsions:
REMARK  status: ('A' for Active; 'I' for Inactive)
REMARK    1  A    between atoms: O_2  and  C_3 
REMARK    2  A    between atoms: C_11  and  C_12 
REMARK       I    between atoms: C_12  and  N_13 
REMARK    3  A    between atoms: N_13  and  C_14 
REMARK    4  A    between atoms: C_14  and  C_15 
REMARK    5  A    between atoms: C_15  and  C_16 
REMARK    6  A    between atoms: C_16  and  C_17 
REMARK    7  A    between atoms: C_17  and  O_18 
REMARK    8  A    between atoms: O_18  and  C_19 
ROOT
HETATM    1  C   UNL     1       9.186  31.559  58.893  1.00  0.00     0.268 C 
HETATM    2  N   UNL     1       8.713  30.531  58.122  1.00  0.00    -0.345 N 
HETATM    3  O   UNL     1      10.239  32.079  58.521  1.00  0.00    -0.266 OA
HETATM    4  H   UNL     1       9.345  30.341  57.354  1.00  0.00     0.163 HD
ENDROOT
BRANCH   2   5
HETATM    5  C   UNL     1       7.542  29.695  58.220  1.00  0.00     0.217 C 
BRANCH   5   6
HETATM    6  C   UNL     1       7.820  28.263  57.791  1.00  0.00    -0.085 C 
BRANCH   6   7
HETATM    7  C   UNL     1       8.058  27.035  57.424  1.00  0.00    -0.078 C 
BRANCH   7   8
HETATM    8  C   UNL     1       8.335  25.603  56.997  1.00  0.00     0.269 C 
BRANCH   8   9
HETATM    9  O   UNL     1       7.220  25.120  56.261  1.00  0.00    -0.337 OA
BRANCH   9  10
HETATM   10  C   UNL     1       7.420  24.768  54.942  1.00  0.00     0.099 A 
HETATM   11  C   UNL     1       7.601  23.392  54.704  1.00  0.00     0.100 A 
HETATM   12  C   UNL     1       7.824  22.975  53.371  1.00  0.00    -0.005 A 
HETATM   13  N   UNL     1       7.563  22.487  55.711  1.00  0.00    -0.257 NA
HETATM   14  C   UNL     1       8.003  21.609  53.114  1.00  0.00     0.015 A 
HETATM   15  C   UNL     1       7.866  23.909  52.325  1.00  0.00     0.014 A 
HETATM   16  C   UNL     1       7.956  20.694  54.156  1.00  0.00     0.020 A 
HETATM   17  C   UNL     1       7.734  21.179  55.428  1.00  0.00     0.117 A 
HETATM   18  C   UNL     1       7.686  25.263  52.584  1.00  0.00     0.004 A 
HETATM   19  C   UNL     1       7.463  25.694  53.888  1.00  0.00     0.039 A 
ENDBRANCH   9  10
ENDBRANCH   8   9
ENDBRANCH   7   8
ENDBRANCH   6   7
ENDBRANCH   5   6
ENDBRANCH   2   5
BRANCH   1  20
HETATM   20  C   UNL     1       8.512  31.972  60.105  1.00  0.00     0.102 A 
HETATM   21  N   UNL     1       7.176  32.243  60.286  1.00  0.00    -0.351 N 
HETATM   22  C   UNL     1       6.887  32.477  61.612  1.00  0.00     0.045 A 
HETATM   23  H   UNL     1       6.476  32.216  59.564  1.00  0.00     0.166 HD
HETATM   24  C   UNL     1       5.653  32.680  62.248  1.00  0.00     0.067 A 
HETATM   25  C   UNL     1       8.099  32.480  62.294  1.00  0.00    -0.007 A 
HETATM   26  C   UNL     1       5.664  32.879  63.634  1.00  0.00     0.070 A 
HETATM   27  C   UNL     1       6.873  32.911  64.332  1.00  0.00     0.038 A 
HETATM   28  C   UNL     1       8.097  32.714  63.679  1.00  0.00     0.016 A 
HETATM   29  C   UNL     1       9.110  32.203  61.337  1.00  0.00     0.049 A 
BRANCH  26  30
HETATM   30  O   UNL     1       4.554  33.066  64.415  1.00  0.00    -0.356 OA
HETATM   31  C   UNL     1       4.734  33.817  65.607  1.00  0.00     0.210 C 
ENDBRANCH  26  30
ENDBRANCH   1  20
TORSDOF 8
ENDMDL
MODEL 2
REMARK VINA RESULT:      -9.7      1.047      2.051
REMARK  8 active torsions:
REMARK  status: ('A' for Active; 'I' for Inactive)
REMARK    1  A    between atoms: O_2  and  C_3 
REMARK    2  A    between atoms: C_11  and  C_12 
REMARK       I    between atoms: C_12  and  N_13 
REMARK    3  A    between atoms: N_13  and  C_14 
REMARK    4  A    between atoms: C_14  and  C_15 
REMARK    5  A    between atoms: C_15  and  C_16 
REMARK    6  A    between atoms: C_16  and  C_17 
REMARK    7  A    between atoms: C_17  and  O_18 
REMARK    8  A    between atoms: O_18  and  C_19 
ROOT
HETATM    1  C   UNL     1       9.309  31.607  58.935  1.00  0.00     0.268 C 
HETATM    2  N   UNL     1       8.683  30.766  58.053  1.00  0.00    -0.345 N 
HETATM    3  O   UNL     1      10.481  31.887  58.681  1.00  0.00    -0.266 OA
HETATM    4  H   UNL     1       9.319  30.481  57.320  1.00  0.00     0.163 HD
ENDROOT
BRANCH   2   5
HETATM    5  C   UNL     1       7.348  30.224  58.000  1.00  0.00     0.217 C 
BRANCH   5   6
HETATM    6  C   UNL     1       7.347  28.708  57.889  1.00  0.00    -0.085 C 
BRANCH   6   7
HETATM    7  C   UNL     1       7.346  27.408  57.793  1.00  0.00    -0.078 C 
BRANCH   7   8
HETATM    8  C   UNL     1       7.344  25.891  57.682  1.00  0.00     0.269 C 
BRANCH   8   9
HETATM    9  O   UNL     1       8.413  25.494  56.835  1.00  0.00    -0.337 OA
BRANCH   9  10
HETATM   10  C   UNL     1       8.299  24.287  56.177  1.00  0.00     0.099 A 
HETATM   11  C   UNL     1       8.052  24.373  54.793  1.00  0.00     0.100 A 
HETATM   12  C   UNL     1       7.914  23.165  54.069  1.00  0.00    -0.005 A 
HETATM   13  N   UNL     1       7.950  25.568  54.163  1.00  0.00    -0.257 NA
HETATM   14  C   UNL     1       7.670  23.231  52.691  1.00  0.00     0.015 A 
HETATM   15  C   UNL     1       8.017  21.925  54.717  1.00  0.00     0.014 A 
HETATM   16  C   UNL     1       7.574  24.464  52.060  1.00  0.00     0.020 A 
HETATM   17  C   UNL     1       7.721  25.595  52.834  1.00  0.00     0.117 A 
HETATM   18  C   UNL     1       8.260  21.864  56.084  1.00  0.00     0.004 A 
HETATM   19  C   UNL     1       8.401  23.041  56.814  1.00  0.00     0.039 A 
ENDBRANCH   9  10
ENDBRANCH   8   9
ENDBRANCH   7   8
ENDBRANCH   6   7
ENDBRANCH   5   6
ENDBRANCH   2   5
BRANCH   1  20
HETATM   20  C   UNL     1       8.643  32.091  60.125  1.00  0.00     0.102 A 
HETATM   21  N   UNL     1       7.418  32.707  60.224  1.00  0.00    -0.351 N 
HETATM   22  C   UNL     1       7.060  32.904  61.538  1.00  0.00     0.045 A 
HETATM   23  H   UNL     1       6.818  32.935  59.447  1.00  0.00     0.166 HD
HETATM   24  C   UNL     1       5.864  33.391  62.090  1.00  0.00     0.067 A 
HETATM   25  C   UNL     1       8.147  32.515  62.314  1.00  0.00    -0.007 A 
HETATM   26  C   UNL     1       5.778  33.467  63.485  1.00  0.00     0.070 A 
HETATM   27  C   UNL     1       6.868  33.104  64.280  1.00  0.00     0.038 A 
HETATM   28  C   UNL     1       8.057  32.628  63.712  1.00  0.00     0.016 A 
HETATM   29  C   UNL     1       9.143  32.046  61.419  1.00  0.00     0.049 A 
BRANCH  26  30
HETATM   30  O   UNL     1       4.681  33.891  64.187  1.00  0.00    -0.356 OA
HETATM   31  C   UNL     1       4.755  33.792  65.603  1.00  0.00     0.210 C 
ENDBRANCH  26  30
ENDBRANCH   1  20
TORSDOF 8
ENDMDL
MODEL 3
REMARK VINA RESULT:      -9.4      2.248     10.982
REMARK  8 active torsions:
REMARK  status: ('A' for Active; 'I' for Inactive)
REMARK    1  A    between atoms: O_2  and  C_3 
REMARK    2  A    between atoms: C_11  and  C_12 
REMARK       I    between atoms: C_12  and  N_13 
REMARK    3  A    between atoms: N_13  and  C_14 
REMARK    4  A    between atoms: C_14  and  C_15 
REMARK    5  A    between atoms: C_15  and  C_16 
REMARK    6  A    between atoms: C_16  and  C_17 
REMARK    7  A    between atoms: C_17  and  O_18 
REMARK    8  A    between atoms: O_18  and  C_19 
ROOT
HETATM    1  C   UNL     1       5.904  27.851  55.460  1.00  0.00     0.268 C 
HETATM    2  N   UNL     1       6.296  28.413  56.646  1.00  0.00    -0.345 N 
HETATM    3  O   UNL     1       5.016  28.443  54.845  1.00  0.00    -0.266 OA
HETATM    4  H   UNL     1       5.754  29.243  56.844  1.00  0.00     0.163 HD
ENDROOT
BRANCH   2   5
HETATM    5  C   UNL     1       7.284  28.034  57.627  1.00  0.00     0.217 C 
BRANCH   5   6
HETATM    6  C   UNL     1       8.269  29.155  57.914  1.00  0.00    -0.085 C 
BRANCH   6   7
HETATM    7  C   UNL     1       9.114  30.117  58.160  1.00  0.00    -0.078 C 
BRANCH   7   8
HETATM    8  C   UNL     1      10.098  31.239  58.448  1.00  0.00     0.269 C 
BRANCH   8   9
HETATM    9  O   UNL     1       9.382  32.363  58.937  1.00  0.00    -0.337 OA
BRANCH   9  10
HETATM   10  C   UNL     1       8.739  32.240  60.151  1.00  0.00     0.099 A 
HETATM   11  C   UNL     1       7.337  32.369  60.109  1.00  0.00     0.100 A 
HETATM   12  C   UNL     1       6.626  32.264  61.328  1.00  0.00    -0.005 A 
HETATM   13  N   UNL     1       6.679  32.583  58.945  1.00  0.00    -0.257 NA
HETATM   14  C   UNL     1       5.230  32.386  61.305  1.00  0.00     0.015 A 
HETATM   15  C   UNL     1       7.303  32.043  62.537  1.00  0.00     0.014 A 
HETATM   16  C   UNL     1       4.570  32.601  60.103  1.00  0.00     0.020 A 
HETATM   17  C   UNL     1       5.334  32.691  58.959  1.00  0.00     0.117 A 
HETATM   18  C   UNL     1       8.688  31.921  62.554  1.00  0.00     0.004 A 
HETATM   19  C   UNL     1       9.406  32.019  61.366  1.00  0.00     0.039 A 
ENDBRANCH   9  10
ENDBRANCH   8   9
ENDBRANCH   7   8
ENDBRANCH   6   7
ENDBRANCH   5   6
ENDBRANCH   2   5
BRANCH   1  20
HETATM   20  C   UNL     1       6.464  26.604  54.987  1.00  0.00     0.102 A 
HETATM   21  N   UNL     1       6.607  25.421  55.673  1.00  0.00    -0.351 N 
HETATM   22  C   UNL     1       7.061  24.415  54.850  1.00  0.00     0.045 A 
HETATM   23  H   UNL     1       6.357  25.275  56.638  1.00  0.00     0.166 HD
HETATM   24  C   UNL     1       7.239  23.046  55.104  1.00  0.00     0.067 A 
HETATM   25  C   UNL     1       7.340  24.998  53.618  1.00  0.00    -0.007 A 
HETATM   26  C   UNL     1       7.707  22.248  54.053  1.00  0.00     0.070 A 
HETATM   27  C   UNL     1       8.016  22.819  52.817  1.00  0.00     0.038 A 
HETATM   28  C   UNL     1       7.840  24.190  52.583  1.00  0.00     0.016 A 
HETATM   29  C   UNL     1       7.001  26.372  53.728  1.00  0.00     0.049 A 
BRANCH  26  30
HETATM   30  O   UNL     1       7.911  20.895  54.118  1.00  0.00    -0.356 OA
HETATM   31  C   UNL     1       8.645  20.311  53.051  1.00  0.00     0.210 C 
ENDBRANCH  26  30
ENDBRANCH   1  20
TORSDOF 8
ENDMDL
MODEL 4
REMARK VINA RESULT:      -9.1      4.302      7.426
REMARK  8 active torsions:
REMARK  status: ('A' for Active; 'I' for Inactive)
REMARK    1  A    between atoms: O_2  and  C_3 
REMARK    2  A    between atoms: C_11  and  C_12 
REMARK       I    between atoms: C_12  and  N_13 
REMARK    3  A    between atoms: N_13  and  C_14 
REMARK    4  A    between atoms: C_14  and  C_15 
REMARK    5  A    between atoms: C_15  and  C_16 
REMARK    6  A    between atoms: C_16  and  C_17 
REMARK    7  A    between atoms: C_17  and  O_18 
REMARK    8  A    between atoms: O_18  and  C_19 
ROOT
HETATM    1  C   UNL     1       5.700  29.721  57.125  1.00  0.00     0.268 C 
HETATM    2  N   UNL     1       6.922  29.619  57.734  1.00  0.00    -0.345 N 
HETATM    3  O   UNL     1       4.825  30.314  57.758  1.00  0.00    -0.266 OA
HETATM    4  H   UNL     1       6.900  30.043  58.652  1.00  0.00     0.163 HD
ENDROOT
BRANCH   2   5
HETATM    5  C   UNL     1       8.170  29.021  57.326  1.00  0.00     0.217 C 
BRANCH   5   6
HETATM    6  C   UNL     1       8.113  27.502  57.344  1.00  0.00    -0.085 C 
BRANCH   6   7
HETATM    7  C   UNL     1       8.063  26.200  57.358  1.00  0.00    -0.078 C 
BRANCH   7   8
HETATM    8  C   UNL     1       8.006  24.680  57.376  1.00  0.00     0.269 C 
BRANCH   8   9
HETATM    9  O   UNL     1       8.954  24.175  56.447  1.00  0.00    -0.337 OA
BRANCH   9  10
HETATM   10  C   UNL     1       8.508  23.854  55.181  1.00  0.00     0.099 A 
HETATM   11  C   UNL     1       8.591  22.490  54.838  1.00  0.00     0.100 A 
HETATM   12  C   UNL     1       8.160  22.105  53.548  1.00  0.00    -0.005 A 
HETATM   13  N   UNL     1       9.065  21.568  55.709  1.00  0.00    -0.257 NA
HETATM   14  C   UNL     1       8.232  20.752  53.190  1.00  0.00     0.015 A 
HETATM   15  C   UNL     1       7.670  23.058  52.641  1.00  0.00     0.014 A 
HETATM   16  C   UNL     1       8.716  19.818  54.095  1.00  0.00     0.020 A 
HETATM   17  C   UNL     1       9.116  20.273  55.334  1.00  0.00     0.117 A 
HETATM   18  C   UNL     1       7.598  24.398  53.001  1.00  0.00     0.004 A 
HETATM   19  C   UNL     1       8.015  24.798  54.267  1.00  0.00     0.039 A 
ENDBRANCH   9  10
ENDBRANCH   8   9
ENDBRANCH   7   8
ENDBRANCH   6   7
ENDBRANCH   5   6
ENDBRANCH   2   5
BRANCH   1  20
HETATM   20  C   UNL     1       5.439  29.118  55.837  1.00  0.00     0.102 A 
HETATM   21  N   UNL     1       5.568  29.684  54.590  1.00  0.00    -0.351 N 
HETATM   22  C   UNL     1       5.358  28.757  53.594  1.00  0.00     0.045 A 
HETATM   23  H   UNL     1       5.842  30.636  54.411  1.00  0.00     0.166 HD
HETATM   24  C   UNL     1       5.496  28.875  52.202  1.00  0.00     0.067 A 
HETATM   25  C   UNL     1       4.958  27.580  54.217  1.00  0.00    -0.007 A 
HETATM   26  C   UNL     1       5.226  27.741  51.426  1.00  0.00     0.070 A 
HETATM   27  C   UNL     1       4.798  26.558  52.031  1.00  0.00     0.038 A 
HETATM   28  C   UNL     1       4.659  26.460  53.422  1.00  0.00     0.016 A 
HETATM   29  C   UNL     1       4.974  27.829  55.614  1.00  0.00     0.049 A 
BRANCH  26  30
HETATM   30  O   UNL     1       5.335  27.672  50.062  1.00  0.00    -0.356 OA
HETATM   31  C   UNL     1       4.724  26.555  49.431  1.00  0.00     0.210 C 
ENDBRANCH  26  30
ENDBRANCH   1  20
TORSDOF 8
ENDMDL
MODEL 5
REMARK VINA RESULT:      -8.8      2.404     11.449
REMARK  8 active torsions:
REMARK  status: ('A' for Active; 'I' for Inactive)
REMARK    1  A    between atoms: O_2  and  C_3 
REMARK    2  A    between atoms: C_11  and  C_12 
REMARK       I    between atoms: C_12  and  N_13 
REMARK    3  A    between atoms: N_13  and  C_14 
REMARK    4  A    between atoms: C_14  and  C_15 
REMARK    5  A    between atoms: C_15  and  C_16 
REMARK    6  A    between atoms: C_16  and  C_17 
REMARK    7  A    between atoms: C_17  and  O_18 
REMARK    8  A    between atoms: O_18  and  C_19 
ROOT
HETATM    1  C   UNL     1       4.779  27.840  54.097  1.00  0.00     0.268 C 
HETATM    2  N   UNL     1       5.125  28.907  54.883  1.00  0.00    -0.345 N 
HETATM    3  O   UNL     1       3.706  27.930  53.499  1.00  0.00    -0.266 OA
HETATM    4  H   UNL     1       4.402  29.614  54.863  1.00  0.00     0.163 HD
ENDROOT
BRANCH   2   5
HETATM    5  C   UNL     1       6.273  29.176  55.714  1.00  0.00     0.217 C 
BRANCH   5   6
HETATM    6  C   UNL     1       5.946  30.119  56.859  1.00  0.00    -0.085 C 
BRANCH   6   7
HETATM    7  C   UNL     1       5.664  30.928  57.842  1.00  0.00    -0.078 C 
BRANCH   7   8
HETATM    8  C   UNL     1       5.336  31.871  58.989  1.00  0.00     0.269 C 
BRANCH   8   9
HETATM    9  O   UNL     1       6.496  32.624  59.310  1.00  0.00    -0.337 OA
BRANCH   9  10
HETATM   10  C   UNL     1       7.332  32.135  60.292  1.00  0.00     0.099 A 
HETATM   11  C   UNL     1       7.181  32.723  61.563  1.00  0.00     0.100 A 
HETATM   12  C   UNL     1       8.022  32.268  62.606  1.00  0.00    -0.005 A 
HETATM   13  N   UNL     1       6.263  33.692  61.792  1.00  0.00    -0.257 NA
HETATM   14  C   UNL     1       7.884  32.840  63.878  1.00  0.00     0.015 A 
HETATM   15  C   UNL     1       8.975  31.266  62.374  1.00  0.00     0.014 A 
HETATM   16  C   UNL     1       6.935  33.829  64.097  1.00  0.00     0.020 A 
HETATM   17  C   UNL     1       6.154  34.217  63.030  1.00  0.00     0.117 A 
HETATM   18  C   UNL     1       9.107  30.700  61.111  1.00  0.00     0.004 A 
HETATM   19  C   UNL     1       8.288  31.132  60.071  1.00  0.00     0.039 A 
ENDBRANCH   9  10
ENDBRANCH   8   9
ENDBRANCH   7   8
ENDBRANCH   6   7
ENDBRANCH   5   6
ENDBRANCH   2   5
BRANCH   1  20
HETATM   20  C   UNL     1       5.603  26.653  54.021  1.00  0.00     0.102 A 
HETATM   21  N   UNL     1       5.871  25.737  55.011  1.00  0.00    -0.351 N 
HETATM   22  C   UNL     1       6.589  24.669  54.525  1.00  0.00     0.045 A 
HETATM   23  H   UNL     1       5.539  25.795  55.960  1.00  0.00     0.166 HD
HETATM   24  C   UNL     1       6.976  23.474  55.154  1.00  0.00     0.067 A 
HETATM   25  C   UNL     1       6.903  24.962  53.203  1.00  0.00    -0.007 A 
HETATM   26  C   UNL     1       7.697  22.546  54.394  1.00  0.00     0.070 A 
HETATM   27  C   UNL     1       8.044  22.834  53.072  1.00  0.00     0.038 A 
HETATM   28  C   UNL     1       7.657  24.034  52.463  1.00  0.00     0.016 A 
HETATM   29  C   UNL     1       6.316  26.221  52.911  1.00  0.00     0.049 A 
BRANCH  26  30
HETATM   30  O   UNL     1       8.129  21.325  54.840  1.00  0.00    -0.356 OA
HETATM   31  C   UNL     1       8.378  20.338  53.848  1.00  0.00     0.210 C 
ENDBRANCH  26  30
ENDBRANCH   1  20
TORSDOF 8
ENDMDL
MODEL 6
REMARK VINA RESULT:      -8.7      2.034     11.568
REMARK  8 active torsions:
REMARK  status: ('A' for Active; 'I' for Inactive)
REMARK    1  A    between atoms: O_2  and  C_3 
REMARK    2  A    between atoms: C_11  and  C_12 
REMARK       I    between atoms: C_12  and  N_13 
REMARK    3  A    between atoms: N_13  and  C_14 
REMARK    4  A    between atoms: C_14  and  C_15 
REMARK    5  A    between atoms: C_15  and  C_16 
REMARK    6  A    between atoms: C_16  and  C_17 
REMARK    7  A    between atoms: C_17  and  O_18 
REMARK    8  A    between atoms: O_18  and  C_19 
ROOT
HETATM    1  C   UNL     1       5.870  27.286  56.083  1.00  0.00     0.268 C 
HETATM    2  N   UNL     1       6.646  28.238  56.690  1.00  0.00    -0.345 N 
HETATM    3  O   UNL     1       4.654  27.479  56.108  1.00  0.00    -0.266 OA
HETATM    4  H   UNL     1       6.069  28.961  57.098  1.00  0.00     0.163 HD
ENDROOT
BRANCH   2   5
HETATM    5  C   UNL     1       8.072  28.372  56.862  1.00  0.00     0.217 C 
BRANCH   5   6
HETATM    6  C   UNL     1       8.428  29.318  57.997  1.00  0.00    -0.085 C 
BRANCH   6   7
HETATM    7  C   UNL     1       8.733  30.129  58.971  1.00  0.00    -0.078 C 
BRANCH   7   8
HETATM    8  C   UNL     1       9.088  31.076  60.106  1.00  0.00     0.269 C 
BRANCH   8   9
HETATM    9  O   UNL     1       8.076  30.999  61.100  1.00  0.00    -0.337 OA
BRANCH   9  10
HETATM   10  C   UNL     1       7.110  31.984  61.114  1.00  0.00     0.099 A 
HETATM   11  C   UNL     1       7.010  32.716  62.314  1.00  0.00     0.100 A 
HETATM   12  C   UNL     1       6.027  33.730  62.389  1.00  0.00    -0.005 A 
HETATM   13  N   UNL     1       7.825  32.467  63.367  1.00  0.00    -0.257 NA
HETATM   14  C   UNL     1       5.914  34.471  63.573  1.00  0.00     0.015 A 
HETATM   15  C   UNL     1       5.180  33.990  61.301  1.00  0.00     0.014 A 
HETATM   16  C   UNL     1       6.760  34.207  64.642  1.00  0.00     0.020 A 
HETATM   17  C   UNL     1       7.693  33.203  64.489  1.00  0.00     0.117 A 
HETATM   18  C   UNL     1       5.296  33.254  60.128  1.00  0.00     0.004 A 
HETATM   19  C   UNL     1       6.258  32.253  60.032  1.00  0.00     0.039 A 
ENDBRANCH   9  10
ENDBRANCH   8   9
ENDBRANCH   7   8
ENDBRANCH   6   7
ENDBRANCH   5   6
ENDBRANCH   2   5
BRANCH   1  20
HETATM   20  C   UNL     1       6.447  26.097  55.496  1.00  0.00     0.102 A 
HETATM   21  N   UNL     1       6.674  24.878  56.092  1.00  0.00    -0.351 N 
HETATM   22  C   UNL     1       7.115  23.947  55.178  1.00  0.00     0.045 A 
HETATM   23  H   UNL     1       6.488  24.660  57.057  1.00  0.00     0.166 HD
HETATM   24  C   UNL     1       7.358  22.573  55.328  1.00  0.00     0.067 A 
HETATM   25  C   UNL     1       7.298  24.620  53.974  1.00  0.00    -0.007 A 
HETATM   26  C   UNL     1       7.791  21.865  54.201  1.00  0.00     0.070 A 
HETATM   27  C   UNL     1       8.005  22.527  52.991  1.00  0.00     0.038 A 
HETATM   28  C   UNL     1       7.764  23.901  52.860  1.00  0.00     0.016 A 
HETATM   29  C   UNL     1       6.916  25.969  54.195  1.00  0.00     0.049 A 
BRANCH  26  30
HETATM   30  O   UNL     1       8.049  20.520  54.163  1.00  0.00    -0.356 OA
HETATM   31  C   UNL     1       8.933  20.014  55.155  1.00  0.00     0.210 C 
ENDBRANCH  26  30
ENDBRANCH   1  20
TORSDOF 8
ENDMDL
MODEL 7
REMARK VINA RESULT:      -8.6      2.441     10.407
REMARK  8 active torsions:
REMARK  status: ('A' for Active; 'I' for Inactive)
REMARK    1  A    between atoms: O_2  and  C_3 
REMARK    2  A    between atoms: C_11  and  C_12 
REMARK       I    between atoms: C_12  and  N_13 
REMARK    3  A    between atoms: N_13  and  C_14 
REMARK    4  A    between atoms: C_14  and  C_15 
REMARK    5  A    between atoms: C_15  and  C_16 
REMARK    6  A    between atoms: C_16  and  C_17 
REMARK    7  A    between atoms: C_17  and  O_18 
REMARK    8  A    between atoms: O_18  and  C_19 
ROOT
HETATM    1  C   UNL     1       9.524  31.501  59.128  1.00  0.00     0.268 C 
HETATM    2  N   UNL     1       9.549  31.638  60.491  1.00  0.00    -0.345 N 
HETATM    3  O   UNL     1      10.182  32.322  58.487  1.00  0.00    -0.266 OA
HETATM    4  H   UNL     1      10.107  32.438  60.759  1.00  0.00     0.163 HD
ENDROOT
BRANCH   2   5
HETATM    5  C   UNL     1       8.931  30.891  61.559  1.00  0.00     0.217 C 
BRANCH   5   6
HETATM    6  C   UNL     1       8.382  31.795  62.650  1.00  0.00    -0.085 C 
BRANCH   6   7
HETATM    7  C   UNL     1       7.911  32.572  63.586  1.00  0.00    -0.078 C 
BRANCH   7   8
HETATM    8  C   UNL     1       7.362  33.477  64.677  1.00  0.00     0.269 C 
BRANCH   8   9
HETATM    9  O   UNL     1       5.965  33.638  64.478  1.00  0.00    -0.337 OA
BRANCH   9  10
HETATM   10  C   UNL     1       5.550  34.531  63.512  1.00  0.00     0.099 A 
HETATM   11  C   UNL     1       4.796  33.977  62.459  1.00  0.00     0.100 A 
HETATM   12  C   UNL     1       4.355  34.845  61.433  1.00  0.00    -0.005 A 
HETATM   13  N   UNL     1       4.495  32.657  62.421  1.00  0.00    -0.257 NA
HETATM   14  C   UNL     1       3.600  34.312  60.379  1.00  0.00     0.015 A 
HETATM   15  C   UNL     1       4.666  36.213  61.467  1.00  0.00     0.014 A 
HETATM   16  C   UNL     1       3.296  32.958  60.357  1.00  0.00     0.020 A 
HETATM   17  C   UNL     1       3.762  32.178  61.394  1.00  0.00     0.117 A 
HETATM   18  C   UNL     1       5.412  36.737  62.516  1.00  0.00     0.004 A 
HETATM   19  C   UNL     1       5.854  35.901  63.536  1.00  0.00     0.039 A 
ENDBRANCH   9  10
ENDBRANCH   8   9
ENDBRANCH   7   8
ENDBRANCH   6   7
ENDBRANCH   5   6
ENDBRANCH   2   5
BRANCH   1  20
HETATM   20  C   UNL     1       8.725  30.484  58.481  1.00  0.00     0.102 A 
HETATM   21  N   UNL     1       9.147  29.305  57.912  1.00  0.00    -0.351 N 
HETATM   22  C   UNL     1       8.080  28.532  57.513  1.00  0.00     0.045 A 
HETATM   23  H   UNL     1      10.104  29.003  57.844  1.00  0.00     0.166 HD
HETATM   24  C   UNL     1       8.049  27.228  56.994  1.00  0.00     0.067 A 
HETATM   25  C   UNL     1       6.933  29.290  57.719  1.00  0.00    -0.007 A 
HETATM   26  C   UNL     1       6.797  26.681  56.689  1.00  0.00     0.070 A 
HETATM   27  C   UNL     1       5.636  27.436  56.865  1.00  0.00     0.038 A 
HETATM   28  C   UNL     1       5.685  28.740  57.377  1.00  0.00     0.016 A 
HETATM   29  C   UNL     1       7.351  30.522  58.287  1.00  0.00     0.049 A 
BRANCH  26  30
HETATM   30  O   UNL     1       6.583  25.419  56.202  1.00  0.00    -0.356 OA
HETATM   31  C   UNL     1       7.698  24.769  55.608  1.00  0.00     0.210 C 
ENDBRANCH  26  30
ENDBRANCH   1  20
TORSDOF 8
ENDMDL
MODEL 8
REMARK VINA RESULT:      -8.6      2.077     11.289
REMARK  8 active torsions:
REMARK  status: ('A' for Active; 'I' for Inactive)
REMARK    1  A    between atoms: O_2  and  C_3 
REMARK    2  A    between atoms: C_11  and  C_12 
REMARK       I    between atoms: C_12  and  N_13 
REMARK    3  A    between atoms: N_13  and  C_14 
REMARK    4  A    between atoms: C_14  and  C_15 
REMARK    5  A    between atoms: C_15  and  C_16 
REMARK    6  A    between atoms: C_16  and  C_17 
REMARK    7  A    between atoms: C_17  and  O_18 
REMARK    8  A    between atoms: O_18  and  C_19 
ROOT
HETATM    1  C   UNL     1       6.977  28.112  54.864  1.00  0.00     0.268 C 
HETATM    2  N   UNL     1       7.763  29.076  55.439  1.00  0.00    -0.345 N 
HETATM    3  O   UNL     1       5.991  28.513  54.245  1.00  0.00    -0.266 OA
HETATM    4  H   UNL     1       7.377  29.996  55.275  1.00  0.00     0.163 HD
ENDROOT
BRANCH   2   5
HETATM    5  C   UNL     1       8.974  29.010  56.219  1.00  0.00     0.217 C 
BRANCH   5   6
HETATM    6  C   UNL     1       8.909  29.889  57.457  1.00  0.00    -0.085 C 
BRANCH   6   7
HETATM    7  C   UNL     1       8.853  30.643  58.520  1.00  0.00    -0.078 C 
BRANCH   7   8
HETATM    8  C   UNL     1       8.788  31.522  59.759  1.00  0.00     0.269 C 
BRANCH   8   9
HETATM    9  O   UNL     1       7.493  31.411  60.332  1.00  0.00    -0.337 OA
BRANCH   9  10
HETATM   10  C   UNL     1       7.282  31.991  61.565  1.00  0.00     0.099 A 
HETATM   11  C   UNL     1       5.971  32.450  61.802  1.00  0.00     0.100 A 
HETATM   12  C   UNL     1       5.701  33.066  63.046  1.00  0.00    -0.005 A 
HETATM   13  N   UNL     1       4.992  32.309  60.876  1.00  0.00    -0.257 NA
HETATM   14  C   UNL     1       4.401  33.526  63.300  1.00  0.00     0.015 A 
HETATM   15  C   UNL     1       6.712  33.216  64.007  1.00  0.00     0.014 A 
HETATM   16  C   UNL     1       3.408  33.369  62.343  1.00  0.00     0.020 A 
HETATM   17  C   UNL     1       3.752  32.758  61.156  1.00  0.00     0.117 A 
HETATM   18  C   UNL     1       7.998  32.757  63.751  1.00  0.00     0.004 A 
HETATM   19  C   UNL     1       8.285  32.146  62.534  1.00  0.00     0.039 A 
ENDBRANCH   9  10
ENDBRANCH   8   9
ENDBRANCH   7   8
ENDBRANCH   6   7
ENDBRANCH   5   6
ENDBRANCH   2   5
BRANCH   1  20
HETATM   20  C   UNL     1       7.262  26.703  55.026  1.00  0.00     0.102 A 
HETATM   21  N   UNL     1       7.227  25.713  54.072  1.00  0.00    -0.351 N 
HETATM   22  C   UNL     1       7.690  24.517  54.573  1.00  0.00     0.045 A 
HETATM   23  H   UNL     1       6.960  25.843  53.110  1.00  0.00     0.166 HD
HETATM   24  C   UNL     1       7.926  23.294  53.926  1.00  0.00     0.067 A 
HETATM   25  C   UNL     1       7.915  24.710  55.932  1.00  0.00    -0.007 A 
HETATM   26  C   UNL     1       8.423  22.238  54.700  1.00  0.00     0.070 A 
HETATM   27  C   UNL     1       8.631  22.405  56.070  1.00  0.00     0.038 A 
HETATM   28  C   UNL     1       8.383  23.631  56.701  1.00  0.00     0.016 A 
HETATM   29  C   UNL     1       7.607  26.067  56.211  1.00  0.00     0.049 A 
BRANCH  26  30
HETATM   30  O   UNL     1       8.733  20.990  54.228  1.00  0.00    -0.356 OA
HETATM   31  C   UNL     1       8.225  20.651  52.945  1.00  0.00     0.210 C 
ENDBRANCH  26  30
ENDBRANCH   1  20
TORSDOF 8
ENDMDL
MODEL 9
REMARK VINA RESULT:      -8.4      5.954     10.468
REMARK  8 active torsions:
REMARK  status: ('A' for Active; 'I' for Inactive)
REMARK    1  A    between atoms: O_2  and  C_3 
REMARK    2  A    between atoms: C_11  and  C_12 
REMARK       I    between atoms: C_12  and  N_13 
REMARK    3  A    between atoms: N_13  and  C_14 
REMARK    4  A    between atoms: C_14  and  C_15 
REMARK    5  A    between atoms: C_15  and  C_16 
REMARK    6  A    between atoms: C_16  and  C_17 
REMARK    7  A    between atoms: C_17  and  O_18 
REMARK    8  A    between atoms: O_18  and  C_19 
ROOT
HETATM    1  C   UNL     1       6.686  28.205  55.208  1.00  0.00     0.268 C 
HETATM    2  N   UNL     1       5.550  28.794  54.719  1.00  0.00    -0.345 N 
HETATM    3  O   UNL     1       7.398  28.909  55.926  1.00  0.00    -0.266 OA
HETATM    4  H   UNL     1       5.491  29.758  55.020  1.00  0.00     0.163 HD
ENDROOT
BRANCH   2   5
HETATM    5  C   UNL     1       4.486  28.312  53.873  1.00  0.00     0.217 C 
BRANCH   5   6
HETATM    6  C   UNL     1       4.819  28.448  52.397  1.00  0.00    -0.085 C 
BRANCH   6   7
HETATM    7  C   UNL     1       5.105  28.565  51.130  1.00  0.00    -0.078 C 
BRANCH   7   8
HETATM    8  C   UNL     1       5.438  28.700  49.653  1.00  0.00     0.269 C 
BRANCH   8   9
HETATM    9  O   UNL     1       4.238  28.942  48.933  1.00  0.00    -0.337 OA
BRANCH   9  10
HETATM   10  C   UNL     1       3.642  27.873  48.296  1.00  0.00     0.099 A 
HETATM   11  C   UNL     1       2.421  28.157  47.652  1.00  0.00     0.100 A 
HETATM   12  C   UNL     1       1.759  27.095  46.993  1.00  0.00    -0.005 A 
HETATM   13  N   UNL     1       1.890  29.403  47.655  1.00  0.00    -0.257 NA
HETATM   14  C   UNL     1       0.545  27.359  46.345  1.00  0.00     0.015 A 
HETATM   15  C   UNL     1       2.304  25.802  46.989  1.00  0.00     0.014 A 
HETATM   16  C   UNL     1       0.016  28.642  46.353  1.00  0.00     0.020 A 
HETATM   17  C   UNL     1       0.723  29.623  47.016  1.00  0.00     0.117 A 
HETATM   18  C   UNL     1       3.509  25.546  47.632  1.00  0.00     0.004 A 
HETATM   19  C   UNL     1       4.178  26.577  48.284  1.00  0.00     0.039 A 
ENDBRANCH   9  10
ENDBRANCH   8   9
ENDBRANCH   7   8
ENDBRANCH   6   7
ENDBRANCH   5   6
ENDBRANCH   2   5
BRANCH   1  20
HETATM   20  C   UNL     1       7.053  26.851  54.854  1.00  0.00     0.102 A 
HETATM   21  N   UNL     1       7.061  25.734  55.656  1.00  0.00    -0.351 N 
HETATM   22  C   UNL     1       7.341  24.598  54.931  1.00  0.00     0.045 A 
HETATM   23  H   UNL     1       6.833  25.722  56.637  1.00  0.00     0.166 HD
HETATM   24  C   UNL     1       7.342  23.250  55.322  1.00  0.00     0.067 A 
HETATM   25  C   UNL     1       7.646  25.010  53.638  1.00  0.00    -0.007 A 
HETATM   26  C   UNL     1       7.654  22.294  54.349  1.00  0.00     0.070 A 
HETATM   27  C   UNL     1       7.987  22.689  53.052  1.00  0.00     0.038 A 
HETATM   28  C   UNL     1       7.989  24.040  52.681  1.00  0.00     0.016 A 
HETATM   29  C   UNL     1       7.501  26.422  53.612  1.00  0.00     0.049 A 
BRANCH  26  30
HETATM   30  O   UNL     1       7.676  20.938  54.550  1.00  0.00    -0.356 OA
HETATM   31  C   UNL     1       7.978  20.496  55.867  1.00  0.00     0.210 C 
ENDBRANCH  26  30
ENDBRANCH   1  20
TORSDOF 8
ENDMDL
MODEL 10
REMARK VINA RESULT:      -8.4      5.202      9.805
REMARK  8 active torsions:
REMARK  status: ('A' for Active; 'I' for Inactive)
REMARK    1  A    between atoms: O_2  and  C_3 
REMARK    2  A    between atoms: C_11  and  C_12 
REMARK       I    between atoms: C_12  and  N_13 
REMARK    3  A    between atoms: N_13  and  C_14 
REMARK    4  A    between atoms: C_14  and  C_15 
REMARK    5  A    between atoms: C_15  and  C_16 
REMARK    6  A    between atoms: C_16  and  C_17 
REMARK    7  A    between atoms: C_17  and  O_18 
REMARK    8  A    between atoms: O_18  and  C_19 
ROOT
HETATM    1  C   UNL     1       7.039  27.407  57.195  1.00  0.00     0.268 C 
HETATM    2  N   UNL     1       5.837  28.064  57.170  1.00  0.00    -0.345 N 
HETATM    3  O   UNL     1       7.901  27.878  57.938  1.00  0.00    -0.266 OA
HETATM    4  H   UNL     1       5.863  28.877  57.772  1.00  0.00     0.163 HD
ENDROOT
BRANCH   2   5
HETATM    5  C   UNL     1       4.608  27.826  56.453  1.00  0.00     0.217 C 
BRANCH   5   6
HETATM    6  C   UNL     1       4.601  28.492  55.088  1.00  0.00    -0.085 C 
BRANCH   6   7
HETATM    7  C   UNL     1       4.595  29.064  53.916  1.00  0.00    -0.078 C 
BRANCH   7   8
HETATM    8  C   UNL     1       4.587  29.730  52.549  1.00  0.00     0.269 C 
BRANCH   8   9
HETATM    9  O   UNL     1       3.515  29.198  51.786  1.00  0.00    -0.337 OA
BRANCH   9  10
HETATM   10  C   UNL     1       3.814  28.267  50.813  1.00  0.00     0.099 A 
HETATM   11  C   UNL     1       3.073  28.378  49.620  1.00  0.00     0.100 A 
HETATM   12  C   UNL     1       3.330  27.441  48.593  1.00  0.00    -0.005 A 
HETATM   13  N   UNL     1       2.143  29.348  49.450  1.00  0.00    -0.257 NA
HETATM   14  C   UNL     1       2.605  27.536  47.398  1.00  0.00     0.015 A 
HETATM   15  C   UNL     1       4.292  26.433  48.765  1.00  0.00     0.014 A 
HETATM   16  C   UNL     1       1.658  28.539  47.237  1.00  0.00     0.020 A 
HETATM   17  C   UNL     1       1.467  29.415  48.285  1.00  0.00     0.117 A 
HETATM   18  C   UNL     1       5.010  26.343  49.951  1.00  0.00     0.004 A 
HETATM   19  C   UNL     1       4.774  27.256  50.974  1.00  0.00     0.039 A 
ENDBRANCH   9  10
ENDBRANCH   8   9
ENDBRANCH   7   8
ENDBRANCH   6   7
ENDBRANCH   5   6
ENDBRANCH   2   5
BRANCH   1  20
HETATM   20  C   UNL     1       7.294  26.259  56.354  1.00  0.00     0.102 A 
HETATM   21  N   UNL     1       7.454  24.946  56.731  1.00  0.00    -0.351 N 
HETATM   22  C   UNL     1       7.549  24.117  55.636  1.00  0.00     0.045 A 
HETATM   23  H   UNL     1       7.443  24.609  57.680  1.00  0.00     0.166 HD
HETATM   24  C   UNL     1       7.609  22.716  55.561  1.00  0.00     0.067 A 
HETATM   25  C   UNL     1       7.576  24.936  54.512  1.00  0.00    -0.007 A 
HETATM   26  C   UNL     1       7.685  22.139  54.288  1.00  0.00     0.070 A 
HETATM   27  C   UNL     1       7.738  22.945  53.150  1.00  0.00     0.038 A 
HETATM   28  C   UNL     1       7.685  24.342  53.243  1.00  0.00     0.016 A 
HETATM   29  C   UNL     1       7.456  26.272  54.975  1.00  0.00     0.049 A 
BRANCH  26  30
HETATM   30  O   UNL     1       7.723  20.793  54.032  1.00  0.00    -0.356 OA
HETATM   31  C   UNL     1       8.332  20.397  52.810  1.00  0.00     0.210 C 
ENDBRANCH  26  30
ENDBRANCH   1  20
TORSDOF 8
ENDMDL
