MODEL 1
REMARK VINA RESULT:      -9.5      0.000      0.000
REMARK  7 active torsions:
REMARK  status: ('A' for Active; 'I' for Inactive)
REMARK    1  A    between atoms: C_8  and  C_9 
REMARK    2  A    between atoms: C_9  and  N_10 
REMARK    3  A    between atoms: C_9  and  C_14 
REMARK       I    between atoms: C_14  and  N_15 
REMARK    4  A    between atoms: N_15  and  C_16 
REMARK    5  A    between atoms: C_16  and  C_17 
REMARK    6  A    between atoms: C_17  and  C_18 
REMARK    7  A    between atoms: C_17  and  C_24 
ROOT
HETATM    1  C   UNL     1       7.844  27.592  57.146  1.00  0.00     0.253 C 
HETATM    2  N   UNL     1       8.009  26.796  56.034  1.00  0.00    -0.358 N 
HETATM    3  O   UNL     1       7.897  27.165  58.298  1.00  0.00    -0.271 OA
HETATM    4  H   UNL     1       8.196  27.236  55.139  1.00  0.00     0.162 HD
ENDROOT
BRANCH   2   5
HETATM    5  C   UNL     1       8.356  25.369  56.105  1.00  0.00     0.141 C 
BRANCH   5   6
HETATM    6  C   UNL     1       7.213  24.379  55.629  1.00  0.00     0.026 C 
HETATM    7  C   UNL     1       6.029  24.600  56.624  1.00  0.00     0.027 C 
BRANCH   6   8
HETATM    8  C   UNL     1       6.841  24.789  54.179  1.00  0.00    -0.044 A 
HETATM    9  C   UNL     1       5.491  25.008  53.837  1.00  0.00     0.008 A 
HETATM   10  C   UNL     1       5.116  25.357  52.536  1.00  0.00     0.001 A 
HETATM   11  C   UNL     1       6.080  25.498  51.546  1.00  0.00     0.000 A 
HETATM   12  C   UNL     1       7.420  25.295  51.857  1.00  0.00     0.001 A 
HETATM   13  C   UNL     1       7.797  24.943  53.158  1.00  0.00     0.008 A 
ENDBRANCH   6   8
BRANCH   6  14
HETATM   14  C   UNL     1       7.604  22.875  55.666  1.00  0.00    -0.044 A 
HETATM   15  C   UNL     1       7.501  22.078  54.507  1.00  0.00     0.008 A 
HETATM   16  C   UNL     1       7.876  20.729  54.505  1.00  0.00     0.001 A 
HETATM   17  C   UNL     1       8.387  20.146  55.656  1.00  0.00     0.000 A 
HETATM   18  C   UNL     1       8.539  20.916  56.803  1.00  0.00     0.001 A 
HETATM   19  C   UNL     1       8.161  22.263  56.803  1.00  0.00     0.008 A 
ENDBRANCH   6  14
ENDBRANCH   5   6
ENDBRANCH   2   5
BRANCH   1  20
HETATM   20  C   UNL     1       7.334  29.032  56.911  1.00  0.00     0.311 C 
BRANCH  20  21
HETATM   21  C   UNL     1       8.100  30.091  57.636  1.00  0.00     0.031 A 
HETATM   22  C   UNL     1       9.467  30.337  57.726  1.00  0.00     0.035 A 
HETATM   23  C   UNL     1      10.675  29.678  57.174  1.00  0.00     0.070 C 
HETATM   24  N   UNL     1       9.597  31.452  58.517  1.00  0.00    -0.282 N 
HETATM   25  H   UNL     1      10.446  31.931  58.809  1.00  0.00     0.189 HD
HETATM   26  N   UNL     1       8.430  31.935  58.940  1.00  0.00    -0.179 NA
HETATM   27  C   UNL     1       7.508  31.131  58.417  1.00  0.00     0.061 A 
HETATM   28  C   UNL     1       6.067  31.400  58.678  1.00  0.00     0.073 C 
ENDBRANCH  20  21
BRANCH  20  29
HETATM   29  N   UNL     1       7.237  29.274  55.440  1.00  0.00    -0.062 N 
HETATM   30  H   UNL     1       7.546  28.452  54.914  1.00  0.00     0.275 HD
HETATM   31  H   UNL     1       6.249  29.430  55.193  1.00  0.00     0.275 HD
HETATM   32  H   UNL     1       7.789  30.091  55.161  1.00  0.00     0.275 HD
ENDBRANCH  20  29
ENDBRANCH   1  20
TORSDOF 7
ENDMDL
MODEL 2
REMARK VINA RESULT:      -9.4      1.430      4.056
REMARK  7 active torsions:
REMARK  status: ('A' for Active; 'I' for Inactive)
REMARK    1  A    between atoms: C_8  and  C_9 
REMARK    2  A    between atoms: C_9  and  N_10 
REMARK    3  A    between atoms: C_9  and  C_14 
REMARK       I    between atoms: C_14  and  N_15 
REMARK    4  A    between atoms: N_15  and  C_16 
REMARK    5  A    between atoms: C_16  and  C_17 
REMARK    6  A    between atoms: C_17  and  C_18 
REMARK    7  A    between atoms: C_17  and  C_24 
ROOT
HETATM    1  C   UNL     1       5.857  27.066  56.937  1.00  0.00     0.253 C 
HETATM    2  N   UNL     1       6.658  26.000  57.284  1.00  0.00    -0.358 N 
HETATM    3  O   UNL     1       4.984  27.004  56.074  1.00  0.00    -0.271 OA
HETATM    4  H   UNL     1       7.180  26.041  58.153  1.00  0.00     0.162 HD
ENDROOT
BRANCH   2   5
HETATM    5  C   UNL     1       6.494  24.650  56.725  1.00  0.00     0.141 C 
BRANCH   5   6
HETATM    6  C   UNL     1       7.507  24.281  55.563  1.00  0.00     0.026 C 
HETATM    7  C   UNL     1       8.793  25.121  55.849  1.00  0.00     0.027 C 
BRANCH   6   8
HETATM    8  C   UNL     1       7.771  22.755  55.668  1.00  0.00    -0.044 A 
HETATM    9  C   UNL     1       8.206  22.202  56.890  1.00  0.00     0.008 A 
HETATM   10  C   UNL     1       8.476  20.836  57.017  1.00  0.00     0.001 A 
HETATM   11  C   UNL     1       8.315  19.989  55.927  1.00  0.00     0.000 A 
HETATM   12  C   UNL     1       7.880  20.507  54.712  1.00  0.00     0.001 A 
HETATM   13  C   UNL     1       7.613  21.874  54.583  1.00  0.00     0.008 A 
ENDBRANCH   6   8
BRANCH   6  14
HETATM   14  C   UNL     1       7.007  24.631  54.133  1.00  0.00    -0.044 A 
HETATM   15  C   UNL     1       5.630  24.789  53.874  1.00  0.00     0.008 A 
HETATM   16  C   UNL     1       5.155  25.135  52.603  1.00  0.00     0.001 A 
HETATM   17  C   UNL     1       6.046  25.356  51.562  1.00  0.00     0.000 A 
HETATM   18  C   UNL     1       7.412  25.247  51.796  1.00  0.00     0.001 A 
HETATM   19  C   UNL     1       7.884  24.899  53.067  1.00  0.00     0.008 A 
ENDBRANCH   6  14
ENDBRANCH   5   6
ENDBRANCH   2   5
BRANCH   1  20
HETATM   20  C   UNL     1       6.251  28.452  57.497  1.00  0.00     0.311 C 
BRANCH  20  21
HETATM   21  C   UNL     1       7.580  28.956  57.036  1.00  0.00     0.031 A 
HETATM   22  C   UNL     1       8.205  28.896  55.794  1.00  0.00     0.035 A 
HETATM   23  C   UNL     1       7.835  28.326  54.476  1.00  0.00     0.070 C 
HETATM   24  N   UNL     1       9.412  29.534  55.949  1.00  0.00    -0.282 N 
HETATM   25  H   UNL     1      10.144  29.688  55.259  1.00  0.00     0.189 HD
HETATM   26  N   UNL     1       9.608  29.995  57.183  1.00  0.00    -0.179 NA
HETATM   27  C   UNL     1       8.512  29.660  57.860  1.00  0.00     0.061 A 
HETATM   28  C   UNL     1       8.389  30.046  59.292  1.00  0.00     0.073 C 
ENDBRANCH  20  21
BRANCH  20  29
HETATM   29  N   UNL     1       5.134  29.411  57.240  1.00  0.00    -0.062 N 
HETATM   30  H   UNL     1       4.555  29.528  58.077  1.00  0.00     0.275 HD
HETATM   31  H   UNL     1       5.531  30.335  57.022  1.00  0.00     0.275 HD
HETATM   32  H   UNL     1       4.550  29.099  56.457  1.00  0.00     0.275 HD
ENDBRANCH  20  29
ENDBRANCH   1  20
TORSDOF 7
ENDMDL
MODEL 3
REMARK VINA RESULT:      -9.4      3.870      6.902
REMARK  7 active torsions:
REMARK  status: ('A' for Active; 'I' for Inactive)
REMARK    1  A    between atoms: C_8  and  C_9 
REMARK    2  A    between atoms: C_9  and  N_10 
REMARK    3  A    between atoms: C_9  and  C_14 
REMARK       I    between atoms: C_14  and  N_15 
REMARK    4  A    between atoms: N_15  and  C_16 
REMARK    5  A    between atoms: C_16  and  C_17 
REMARK    6  A    between atoms: C_17  and  C_18 
REMARK    7  A    between atoms: C_17  and  C_24 
ROOT
HETATM    1  C   UNL     1       5.056  26.895  51.508  1.00  0.00     0.253 C 
HETATM    2  N   UNL     1       5.535  25.605  51.429  1.00  0.00    -0.358 N 
HETATM    3  O   UNL     1       4.515  27.355  52.512  1.00  0.00    -0.271 OA
HETATM    4  H   UNL     1       6.176  25.365  50.681  1.00  0.00     0.162 HD
ENDROOT
BRANCH   2   5
HETATM    5  C   UNL     1       5.532  24.671  52.565  1.00  0.00     0.141 C 
BRANCH   5   6
HETATM    6  C   UNL     1       6.891  24.605  53.379  1.00  0.00     0.026 C 
HETATM    7  C   UNL     1       7.984  25.161  52.410  1.00  0.00     0.027 C 
BRANCH   6   8
HETATM    8  C   UNL     1       6.707  25.505  54.630  1.00  0.00    -0.044 A 
HETATM    9  C   UNL     1       5.543  25.383  55.415  1.00  0.00     0.008 A 
HETATM   10  C   UNL     1       5.331  26.192  56.536  1.00  0.00     0.001 A 
HETATM   11  C   UNL     1       6.280  27.140  56.901  1.00  0.00     0.000 A 
HETATM   12  C   UNL     1       7.441  27.277  56.148  1.00  0.00     0.001 A 
HETATM   13  C   UNL     1       7.652  26.471  55.024  1.00  0.00     0.008 A 
ENDBRANCH   6   8
BRANCH   6  14
HETATM   14  C   UNL     1       7.314  23.175  53.817  1.00  0.00    -0.044 A 
HETATM   15  C   UNL     1       7.735  22.227  52.862  1.00  0.00     0.008 A 
HETATM   16  C   UNL     1       8.151  20.943  53.233  1.00  0.00     0.001 A 
HETATM   17  C   UNL     1       8.180  20.579  54.572  1.00  0.00     0.000 A 
HETATM   18  C   UNL     1       7.809  21.504  55.541  1.00  0.00     0.001 A 
HETATM   19  C   UNL     1       7.391  22.787  55.166  1.00  0.00     0.008 A 
ENDBRANCH   6  14
ENDBRANCH   5   6
ENDBRANCH   2   5
BRANCH   1  20
HETATM   20  C   UNL     1       4.989  27.702  50.192  1.00  0.00     0.311 C 
BRANCH  20  21
HETATM   21  C   UNL     1       3.628  27.781  49.578  1.00  0.00     0.031 A 
HETATM   22  C   UNL     1       2.550  28.621  49.839  1.00  0.00     0.035 A 
HETATM   23  C   UNL     1       2.311  29.730  50.795  1.00  0.00     0.070 C 
HETATM   24  N   UNL     1       1.562  28.249  48.961  1.00  0.00    -0.282 N 
HETATM   25  H   UNL     1       0.626  28.635  48.854  1.00  0.00     0.189 HD
HETATM   26  N   UNL     1       1.918  27.243  48.164  1.00  0.00    -0.179 NA
HETATM   27  C   UNL     1       3.166  26.943  48.516  1.00  0.00     0.061 A 
HETATM   28  C   UNL     1       3.889  25.857  47.800  1.00  0.00     0.073 C 
ENDBRANCH  20  21
BRANCH  20  29
HETATM   29  N   UNL     1       5.616  29.039  50.414  1.00  0.00    -0.062 N 
HETATM   30  H   UNL     1       4.982  29.658  50.927  1.00  0.00     0.275 HD
HETATM   31  H   UNL     1       6.454  28.921  51.000  1.00  0.00     0.275 HD
HETATM   32  H   UNL     1       5.883  29.476  49.526  1.00  0.00     0.275 HD
ENDBRANCH  20  29
ENDBRANCH   1  20
TORSDOF 7
ENDMDL
MODEL 4
REMARK VINA RESULT:      -9.2      4.055      7.196
REMARK  7 active torsions:
REMARK  status: ('A' for Active; 'I' for Inactive)
REMARK    1  A    between atoms: C_8  and  C_9 
REMARK    2  A    between atoms: C_9  and  N_10 
REMARK    3  A    between atoms: C_9  and  C_14 
REMARK       I    between atoms: C_14  and  N_15 
REMARK    4  A    between atoms: N_15  and  C_16 
REMARK    5  A    between atoms: C_16  and  C_17 
REMARK    6  A    between atoms: C_17  and  C_18 
REMARK    7  A    between atoms: C_17  and  C_24 
ROOT
HETATM    1  C   UNL     1       4.998  26.628  51.085  1.00  0.00     0.253 C 
HETATM    2  N   UNL     1       5.361  25.327  51.356  1.00  0.00    -0.358 N 
HETATM    3  O   UNL     1       4.555  27.398  51.935  1.00  0.00    -0.271 OA
HETATM    4  H   UNL     1       5.936  24.829  50.685  1.00  0.00     0.162 HD
ENDROOT
BRANCH   2   5
HETATM    5  C   UNL     1       5.345  24.748  52.707  1.00  0.00     0.141 C 
BRANCH   5   6
HETATM    6  C   UNL     1       6.752  24.716  53.437  1.00  0.00     0.026 C 
HETATM    7  C   UNL     1       7.767  25.313  52.409  1.00  0.00     0.027 C 
BRANCH   6   8
HETATM    8  C   UNL     1       6.619  25.599  54.706  1.00  0.00    -0.044 A 
HETATM    9  C   UNL     1       7.652  26.496  55.048  1.00  0.00     0.008 A 
HETATM   10  C   UNL     1       7.578  27.291  56.195  1.00  0.00     0.001 A 
HETATM   11  C   UNL     1       6.468  27.213  57.027  1.00  0.00     0.000 A 
HETATM   12  C   UNL     1       5.431  26.342  56.710  1.00  0.00     0.001 A 
HETATM   13  C   UNL     1       5.505  25.543  55.564  1.00  0.00     0.008 A 
ENDBRANCH   6   8
BRANCH   6  14
HETATM   14  C   UNL     1       7.242  23.295  53.834  1.00  0.00    -0.044 A 
HETATM   15  C   UNL     1       7.719  22.401  52.854  1.00  0.00     0.008 A 
HETATM   16  C   UNL     1       8.195  21.128  53.188  1.00  0.00     0.001 A 
HETATM   17  C   UNL     1       8.231  20.722  54.515  1.00  0.00     0.000 A 
HETATM   18  C   UNL     1       7.806  21.597  55.509  1.00  0.00     0.001 A 
HETATM   19  C   UNL     1       7.328  22.868  55.171  1.00  0.00     0.008 A 
ENDBRANCH   6  14
ENDBRANCH   5   6
ENDBRANCH   2   5
BRANCH   1  20
HETATM   20  C   UNL     1       4.923  27.043  49.598  1.00  0.00     0.311 C 
BRANCH  20  21
HETATM   21  C   UNL     1       3.538  27.111  49.038  1.00  0.00     0.031 A 
HETATM   22  C   UNL     1       2.805  26.197  48.287  1.00  0.00     0.035 A 
HETATM   23  C   UNL     1       3.082  24.843  47.747  1.00  0.00     0.070 C 
HETATM   24  N   UNL     1       1.586  26.787  48.063  1.00  0.00    -0.282 N 
HETATM   25  H   UNL     1       0.786  26.422  47.550  1.00  0.00     0.189 HD
HETATM   26  N   UNL     1       1.480  27.998  48.607  1.00  0.00    -0.179 NA
HETATM   27  C   UNL     1       2.649  28.216  49.205  1.00  0.00     0.061 A 
HETATM   28  C   UNL     1       2.869  29.491  49.941  1.00  0.00     0.073 C 
ENDBRANCH  20  21
BRANCH  20  29
HETATM   29  N   UNL     1       5.700  28.305  49.410  1.00  0.00    -0.062 N 
HETATM   30  H   UNL     1       6.639  28.218  49.810  1.00  0.00     0.275 HD
HETATM   31  H   UNL     1       5.821  28.474  48.401  1.00  0.00     0.275 HD
HETATM   32  H   UNL     1       5.217  29.104  49.832  1.00  0.00     0.275 HD
ENDBRANCH  20  29
ENDBRANCH   1  20
TORSDOF 7
ENDMDL
MODEL 5
REMARK VINA RESULT:      -8.9      4.180      7.427
REMARK  7 active torsions:
REMARK  status: ('A' for Active; 'I' for Inactive)
REMARK    1  A    between atoms: C_8  and  C_9 
REMARK    2  A    between atoms: C_9  and  N_10 
REMARK    3  A    between atoms: C_9  and  C_14 
REMARK       I    between atoms: C_14  and  N_15 
REMARK    4  A    between atoms: N_15  and  C_16 
REMARK    5  A    between atoms: C_16  and  C_17 
REMARK    6  A    between atoms: C_17  and  C_18 
REMARK    7  A    between atoms: C_17  and  C_24 
ROOT
HETATM    1  C   UNL     1       4.874  26.696  50.067  1.00  0.00     0.253 C 
HETATM    2  N   UNL     1       5.915  26.695  50.969  1.00  0.00    -0.358 N 
HETATM    3  O   UNL     1       4.335  25.671  49.653  1.00  0.00    -0.271 OA
HETATM    4  H   UNL     1       6.149  27.558  51.450  1.00  0.00     0.162 HD
ENDROOT
BRANCH   2   5
HETATM    5  C   UNL     1       6.433  25.474  51.604  1.00  0.00     0.141 C 
BRANCH   5   6
HETATM    6  C   UNL     1       6.062  25.308  53.136  1.00  0.00     0.026 C 
HETATM    7  C   UNL     1       4.527  25.020  53.164  1.00  0.00     0.027 C 
BRANCH   6   8
HETATM    8  C   UNL     1       6.891  24.110  53.670  1.00  0.00    -0.044 A 
HETATM    9  C   UNL     1       7.643  23.323  52.773  1.00  0.00     0.008 A 
HETATM   10  C   UNL     1       8.384  22.223  53.214  1.00  0.00     0.001 A 
HETATM   11  C   UNL     1       8.395  21.883  54.561  1.00  0.00     0.000 A 
HETATM   12  C   UNL     1       7.668  22.646  55.469  1.00  0.00     0.001 A 
HETATM   13  C   UNL     1       6.923  23.746  55.029  1.00  0.00     0.008 A 
ENDBRANCH   6   8
BRANCH   6  14
HETATM   14  C   UNL     1       6.336  26.567  54.007  1.00  0.00    -0.044 A 
HETATM   15  C   UNL     1       5.363  27.037  54.913  1.00  0.00     0.008 A 
HETATM   16  C   UNL     1       5.596  28.149  55.731  1.00  0.00     0.001 A 
HETATM   17  C   UNL     1       6.817  28.807  55.684  1.00  0.00     0.000 A 
HETATM   18  C   UNL     1       7.811  28.342  54.830  1.00  0.00     0.001 A 
HETATM   19  C   UNL     1       7.575  27.232  54.012  1.00  0.00     0.008 A 
ENDBRANCH   6  14
ENDBRANCH   5   6
ENDBRANCH   2   5
BRANCH   1  20
HETATM   20  C   UNL     1       4.545  28.039  49.375  1.00  0.00     0.311 C 
BRANCH  20  21
HETATM   21  C   UNL     1       3.257  28.664  49.808  1.00  0.00     0.031 A 
HETATM   22  C   UNL     1       2.800  29.050  51.064  1.00  0.00     0.035 A 
HETATM   23  C   UNL     1       3.369  28.998  52.433  1.00  0.00     0.070 C 
HETATM   24  N   UNL     1       1.549  29.579  50.863  1.00  0.00    -0.282 N 
HETATM   25  H   UNL     1       0.902  29.965  51.548  1.00  0.00     0.189 HD
HETATM   26  N   UNL     1       1.170  29.560  49.586  1.00  0.00    -0.179 NA
HETATM   27  C   UNL     1       2.189  29.014  48.927  1.00  0.00     0.061 A 
HETATM   28  C   UNL     1       2.105  28.858  47.449  1.00  0.00     0.073 C 
ENDBRANCH  20  21
BRANCH  20  29
HETATM   29  N   UNL     1       5.720  28.952  49.511  1.00  0.00    -0.062 N 
HETATM   30  H   UNL     1       6.541  28.440  49.848  1.00  0.00     0.275 HD
HETATM   31  H   UNL     1       5.962  29.323  48.582  1.00  0.00     0.275 HD
HETATM   32  H   UNL     1       5.514  29.730  50.144  1.00  0.00     0.275 HD
ENDBRANCH  20  29
ENDBRANCH   1  20
TORSDOF 7
ENDMDL
MODEL 6
REMARK VINA RESULT:      -8.7      1.702      2.788
REMARK  7 active torsions:
REMARK  status: ('A' for Active; 'I' for Inactive)
REMARK    1  A    between atoms: C_8  and  C_9 
REMARK    2  A    between atoms: C_9  and  N_10 
REMARK    3  A    between atoms: C_9  and  C_14 
REMARK       I    between atoms: C_14  and  N_15 
REMARK    4  A    between atoms: N_15  and  C_16 
REMARK    5  A    between atoms: C_16  and  C_17 
REMARK    6  A    between atoms: C_17  and  C_18 
REMARK    7  A    between atoms: C_17  and  C_24 
ROOT
HETATM    1  C   UNL     1       7.712  28.018  56.014  1.00  0.00     0.253 C 
HETATM    2  N   UNL     1       7.892  26.771  56.570  1.00  0.00    -0.358 N 
HETATM    3  O   UNL     1       7.967  28.278  54.839  1.00  0.00    -0.271 OA
HETATM    4  H   UNL     1       7.443  26.559  57.455  1.00  0.00     0.162 HD
ENDROOT
BRANCH   2   5
HETATM    5  C   UNL     1       8.321  25.595  55.798  1.00  0.00     0.141 C 
BRANCH   5   6
HETATM    6  C   UNL     1       7.181  24.530  55.515  1.00  0.00     0.026 C 
HETATM    7  C   UNL     1       6.127  24.736  56.650  1.00  0.00     0.027 C 
BRANCH   6   8
HETATM    8  C   UNL     1       6.601  24.858  54.113  1.00  0.00    -0.044 A 
HETATM    9  C   UNL     1       7.464  25.273  53.077  1.00  0.00     0.008 A 
HETATM   10  C   UNL     1       6.976  25.599  51.809  1.00  0.00     0.001 A 
HETATM   11  C   UNL     1       5.614  25.514  51.542  1.00  0.00     0.000 A 
HETATM   12  C   UNL     1       4.742  25.100  52.543  1.00  0.00     0.001 A 
HETATM   13  C   UNL     1       5.229  24.777  53.814  1.00  0.00     0.008 A 
ENDBRANCH   6   8
BRANCH   6  14
HETATM   14  C   UNL     1       7.655  23.050  55.555  1.00  0.00    -0.044 A 
HETATM   15  C   UNL     1       8.080  22.466  56.766  1.00  0.00     0.008 A 
HETATM   16  C   UNL     1       8.482  21.126  56.836  1.00  0.00     0.001 A 
HETATM   17  C   UNL     1       8.447  20.327  55.702  1.00  0.00     0.000 A 
HETATM   18  C   UNL     1       7.995  20.863  54.502  1.00  0.00     0.001 A 
HETATM   19  C   UNL     1       7.596  22.203  54.434  1.00  0.00     0.008 A 
ENDBRANCH   6  14
ENDBRANCH   5   6
ENDBRANCH   2   5
BRANCH   1  20
HETATM   20  C   UNL     1       7.405  29.183  56.983  1.00  0.00     0.311 C 
BRANCH  20  21
HETATM   21  C   UNL     1       5.960  29.558  57.068  1.00  0.00     0.031 A 
HETATM   22  C   UNL     1       4.822  28.955  56.542  1.00  0.00     0.035 A 
HETATM   23  C   UNL     1       4.580  27.752  55.709  1.00  0.00     0.070 C 
HETATM   24  N   UNL     1       3.764  29.729  56.949  1.00  0.00    -0.282 N 
HETATM   25  H   UNL     1       2.772  29.605  56.758  1.00  0.00     0.189 HD
HETATM   26  N   UNL     1       4.131  30.774  57.689  1.00  0.00    -0.179 NA
HETATM   27  C   UNL     1       5.457  30.691  57.778  1.00  0.00     0.061 A 
HETATM   28  C   UNL     1       6.203  31.710  58.566  1.00  0.00     0.073 C 
ENDBRANCH  20  21
BRANCH  20  29
HETATM   29  N   UNL     1       8.016  28.878  58.311  1.00  0.00    -0.062 N 
HETATM   30  H   UNL     1       9.037  28.835  58.241  1.00  0.00     0.275 HD
HETATM   31  H   UNL     1       7.795  29.644  58.963  1.00  0.00     0.275 HD
HETATM   32  H   UNL     1       7.658  27.996  58.691  1.00  0.00     0.275 HD
ENDBRANCH  20  29
ENDBRANCH   1  20
TORSDOF 7
ENDMDL
MODEL 7
REMARK VINA RESULT:      -8.6      3.823      7.104
REMARK  7 active torsions:
REMARK  status: ('A' for Active; 'I' for Inactive)
REMARK    1  A    between atoms: C_8  and  C_9 
REMARK    2  A    between atoms: C_9  and  N_10 
REMARK    3  A    between atoms: C_9  and  C_14 
REMARK       I    between atoms: C_14  and  N_15 
REMARK    4  A    between atoms: N_15  and  C_16 
REMARK    5  A    between atoms: C_16  and  C_17 
REMARK    6  A    between atoms: C_17  and  C_18 
REMARK    7  A    between atoms: C_17  and  C_24 
ROOT
HETATM    1  C   UNL     1       5.726  27.933  51.708  1.00  0.00     0.253 C 
HETATM    2  N   UNL     1       5.808  26.560  51.623  1.00  0.00    -0.358 N 
HETATM    3  O   UNL     1       6.408  28.605  52.479  1.00  0.00    -0.271 OA
HETATM    4  H   UNL     1       5.407  26.094  50.815  1.00  0.00     0.162 HD
ENDROOT
BRANCH   2   5
HETATM    5  C   UNL     1       6.784  25.760  52.377  1.00  0.00     0.141 C 
BRANCH   5   6
HETATM    6  C   UNL     1       6.241  25.151  53.736  1.00  0.00     0.026 C 
HETATM    7  C   UNL     1       4.709  24.939  53.515  1.00  0.00     0.027 C 
BRANCH   6   8
HETATM    8  C   UNL     1       6.990  23.810  53.956  1.00  0.00    -0.044 A 
HETATM    9  C   UNL     1       7.518  23.112  52.850  1.00  0.00     0.008 A 
HETATM   10  C   UNL     1       8.179  21.891  53.006  1.00  0.00     0.001 A 
HETATM   11  C   UNL     1       8.332  21.337  54.272  1.00  0.00     0.000 A 
HETATM   12  C   UNL     1       7.828  22.007  55.381  1.00  0.00     0.001 A 
HETATM   13  C   UNL     1       7.163  23.228  55.226  1.00  0.00     0.008 A 
ENDBRANCH   6   8
BRANCH   6  14
HETATM   14  C   UNL     1       6.430  26.069  54.977  1.00  0.00    -0.044 A 
HETATM   15  C   UNL     1       7.643  26.760  55.180  1.00  0.00     0.008 A 
HETATM   16  C   UNL     1       7.828  27.617  56.271  1.00  0.00     0.001 A 
HETATM   17  C   UNL     1       6.797  27.826  57.177  1.00  0.00     0.000 A 
HETATM   18  C   UNL     1       5.576  27.190  56.982  1.00  0.00     0.001 A 
HETATM   19  C   UNL     1       5.395  26.332  55.891  1.00  0.00     0.008 A 
ENDBRANCH   6  14
ENDBRANCH   5   6
ENDBRANCH   2   5
BRANCH   1  20
HETATM   20  C   UNL     1       4.551  28.614  50.970  1.00  0.00     0.311 C 
BRANCH  20  21
HETATM   21  C   UNL     1       4.622  28.534  49.479  1.00  0.00     0.031 A 
HETATM   22  C   UNL     1       4.340  27.492  48.600  1.00  0.00     0.035 A 
HETATM   23  C   UNL     1       3.882  26.092  48.769  1.00  0.00     0.070 C 
HETATM   24  N   UNL     1       4.569  27.989  47.341  1.00  0.00    -0.282 N 
HETATM   25  H   UNL     1       4.473  27.520  46.443  1.00  0.00     0.189 HD
HETATM   26  N   UNL     1       4.975  29.258  47.343  1.00  0.00    -0.179 NA
HETATM   27  C   UNL     1       5.011  29.612  48.626  1.00  0.00     0.061 A 
HETATM   28  C   UNL     1       5.411  30.998  48.992  1.00  0.00     0.073 C 
ENDBRANCH  20  21
BRANCH  20  29
HETATM   29  N   UNL     1       3.265  28.097  51.529  1.00  0.00    -0.062 N 
HETATM   30  H   UNL     1       3.434  27.307  52.160  1.00  0.00     0.275 HD
HETATM   31  H   UNL     1       2.825  28.838  52.093  1.00  0.00     0.275 HD
HETATM   32  H   UNL     1       2.624  27.812  50.783  1.00  0.00     0.275 HD
ENDBRANCH  20  29
ENDBRANCH   1  20
TORSDOF 7
ENDMDL
MODEL 8
REMARK VINA RESULT:      -8.3      3.543      5.371
REMARK  7 active torsions:
REMARK  status: ('A' for Active; 'I' for Inactive)
REMARK    1  A    between atoms: C_8  and  C_9 
REMARK    2  A    between atoms: C_9  and  N_10 
REMARK    3  A    between atoms: C_9  and  C_14 
REMARK       I    between atoms: C_14  and  N_15 
REMARK    4  A    between atoms: N_15  and  C_16 
REMARK    5  A    between atoms: C_16  and  C_17 
REMARK    6  A    between atoms: C_17  and  C_18 
REMARK    7  A    between atoms: C_17  and  C_24 
ROOT
HETATM    1  C   UNL     1       3.975  28.125  53.628  1.00  0.00     0.253 C 
HETATM    2  N   UNL     1       4.355  26.967  52.986  1.00  0.00    -0.358 N 
HETATM    3  O   UNL     1       4.051  28.280  54.846  1.00  0.00    -0.271 OA
HETATM    4  H   UNL     1       4.497  26.988  51.981  1.00  0.00     0.162 HD
ENDROOT
BRANCH   2   5
HETATM    5  C   UNL     1       4.977  25.827  53.675  1.00  0.00     0.141 C 
BRANCH   5   6
HETATM    6  C   UNL     1       6.548  25.714  53.496  1.00  0.00     0.026 C 
HETATM    7  C   UNL     1       6.828  26.123  52.014  1.00  0.00     0.027 C 
BRANCH   6   8
HETATM    8  C   UNL     1       7.186  26.706  54.506  1.00  0.00    -0.044 A 
HETATM    9  C   UNL     1       7.831  27.868  54.034  1.00  0.00     0.008 A 
HETATM   10  C   UNL     1       8.437  28.772  54.911  1.00  0.00     0.001 A 
HETATM   11  C   UNL     1       8.410  28.540  56.281  1.00  0.00     0.000 A 
HETATM   12  C   UNL     1       7.774  27.406  56.774  1.00  0.00     0.001 A 
HETATM   13  C   UNL     1       7.170  26.498  55.897  1.00  0.00     0.008 A 
ENDBRANCH   6   8
BRANCH   6  14
HETATM   14  C   UNL     1       7.124  24.289  53.724  1.00  0.00    -0.044 A 
HETATM   15  C   UNL     1       6.996  23.655  54.978  1.00  0.00     0.008 A 
HETATM   16  C   UNL     1       7.477  22.360  55.201  1.00  0.00     0.001 A 
HETATM   17  C   UNL     1       8.079  21.652  54.169  1.00  0.00     0.000 A 
HETATM   18  C   UNL     1       8.184  22.234  52.911  1.00  0.00     0.001 A 
HETATM   19  C   UNL     1       7.703  23.530  52.692  1.00  0.00     0.008 A 
ENDBRANCH   6  14
ENDBRANCH   5   6
ENDBRANCH   2   5
BRANCH   1  20
HETATM   20  C   UNL     1       3.199  29.170  52.794  1.00  0.00     0.311 C 
BRANCH  20  21
HETATM   21  C   UNL     1       4.054  30.216  52.154  1.00  0.00     0.031 A 
HETATM   22  C   UNL     1       4.993  30.135  51.130  1.00  0.00     0.035 A 
HETATM   23  C   UNL     1       5.517  29.028  50.293  1.00  0.00     0.070 C 
HETATM   24  N   UNL     1       5.460  31.413  50.945  1.00  0.00    -0.282 N 
HETATM   25  H   UNL     1       6.158  31.747  50.284  1.00  0.00     0.189 HD
HETATM   26  N   UNL     1       4.900  32.300  51.766  1.00  0.00    -0.179 NA
HETATM   27  C   UNL     1       4.042  31.600  52.505  1.00  0.00     0.061 A 
HETATM   28  C   UNL     1       3.219  32.299  53.530  1.00  0.00     0.073 C 
ENDBRANCH  20  21
BRANCH  20  29
HETATM   29  N   UNL     1       2.316  28.453  51.825  1.00  0.00    -0.062 N 
HETATM   30  H   UNL     1       2.567  28.690  50.860  1.00  0.00     0.275 HD
HETATM   31  H   UNL     1       2.462  27.439  51.929  1.00  0.00     0.275 HD
HETATM   32  H   UNL     1       1.329  28.673  51.989  1.00  0.00     0.275 HD
ENDBRANCH  20  29
ENDBRANCH   1  20
TORSDOF 7
ENDMDL
MODEL 9
REMARK VINA RESULT:      -8.2      3.019      6.123
REMARK  7 active torsions:
REMARK  status: ('A' for Active; 'I' for Inactive)
REMARK    1  A    between atoms: C_8  and  C_9 
REMARK    2  A    between atoms: C_9  and  N_10 
REMARK    3  A    between atoms: C_9  and  C_14 
REMARK       I    between atoms: C_14  and  N_15 
REMARK    4  A    between atoms: N_15  and  C_16 
REMARK    5  A    between atoms: C_16  and  C_17 
REMARK    6  A    between atoms: C_17  and  C_18 
REMARK    7  A    between atoms: C_17  and  C_24 
ROOT
HETATM    1  C   UNL     1       4.320  28.870  55.276  1.00  0.00     0.253 C 
HETATM    2  N   UNL     1       3.910  27.959  54.327  1.00  0.00    -0.358 N 
HETATM    3  O   UNL     1       4.552  30.050  55.025  1.00  0.00    -0.271 OA
HETATM    4  H   UNL     1       3.506  27.080  54.633  1.00  0.00     0.162 HD
ENDROOT
BRANCH   2   5
HETATM    5  C   UNL     1       3.619  28.321  52.932  1.00  0.00     0.141 C 
BRANCH   5   6
HETATM    6  C   UNL     1       4.758  27.950  51.894  1.00  0.00     0.026 C 
HETATM    7  C   UNL     1       5.671  29.215  51.807  1.00  0.00     0.027 C 
BRANCH   6   8
HETATM    8  C   UNL     1       5.512  26.724  52.476  1.00  0.00    -0.044 A 
HETATM    9  C   UNL     1       6.880  26.832  52.798  1.00  0.00     0.008 A 
HETATM   10  C   UNL     1       7.598  25.744  53.303  1.00  0.00     0.001 A 
HETATM   11  C   UNL     1       6.966  24.522  53.501  1.00  0.00     0.000 A 
HETATM   12  C   UNL     1       5.615  24.390  53.198  1.00  0.00     0.001 A 
HETATM   13  C   UNL     1       4.896  25.477  52.690  1.00  0.00     0.008 A 
ENDBRANCH   6   8
BRANCH   6  14
HETATM   14  C   UNL     1       4.246  27.621  50.463  1.00  0.00    -0.044 A 
HETATM   15  C   UNL     1       3.162  28.333  49.908  1.00  0.00     0.008 A 
HETATM   16  C   UNL     1       2.702  28.079  48.610  1.00  0.00     0.001 A 
HETATM   17  C   UNL     1       3.329  27.123  47.823  1.00  0.00     0.000 A 
HETATM   18  C   UNL     1       4.425  26.433  48.327  1.00  0.00     0.001 A 
HETATM   19  C   UNL     1       4.881  26.688  49.625  1.00  0.00     0.008 A 
ENDBRANCH   6  14
ENDBRANCH   5   6
ENDBRANCH   2   5
BRANCH   1  20
HETATM   20  C   UNL     1       4.731  28.309  56.657  1.00  0.00     0.311 C 
BRANCH  20  21
HETATM   21  C   UNL     1       6.035  27.578  56.670  1.00  0.00     0.031 A 
HETATM   22  C   UNL     1       7.342  28.029  56.516  1.00  0.00     0.035 A 
HETATM   23  C   UNL     1       7.957  29.357  56.278  1.00  0.00     0.070 C 
HETATM   24  N   UNL     1       8.140  26.916  56.631  1.00  0.00    -0.282 N 
HETATM   25  H   UNL     1       9.153  26.850  56.572  1.00  0.00     0.189 HD
HETATM   26  N   UNL     1       7.451  25.796  56.843  1.00  0.00    -0.179 NA
HETATM   27  C   UNL     1       6.174  26.171  56.874  1.00  0.00     0.061 A 
HETATM   28  C   UNL     1       5.117  25.151  57.117  1.00  0.00     0.073 C 
ENDBRANCH  20  21
BRANCH  20  29
HETATM   29  N   UNL     1       4.660  29.410  57.664  1.00  0.00    -0.062 N 
HETATM   30  H   UNL     1       3.760  29.897  57.609  1.00  0.00     0.275 HD
HETATM   31  H   UNL     1       4.720  29.002  58.608  1.00  0.00     0.275 HD
HETATM   32  H   UNL     1       5.424  30.081  57.535  1.00  0.00     0.275 HD
ENDBRANCH  20  29
ENDBRANCH   1  20
TORSDOF 7
ENDMDL
MODEL 10
REMARK VINA RESULT:      -8.1      4.965     10.338
REMARK  7 active torsions:
REMARK  status: ('A' for Active; 'I' for Inactive)
REMARK    1  A    between atoms: C_8  and  C_9 
REMARK    2  A    between atoms: C_9  and  N_10 
REMARK    3  A    between atoms: C_9  and  C_14 
REMARK       I    between atoms: C_14  and  N_15 
REMARK    4  A    between atoms: N_15  and  C_16 
REMARK    5  A    between atoms: C_16  and  C_17 
REMARK    6  A    between atoms: C_17  and  C_18 
REMARK    7  A    between atoms: C_17  and  C_24 
ROOT
HETATM    1  C   UNL     1       5.343  31.834  58.018  1.00  0.00     0.253 C 
HETATM    2  N   UNL     1       5.005  31.946  59.349  1.00  0.00    -0.358 N 
HETATM    3  O   UNL     1       5.760  32.774  57.344  1.00  0.00    -0.271 OA
HETATM    4  H   UNL     1       4.904  31.101  59.902  1.00  0.00     0.162 HD
ENDROOT
BRANCH   2   5
HETATM    5  C   UNL     1       5.191  33.178  60.130  1.00  0.00     0.141 C 
BRANCH   5   6
HETATM    6  C   UNL     1       5.564  32.953  61.654  1.00  0.00     0.026 C 
HETATM    7  C   UNL     1       4.485  31.967  62.205  1.00  0.00     0.027 C 
BRANCH   6   8
HETATM    8  C   UNL     1       6.988  32.334  61.679  1.00  0.00    -0.044 A 
HETATM    9  C   UNL     1       7.984  32.834  60.815  1.00  0.00     0.008 A 
HETATM   10  C   UNL     1       9.271  32.287  60.793  1.00  0.00     0.001 A 
HETATM   11  C   UNL     1       9.595  31.231  61.637  1.00  0.00     0.000 A 
HETATM   12  C   UNL     1       8.633  30.724  62.504  1.00  0.00     0.001 A 
HETATM   13  C   UNL     1       7.344  31.267  62.524  1.00  0.00     0.008 A 
ENDBRANCH   6   8
BRANCH   6  14
HETATM   14  C   UNL     1       5.535  34.241  62.524  1.00  0.00    -0.044 A 
HETATM   15  C   UNL     1       5.464  35.513  61.919  1.00  0.00     0.008 A 
HETATM   16  C   UNL     1       5.405  36.687  62.679  1.00  0.00     0.001 A 
HETATM   17  C   UNL     1       5.390  36.620  64.066  1.00  0.00     0.000 A 
HETATM   18  C   UNL     1       5.418  35.379  64.691  1.00  0.00     0.001 A 
HETATM   19  C   UNL     1       5.480  34.207  63.928  1.00  0.00     0.008 A 
ENDBRANCH   6  14
ENDBRANCH   5   6
ENDBRANCH   2   5
BRANCH   1  20
HETATM   20  C   UNL     1       4.947  30.524  57.300  1.00  0.00     0.311 C 
BRANCH  20  21
HETATM   21  C   UNL     1       6.098  29.741  56.752  1.00  0.00     0.031 A 
HETATM   22  C   UNL     1       7.330  29.410  57.307  1.00  0.00     0.035 A 
HETATM   23  C   UNL     1       7.988  29.688  58.606  1.00  0.00     0.070 C 
HETATM   24  N   UNL     1       7.983  28.666  56.355  1.00  0.00    -0.282 N 
HETATM   25  H   UNL     1       8.910  28.248  56.397  1.00  0.00     0.189 HD
HETATM   26  N   UNL     1       7.272  28.497  55.241  1.00  0.00    -0.179 NA
HETATM   27  C   UNL     1       6.125  29.136  55.458  1.00  0.00     0.061 A 
HETATM   28  C   UNL     1       5.073  29.131  54.405  1.00  0.00     0.073 C 
ENDBRANCH  20  21
BRANCH  20  29
HETATM   29  N   UNL     1       4.067  29.725  58.205  1.00  0.00    -0.062 N 
HETATM   30  H   UNL     1       4.068  28.737  57.935  1.00  0.00     0.275 HD
HETATM   31  H   UNL     1       4.444  29.771  59.162  1.00  0.00     0.275 HD
HETATM   32  H   UNL     1       3.107  30.084  58.201  1.00  0.00     0.275 HD
ENDBRANCH  20  29
ENDBRANCH   1  20
TORSDOF 7
ENDMDL
