MODEL 1
REMARK VINA RESULT:     -10.6      0.000      0.000
REMARK  7 active torsions:
REMARK  status: ('A' for Active; 'I' for Inactive)
REMARK    1  A    between atoms: C_2  and  C_3 
REMARK    2  A    between atoms: C_3  and  C_4 
REMARK       I    between atoms: C_4  and  N_5 
REMARK    3  A    between atoms: N_8  and  C_9 
REMARK    4  A    between atoms: C_12  and  N_13 
REMARK    5  A    between atoms: N_13  and  C_14 
REMARK    6  A    between atoms: C_14  and  N_15 
REMARK       I    between atoms: N_15  and  C_16 
REMARK    7  A    between atoms: C_16  and  C_17 
ROOT
HETATM    1  N   UNL     1       7.632  29.695  57.345  1.00  0.00    -0.333 N 
HETATM    2  H   UNL     1       6.720  29.316  57.085  1.00  0.00     0.168 HD
ENDROOT
BRANCH   1   3
HETATM    3  C   UNL     1       7.648  30.495  58.511  1.00  0.00     0.034 C 
HETATM    4  C   UNL     1       8.505  30.269  59.581  1.00  0.00     0.032 C 
HETATM    5  C   UNL     1       8.335  30.955  60.787  1.00  0.00     0.031 C 
HETATM    6  C   UNL     1       7.315  31.898  60.960  1.00  0.00     0.030 C 
HETATM    7  C   UNL     1       6.567  32.231  59.822  1.00  0.00     0.031 C 
HETATM    8  C   UNL     1       6.738  31.548  58.605  1.00  0.00     0.032 C 
BRANCH   6   9
HETATM    9  N   UNL     1       6.961  32.396  62.212  1.00  0.00    -0.378 N 
HETATM   10  C   UNL     1       7.949  32.321  63.305  1.00  0.00     0.143 C 
HETATM   11  C   UNL     1       7.597  33.336  64.418  1.00  0.00     0.145 C 
HETATM   12  N   UNL     1       6.182  33.322  64.825  1.00  0.00    -0.349 N 
HETATM   13  C   UNL     1       5.863  33.895  66.058  1.00  0.00     0.219 C 
HETATM   14  C   UNL     1       5.216  33.253  63.722  1.00  0.00     0.145 C 
HETATM   15  O   UNL     1       6.725  34.204  66.878  1.00  0.00    -0.273 OA
HETATM   16  C   UNL     1       5.577  32.197  62.672  1.00  0.00     0.143 C 
BRANCH  13  17
HETATM   17  C   UNL     1       4.378  34.101  66.340  1.00  0.00     0.103 C 
BRANCH  17  18
HETATM   18  C   UNL     1       4.007  35.563  66.578  1.00  0.00     0.005 C 
HETATM   19  C   UNL     1       4.426  36.432  65.402  1.00  0.00     0.005 C 
ENDBRANCH  17  18
ENDBRANCH  13  17
ENDBRANCH   6   9
ENDBRANCH   1   3
BRANCH   1  20
HETATM   20  C   UNL     1       8.695  29.099  56.700  1.00  0.00     0.179 C 
HETATM   21  S   UNL     1      10.219  29.708  56.356  1.00  0.00    -0.040 SA
BRANCH  20  22
HETATM   22  N   UNL     1       8.512  27.784  56.319  1.00  0.00    -0.299 N 
HETATM   23  C   UNL     1       8.013  26.689  57.015  1.00  0.00     0.266 C 
HETATM   24  O   UNL     1       7.573  26.806  58.158  1.00  0.00    -0.267 OA
HETATM   25  H   UNL     1       8.872  27.611  55.391  1.00  0.00     0.171 HD
BRANCH  23  26
HETATM   26  C   UNL     1       8.049  25.436  56.270  1.00  0.00     0.096 A 
HETATM   27  S   UNL     1       8.609  24.029  57.070  1.00  0.00    -0.082 SA
HETATM   28  C   UNL     1       8.325  23.022  55.707  1.00  0.00     0.017 A 
HETATM   29  C   UNL     1       7.837  23.754  54.624  1.00  0.00     0.004 A 
HETATM   30  C   UNL     1       8.539  21.632  55.622  1.00  0.00     0.020 A 
HETATM   31  C   UNL     1       7.696  25.147  54.964  1.00  0.00     0.068 A 
HETATM   32  C   UNL     1       7.566  23.054  53.418  1.00  0.00     0.014 A 
HETATM   33 CL   UNL     1       7.139  26.288  53.798  1.00  0.00    -0.082 Cl
HETATM   34  C   UNL     1       7.776  21.675  53.330  1.00  0.00     0.001 A 
HETATM   35  C   UNL     1       8.256  20.972  54.423  1.00  0.00     0.001 A 
ENDBRANCH  23  26
ENDBRANCH  20  22
ENDBRANCH   1  20
TORSDOF 7
ENDMDL
MODEL 2
REMARK VINA RESULT:     -10.5      1.633      1.698
REMARK  7 active torsions:
REMARK  status: ('A' for Active; 'I' for Inactive)
REMARK    1  A    between atoms: C_2  and  C_3 
REMARK    2  A    between atoms: C_3  and  C_4 
REMARK       I    between atoms: C_4  and  N_5 
REMARK    3  A    between atoms: N_8  and  C_9 
REMARK    4  A    between atoms: C_12  and  N_13 
REMARK    5  A    between atoms: N_13  and  C_14 
REMARK    6  A    between atoms: C_14  and  N_15 
REMARK       I    between atoms: N_15  and  C_16 
REMARK    7  A    between atoms: C_16  and  C_17 
ROOT
HETATM    1  N   UNL     1       7.359  29.275  56.711  1.00  0.00    -0.333 N 
HETATM    2  H   UNL     1       8.003  29.502  55.952  1.00  0.00     0.168 HD
ENDROOT
BRANCH   1   3
HETATM    3  C   UNL     1       7.443  30.110  57.849  1.00  0.00     0.034 C 
HETATM    4  C   UNL     1       8.375  29.927  58.864  1.00  0.00     0.032 C 
HETATM    5  C   UNL     1       8.278  30.647  60.058  1.00  0.00     0.031 C 
HETATM    6  C   UNL     1       7.260  31.581  60.274  1.00  0.00     0.030 C 
HETATM    7  C   UNL     1       6.431  31.871  59.181  1.00  0.00     0.031 C 
HETATM    8  C   UNL     1       6.528  31.155  57.975  1.00  0.00     0.032 C 
BRANCH   6   9
HETATM    9  N   UNL     1       6.986  32.112  61.532  1.00  0.00    -0.378 N 
HETATM   10  C   UNL     1       7.948  31.870  62.624  1.00  0.00     0.143 C 
HETATM   11  C   UNL     1       7.756  32.913  63.750  1.00  0.00     0.145 C 
HETATM   12  N   UNL     1       6.355  33.115  64.157  1.00  0.00    -0.349 N 
HETATM   13  C   UNL     1       6.128  33.715  65.397  1.00  0.00     0.219 C 
HETATM   14  C   UNL     1       5.393  33.212  63.054  1.00  0.00     0.145 C 
HETATM   15  O   UNL     1       7.026  33.874  66.222  1.00  0.00    -0.273 OA
HETATM   16  C   UNL     1       5.587  32.126  61.990  1.00  0.00     0.143 C 
BRANCH  13  17
HETATM   17  C   UNL     1       4.692  34.147  65.683  1.00  0.00     0.103 C 
BRANCH  17  18
HETATM   18  C   UNL     1       4.564  35.633  66.006  1.00  0.00     0.005 C 
HETATM   19  C   UNL     1       4.679  36.479  64.747  1.00  0.00     0.005 C 
ENDBRANCH  17  18
ENDBRANCH  13  17
ENDBRANCH   6   9
ENDBRANCH   1   3
BRANCH   1  20
HETATM   20  C   UNL     1       6.342  28.417  56.350  1.00  0.00     0.179 C 
HETATM   21  S   UNL     1       4.687  28.681  56.290  1.00  0.00    -0.040 SA
BRANCH  20  22
HETATM   22  N   UNL     1       6.732  27.165  55.919  1.00  0.00    -0.299 N 
HETATM   23  C   UNL     1       7.344  26.749  54.743  1.00  0.00     0.266 C 
HETATM   24  O   UNL     1       7.702  27.559  53.888  1.00  0.00    -0.267 OA
HETATM   25  H   UNL     1       6.450  26.443  56.569  1.00  0.00     0.171 HD
BRANCH  23  26
HETATM   26  C   UNL     1       7.528  25.306  54.637  1.00  0.00     0.096 A 
HETATM   27  S   UNL     1       7.552  24.380  56.077  1.00  0.00    -0.082 SA
HETATM   28  C   UNL     1       7.723  22.892  55.234  1.00  0.00     0.017 A 
HETATM   29  C   UNL     1       7.800  23.093  53.855  1.00  0.00     0.004 A 
HETATM   30  C   UNL     1       7.790  21.603  55.798  1.00  0.00     0.020 A 
HETATM   31  C   UNL     1       7.698  24.493  53.531  1.00  0.00     0.068 A 
HETATM   32  C   UNL     1       7.957  21.949  53.026  1.00  0.00     0.014 A 
HETATM   33 CL   UNL     1       7.794  25.029  51.896  1.00  0.00    -0.082 Cl
HETATM   34  C   UNL     1       8.022  20.669  53.581  1.00  0.00     0.001 A 
HETATM   35  C   UNL     1       7.937  20.499  54.954  1.00  0.00     0.001 A 
ENDBRANCH  23  26
ENDBRANCH  20  22
ENDBRANCH   1  20
TORSDOF 7
ENDMDL
MODEL 3
REMARK VINA RESULT:     -10.4      3.608     11.875
REMARK  7 active torsions:
REMARK  status: ('A' for Active; 'I' for Inactive)
REMARK    1  A    between atoms: C_2  and  C_3 
REMARK    2  A    between atoms: C_3  and  C_4 
REMARK       I    between atoms: C_4  and  N_5 
REMARK    3  A    between atoms: N_8  and  C_9 
REMARK    4  A    between atoms: C_12  and  N_13 
REMARK    5  A    between atoms: N_13  and  C_14 
REMARK    6  A    between atoms: C_14  and  N_15 
REMARK       I    between atoms: N_15  and  C_16 
REMARK    7  A    between atoms: C_16  and  C_17 
ROOT
HETATM    1  N   UNL     1       6.215  30.838  57.051  1.00  0.00    -0.333 N 
HETATM    2  H   UNL     1       6.823  31.635  56.862  1.00  0.00     0.168 HD
ENDROOT
BRANCH   1   3
HETATM    3  C   UNL     1       6.754  29.572  56.726  1.00  0.00     0.034 C 
HETATM    4  C   UNL     1       6.445  28.887  55.557  1.00  0.00     0.032 C 
HETATM    5  C   UNL     1       6.838  27.557  55.385  1.00  0.00     0.031 C 
HETATM    6  C   UNL     1       7.564  26.872  56.365  1.00  0.00     0.030 C 
HETATM    7  C   UNL     1       8.008  27.626  57.461  1.00  0.00     0.031 C 
HETATM    8  C   UNL     1       7.620  28.965  57.636  1.00  0.00     0.032 C 
BRANCH   6   9
HETATM    9  N   UNL     1       7.739  25.490  56.337  1.00  0.00    -0.378 N 
HETATM   10  C   UNL     1       8.714  24.884  57.263  1.00  0.00     0.143 C 
HETATM   11  C   UNL     1       8.415  23.378  57.448  1.00  0.00     0.145 C 
HETATM   12  N   UNL     1       8.179  22.648  56.192  1.00  0.00    -0.349 N 
HETATM   13  C   UNL     1       8.297  21.257  56.225  1.00  0.00     0.219 C 
HETATM   14  C   UNL     1       7.317  23.335  55.223  1.00  0.00     0.145 C 
HETATM   15  O   UNL     1       8.787  20.665  57.186  1.00  0.00    -0.273 OA
HETATM   16  C   UNL     1       7.686  24.810  55.032  1.00  0.00     0.143 C 
BRANCH  13  17
HETATM   17  C   UNL     1       7.801  20.509  54.992  1.00  0.00     0.103 C 
BRANCH  17  18
HETATM   18  C   UNL     1       8.872  20.341  53.917  1.00  0.00     0.005 C 
HETATM   19  C   UNL     1       8.266  20.423  52.524  1.00  0.00     0.005 C 
ENDBRANCH  17  18
ENDBRANCH  13  17
ENDBRANCH   6   9
ENDBRANCH   1   3
BRANCH   1  20
HETATM   20  C   UNL     1       5.140  31.129  57.865  1.00  0.00     0.179 C 
HETATM   21  S   UNL     1       3.503  30.859  57.617  1.00  0.00    -0.040 SA
BRANCH  20  22
HETATM   22  N   UNL     1       5.443  31.676  59.095  1.00  0.00    -0.299 N 
HETATM   23  C   UNL     1       6.632  32.184  59.605  1.00  0.00     0.266 C 
HETATM   24  O   UNL     1       7.643  32.267  58.908  1.00  0.00    -0.267 OA
HETATM   25  H   UNL     1       4.658  31.623  59.731  1.00  0.00     0.171 HD
BRANCH  23  26
HETATM   26  C   UNL     1       6.556  32.612  60.998  1.00  0.00     0.096 A 
HETATM   27  S   UNL     1       5.081  33.266  61.570  1.00  0.00    -0.082 SA
HETATM   28  C   UNL     1       5.676  33.462  63.171  1.00  0.00     0.017 A 
HETATM   29  C   UNL     1       7.010  33.065  63.272  1.00  0.00     0.004 A 
HETATM   30  C   UNL     1       4.966  33.957  64.282  1.00  0.00     0.020 A 
HETATM   31  C   UNL     1       7.504  32.589  62.006  1.00  0.00     0.068 A 
HETATM   32  C   UNL     1       7.642  33.182  64.539  1.00  0.00     0.014 A 
HETATM   33 CL   UNL     1       9.137  32.062  61.837  1.00  0.00    -0.082 Cl
HETATM   34  C   UNL     1       6.941  33.671  65.644  1.00  0.00     0.001 A 
HETATM   35  C   UNL     1       5.615  34.053  65.516  1.00  0.00     0.001 A 
ENDBRANCH  23  26
ENDBRANCH  20  22
ENDBRANCH   1  20
TORSDOF 7
ENDMDL
MODEL 4
REMARK VINA RESULT:     -10.1      3.754     12.169
REMARK  7 active torsions:
REMARK  status: ('A' for Active; 'I' for Inactive)
REMARK    1  A    between atoms: C_2  and  C_3 
REMARK    2  A    between atoms: C_3  and  C_4 
REMARK       I    between atoms: C_4  and  N_5 
REMARK    3  A    between atoms: N_8  and  C_9 
REMARK    4  A    between atoms: C_12  and  N_13 
REMARK    5  A    between atoms: N_13  and  C_14 
REMARK    6  A    between atoms: C_14  and  N_15 
REMARK       I    between atoms: N_15  and  C_16 
REMARK    7  A    between atoms: C_16  and  C_17 
ROOT
HETATM    1  N   UNL     1       4.311  29.988  58.069  1.00  0.00    -0.333 N 
HETATM    2  H   UNL     1       3.492  29.628  58.560  1.00  0.00     0.168 HD
ENDROOT
BRANCH   1   3
HETATM    3  C   UNL     1       4.937  29.079  57.185  1.00  0.00     0.034 C 
HETATM    4  C   UNL     1       4.296  28.517  56.087  1.00  0.00     0.032 C 
HETATM    5  C   UNL     1       4.890  27.471  55.374  1.00  0.00     0.031 C 
HETATM    6  C   UNL     1       6.146  26.962  55.723  1.00  0.00     0.030 C 
HETATM    7  C   UNL     1       6.846  27.650  56.725  1.00  0.00     0.031 C 
HETATM    8  C   UNL     1       6.256  28.705  57.441  1.00  0.00     0.032 C 
BRANCH   6   9
HETATM    9  N   UNL     1       6.638  25.767  55.206  1.00  0.00    -0.378 N 
HETATM   10  C   UNL     1       5.854  25.072  54.168  1.00  0.00     0.143 C 
HETATM   11  C   UNL     1       6.755  24.092  53.380  1.00  0.00     0.145 C 
HETATM   12  N   UNL     1       7.606  23.238  54.226  1.00  0.00    -0.349 N 
HETATM   13  C   UNL     1       8.136  22.084  53.645  1.00  0.00     0.219 C 
HETATM   14  C   UNL     1       8.267  23.925  55.341  1.00  0.00     0.145 C 
HETATM   15  O   UNL     1       7.750  21.663  52.556  1.00  0.00    -0.273 OA
HETATM   16  C   UNL     1       7.322  24.843  56.125  1.00  0.00     0.143 C 
BRANCH  13  17
HETATM   17  C   UNL     1       9.211  21.358  54.448  1.00  0.00     0.103 C 
BRANCH  17  18
HETATM   18  C   UNL     1       8.710  20.074  55.104  1.00  0.00     0.005 C 
HETATM   19  C   UNL     1       7.909  20.379  56.361  1.00  0.00     0.005 C 
ENDBRANCH  17  18
ENDBRANCH  13  17
ENDBRANCH   6   9
ENDBRANCH   1   3
BRANCH   1  20
HETATM   20  C   UNL     1       4.447  31.359  58.128  1.00  0.00     0.179 C 
HETATM   21  S   UNL     1       4.106  32.521  56.967  1.00  0.00    -0.040 SA
BRANCH  20  22
HETATM   22  N   UNL     1       4.877  31.873  59.334  1.00  0.00    -0.299 N 
HETATM   23  C   UNL     1       6.131  32.294  59.758  1.00  0.00     0.266 C 
HETATM   24  O   UNL     1       7.092  32.313  58.988  1.00  0.00    -0.267 OA
HETATM   25  H   UNL     1       4.138  31.869  60.026  1.00  0.00     0.171 HD
BRANCH  23  26
HETATM   26  C   UNL     1       6.188  32.713  61.154  1.00  0.00     0.096 A 
HETATM   27  S   UNL     1       4.773  33.364  61.866  1.00  0.00    -0.082 SA
HETATM   28  C   UNL     1       5.516  33.551  63.405  1.00  0.00     0.017 A 
HETATM   29  C   UNL     1       6.853  33.153  63.377  1.00  0.00     0.004 A 
HETATM   30  C   UNL     1       4.914  34.039  64.581  1.00  0.00     0.020 A 
HETATM   31  C   UNL     1       7.226  32.685  62.068  1.00  0.00     0.068 A 
HETATM   32  C   UNL     1       7.602  33.263  64.580  1.00  0.00     0.014 A 
HETATM   33 CL   UNL     1       8.835  32.160  61.743  1.00  0.00    -0.082 Cl
HETATM   34  C   UNL     1       7.009  33.746  65.749  1.00  0.00     0.001 A 
HETATM   35  C   UNL     1       5.677  34.128  65.749  1.00  0.00     0.001 A 
ENDBRANCH  23  26
ENDBRANCH  20  22
ENDBRANCH   1  20
TORSDOF 7
ENDMDL
MODEL 5
REMARK VINA RESULT:     -10.0      2.708      3.510
REMARK  7 active torsions:
REMARK  status: ('A' for Active; 'I' for Inactive)
REMARK    1  A    between atoms: C_2  and  C_3 
REMARK    2  A    between atoms: C_3  and  C_4 
REMARK       I    between atoms: C_4  and  N_5 
REMARK    3  A    between atoms: N_8  and  C_9 
REMARK    4  A    between atoms: C_12  and  N_13 
REMARK    5  A    between atoms: N_13  and  C_14 
REMARK    6  A    between atoms: C_14  and  N_15 
REMARK       I    between atoms: N_15  and  C_16 
REMARK    7  A    between atoms: C_16  and  C_17 
ROOT
HETATM    1  N   UNL     1       4.078  28.243  55.089  1.00  0.00    -0.333 N 
HETATM    2  H   UNL     1       3.363  27.563  55.349  1.00  0.00     0.168 HD
ENDROOT
BRANCH   1   3
HETATM    3  C   UNL     1       4.342  29.245  56.051  1.00  0.00     0.034 C 
HETATM    4  C   UNL     1       5.591  29.439  56.628  1.00  0.00     0.032 C 
HETATM    5  C   UNL     1       5.746  30.299  57.720  1.00  0.00     0.031 C 
HETATM    6  C   UNL     1       4.664  31.002  58.261  1.00  0.00     0.030 C 
HETATM    7  C   UNL     1       3.450  30.922  57.564  1.00  0.00     0.031 C 
HETATM    8  C   UNL     1       3.291  30.064  56.463  1.00  0.00     0.032 C 
BRANCH   6   9
HETATM    9  N   UNL     1       4.735  31.651  59.492  1.00  0.00    -0.378 N 
HETATM   10  C   UNL     1       3.477  31.959  60.199  1.00  0.00     0.143 C 
HETATM   11  C   UNL     1       3.751  32.195  61.703  1.00  0.00     0.145 C 
HETATM   12  N   UNL     1       4.884  33.094  61.979  1.00  0.00    -0.349 N 
HETATM   13  C   UNL     1       4.953  33.668  63.250  1.00  0.00     0.219 C 
HETATM   14  C   UNL     1       6.080  32.859  61.163  1.00  0.00     0.145 C 
HETATM   15  O   UNL     1       4.013  33.618  64.042  1.00  0.00    -0.273 OA
HETATM   16  C   UNL     1       5.766  32.686  59.673  1.00  0.00     0.143 C 
BRANCH  13  17
HETATM   17  C   UNL     1       6.256  34.380  63.598  1.00  0.00     0.103 C 
BRANCH  17  18
HETATM   18  C   UNL     1       7.165  33.562  64.511  1.00  0.00     0.005 C 
HETATM   19  C   UNL     1       6.911  33.892  65.974  1.00  0.00     0.005 C 
ENDBRANCH  17  18
ENDBRANCH  13  17
ENDBRANCH   6   9
ENDBRANCH   1   3
BRANCH   1  20
HETATM   20  C   UNL     1       4.848  27.866  54.009  1.00  0.00     0.179 C 
HETATM   21  S   UNL     1       5.148  28.676  52.571  1.00  0.00    -0.040 SA
BRANCH  20  22
HETATM   22  N   UNL     1       5.524  26.669  54.136  1.00  0.00    -0.299 N 
HETATM   23  C   UNL     1       6.820  26.387  54.552  1.00  0.00     0.266 C 
HETATM   24  O   UNL     1       7.568  27.277  54.957  1.00  0.00    -0.267 OA
HETATM   25  H   UNL     1       4.972  25.892  53.801  1.00  0.00     0.171 HD
BRANCH  23  26
HETATM   26  C   UNL     1       7.183  24.977  54.478  1.00  0.00     0.096 A 
HETATM   27  S   UNL     1       7.173  24.056  55.921  1.00  0.00    -0.082 SA
HETATM   28  C   UNL     1       7.602  22.602  55.112  1.00  0.00     0.017 A 
HETATM   29  C   UNL     1       7.791  22.814  53.746  1.00  0.00     0.004 A 
HETATM   30  C   UNL     1       7.765  21.328  55.692  1.00  0.00     0.020 A 
HETATM   31  C   UNL     1       7.557  24.192  53.401  1.00  0.00     0.068 A 
HETATM   32  C   UNL     1       8.163  21.699  52.947  1.00  0.00     0.014 A 
HETATM   33 CL   UNL     1       7.750  24.741  51.778  1.00  0.00    -0.082 Cl
HETATM   34  C   UNL     1       8.324  20.434  53.517  1.00  0.00     0.001 A 
HETATM   35  C   UNL     1       8.124  20.251  54.877  1.00  0.00     0.001 A 
ENDBRANCH  23  26
ENDBRANCH  20  22
ENDBRANCH   1  20
TORSDOF 7
ENDMDL
MODEL 6
REMARK VINA RESULT:      -9.9      3.148      4.405
REMARK  7 active torsions:
REMARK  status: ('A' for Active; 'I' for Inactive)
REMARK    1  A    between atoms: C_2  and  C_3 
REMARK    2  A    between atoms: C_3  and  C_4 
REMARK       I    between atoms: C_4  and  N_5 
REMARK    3  A    between atoms: N_8  and  C_9 
REMARK    4  A    between atoms: C_12  and  N_13 
REMARK    5  A    between atoms: N_13  and  C_14 
REMARK    6  A    between atoms: C_14  and  N_15 
REMARK       I    between atoms: N_15  and  C_16 
REMARK    7  A    between atoms: C_16  and  C_17 
ROOT
HETATM    1  N   UNL     1       4.020  27.848  53.881  1.00  0.00    -0.333 N 
HETATM    2  H   UNL     1       3.039  27.584  53.985  1.00  0.00     0.168 HD
ENDROOT
BRANCH   1   3
HETATM    3  C   UNL     1       4.566  28.588  54.955  1.00  0.00     0.034 C 
HETATM    4  C   UNL     1       4.991  28.008  56.144  1.00  0.00     0.032 C 
HETATM    5  C   UNL     1       5.325  28.802  57.245  1.00  0.00     0.031 C 
HETATM    6  C   UNL     1       5.260  30.199  57.191  1.00  0.00     0.030 C 
HETATM    7  C   UNL     1       4.990  30.768  55.938  1.00  0.00     0.031 C 
HETATM    8  C   UNL     1       4.660  29.974  54.827  1.00  0.00     0.032 C 
BRANCH   6   9
HETATM    9  N   UNL     1       5.330  30.995  58.332  1.00  0.00    -0.378 N 
HETATM   10  C   UNL     1       4.180  31.858  58.661  1.00  0.00     0.143 C 
HETATM   11  C   UNL     1       4.217  32.255  60.155  1.00  0.00     0.145 C 
HETATM   12  N   UNL     1       5.531  32.724  60.626  1.00  0.00    -0.349 N 
HETATM   13  C   UNL     1       5.562  33.460  61.812  1.00  0.00     0.219 C 
HETATM   14  C   UNL     1       6.677  31.930  60.169  1.00  0.00     0.145 C 
HETATM   15  O   UNL     1       4.540  33.897  62.338  1.00  0.00    -0.273 OA
HETATM   16  C   UNL     1       6.625  31.608  58.671  1.00  0.00     0.143 C 
BRANCH  13  17
HETATM   17  C   UNL     1       6.943  33.711  62.413  1.00  0.00     0.103 C 
BRANCH  17  18
HETATM   18  C   UNL     1       7.216  32.878  63.662  1.00  0.00     0.005 C 
HETATM   19  C   UNL     1       7.247  33.753  64.906  1.00  0.00     0.005 C 
ENDBRANCH  17  18
ENDBRANCH  13  17
ENDBRANCH   6   9
ENDBRANCH   1   3
BRANCH   1  20
HETATM   20  C   UNL     1       4.683  27.170  52.881  1.00  0.00     0.179 C 
HETATM   21  S   UNL     1       4.808  27.523  51.246  1.00  0.00    -0.040 SA
BRANCH  20  22
HETATM   22  N   UNL     1       5.403  26.060  53.277  1.00  0.00    -0.299 N 
HETATM   23  C   UNL     1       6.741  25.910  53.619  1.00  0.00     0.266 C 
HETATM   24  O   UNL     1       7.500  26.878  53.672  1.00  0.00    -0.267 OA
HETATM   25  H   UNL     1       4.843  25.219  53.238  1.00  0.00     0.171 HD
BRANCH  23  26
HETATM   26  C   UNL     1       7.137  24.538  53.917  1.00  0.00     0.096 A 
HETATM   27  S   UNL     1       7.657  23.542  52.625  1.00  0.00    -0.082 SA
HETATM   28  C   UNL     1       7.994  22.210  53.658  1.00  0.00     0.017 A 
HETATM   29  C   UNL     1       7.678  22.501  54.986  1.00  0.00     0.004 A 
HETATM   30  C   UNL     1       8.515  20.956  53.281  1.00  0.00     0.020 A 
HETATM   31  C   UNL     1       7.174  23.844  55.114  1.00  0.00     0.068 A 
HETATM   32  C   UNL     1       7.893  21.486  55.957  1.00  0.00     0.014 A 
HETATM   33 CL   UNL     1       6.676  24.458  56.646  1.00  0.00    -0.082 Cl
HETATM   34  C   UNL     1       8.410  20.242  55.587  1.00  0.00     0.001 A 
HETATM   35  C   UNL     1       8.720  19.982  54.261  1.00  0.00     0.001 A 
ENDBRANCH  23  26
ENDBRANCH  20  22
ENDBRANCH   1  20
TORSDOF 7
ENDMDL
MODEL 7
REMARK VINA RESULT:      -9.6      3.266      4.765
REMARK  7 active torsions:
REMARK  status: ('A' for Active; 'I' for Inactive)
REMARK    1  A    between atoms: C_2  and  C_3 
REMARK    2  A    between atoms: C_3  and  C_4 
REMARK       I    between atoms: C_4  and  N_5 
REMARK    3  A    between atoms: N_8  and  C_9 
REMARK    4  A    between atoms: C_12  and  N_13 
REMARK    5  A    between atoms: N_13  and  C_14 
REMARK    6  A    between atoms: C_14  and  N_15 
REMARK       I    between atoms: N_15  and  C_16 
REMARK    7  A    between atoms: C_16  and  C_17 
ROOT
HETATM    1  N   UNL     1       3.939  28.333  53.234  1.00  0.00    -0.333 N 
HETATM    2  H   UNL     1       2.952  28.097  53.125  1.00  0.00     0.168 HD
ENDROOT
BRANCH   1   3
HETATM    3  C   UNL     1       4.279  28.982  54.443  1.00  0.00     0.034 C 
HETATM    4  C   UNL     1       4.519  30.347  54.536  1.00  0.00     0.032 C 
HETATM    5  C   UNL     1       5.054  30.898  55.705  1.00  0.00     0.031 C 
HETATM    6  C   UNL     1       5.352  30.109  56.821  1.00  0.00     0.030 C 
HETATM    7  C   UNL     1       4.949  28.767  56.768  1.00  0.00     0.031 C 
HETATM    8  C   UNL     1       4.406  28.209  55.597  1.00  0.00     0.032 C 
BRANCH   6   9
HETATM    9  N   UNL     1       6.118  30.578  57.886  1.00  0.00    -0.378 N 
HETATM   10  C   UNL     1       7.335  29.834  58.260  1.00  0.00     0.143 C 
HETATM   11  C   UNL     1       8.288  30.739  59.077  1.00  0.00     0.145 C 
HETATM   12  N   UNL     1       7.631  31.489  60.160  1.00  0.00    -0.349 N 
HETATM   13  C   UNL     1       8.446  32.002  61.172  1.00  0.00     0.219 C 
HETATM   14  C   UNL     1       6.347  32.104  59.804  1.00  0.00     0.145 C 
HETATM   15  O   UNL     1       9.624  31.671  61.292  1.00  0.00    -0.273 OA
HETATM   16  C   UNL     1       5.416  31.154  59.045  1.00  0.00     0.143 C 
BRANCH  13  17
HETATM   17  C   UNL     1       7.787  32.984  62.134  1.00  0.00     0.103 C 
BRANCH  17  18
HETATM   18  C   UNL     1       7.901  32.563  63.597  1.00  0.00     0.005 C 
HETATM   19  C   UNL     1       7.478  33.692  64.526  1.00  0.00     0.005 C 
ENDBRANCH  17  18
ENDBRANCH  13  17
ENDBRANCH   6   9
ENDBRANCH   1   3
BRANCH   1  20
HETATM   20  C   UNL     1       4.772  27.699  52.337  1.00  0.00     0.179 C 
HETATM   21  S   UNL     1       5.192  28.133  50.772  1.00  0.00    -0.040 SA
BRANCH  20  22
HETATM   22  N   UNL     1       5.407  26.564  52.799  1.00  0.00    -0.299 N 
HETATM   23  C   UNL     1       6.680  26.374  53.324  1.00  0.00     0.266 C 
HETATM   24  O   UNL     1       7.441  27.323  53.512  1.00  0.00    -0.267 OA
HETATM   25  H   UNL     1       4.843  25.737  52.656  1.00  0.00     0.171 HD
BRANCH  23  26
HETATM   26  C   UNL     1       7.002  24.986  53.635  1.00  0.00     0.096 A 
HETATM   27  S   UNL     1       7.456  23.948  52.351  1.00  0.00    -0.082 SA
HETATM   28  C   UNL     1       7.729  22.612  53.397  1.00  0.00     0.017 A 
HETATM   29  C   UNL     1       7.442  22.936  54.724  1.00  0.00     0.004 A 
HETATM   30  C   UNL     1       8.178  21.328  53.031  1.00  0.00     0.020 A 
HETATM   31  C   UNL     1       7.013  24.306  54.839  1.00  0.00     0.068 A 
HETATM   32  C   UNL     1       7.610  21.922  55.705  1.00  0.00     0.014 A 
HETATM   33 CL   UNL     1       6.564  24.965  56.368  1.00  0.00    -0.082 Cl
HETATM   34  C   UNL     1       8.056  20.648  55.347  1.00  0.00     0.001 A 
HETATM   35  C   UNL     1       8.339  20.356  54.021  1.00  0.00     0.001 A 
ENDBRANCH  23  26
ENDBRANCH  20  22
ENDBRANCH   1  20
TORSDOF 7
ENDMDL
MODEL 8
REMARK VINA RESULT:      -9.5      2.033      2.708
REMARK  7 active torsions:
REMARK  status: ('A' for Active; 'I' for Inactive)
REMARK    1  A    between atoms: C_2  and  C_3 
REMARK    2  A    between atoms: C_3  and  C_4 
REMARK       I    between atoms: C_4  and  N_5 
REMARK    3  A    between atoms: N_8  and  C_9 
REMARK    4  A    between atoms: C_12  and  N_13 
REMARK    5  A    between atoms: N_13  and  C_14 
REMARK    6  A    between atoms: C_14  and  N_15 
REMARK       I    between atoms: N_15  and  C_16 
REMARK    7  A    between atoms: C_16  and  C_17 
ROOT
HETATM    1  N   UNL     1       6.828  29.015  55.133  1.00  0.00    -0.333 N 
HETATM    2  H   UNL     1       7.391  29.334  54.343  1.00  0.00     0.168 HD
ENDROOT
BRANCH   1   3
HETATM    3  C   UNL     1       6.932  29.797  56.307  1.00  0.00     0.034 C 
HETATM    4  C   UNL     1       7.906  29.593  57.277  1.00  0.00     0.032 C 
HETATM    5  C   UNL     1       7.834  30.253  58.508  1.00  0.00     0.031 C 
HETATM    6  C   UNL     1       6.798  31.145  58.805  1.00  0.00     0.030 C 
HETATM    7  C   UNL     1       5.922  31.463  57.758  1.00  0.00     0.031 C 
HETATM    8  C   UNL     1       5.993  30.807  56.516  1.00  0.00     0.032 C 
BRANCH   6   9
HETATM    9  N   UNL     1       6.557  31.608  60.097  1.00  0.00    -0.378 N 
HETATM   10  C   UNL     1       5.273  32.277  60.378  1.00  0.00     0.143 C 
HETATM   11  C   UNL     1       4.978  32.258  61.896  1.00  0.00     0.145 C 
HETATM   12  N   UNL     1       6.115  32.663  62.740  1.00  0.00    -0.349 N 
HETATM   13  C   UNL     1       5.835  33.053  64.051  1.00  0.00     0.219 C 
HETATM   14  C   UNL     1       7.412  32.095  62.354  1.00  0.00     0.145 C 
HETATM   15  O   UNL     1       4.688  33.268  64.438  1.00  0.00    -0.273 OA
HETATM   16  C   UNL     1       7.684  32.185  60.849  1.00  0.00     0.143 C 
BRANCH  13  17
HETATM   17  C   UNL     1       7.037  33.218  64.976  1.00  0.00     0.103 C 
BRANCH  17  18
HETATM   18  C   UNL     1       6.965  34.475  65.839  1.00  0.00     0.005 C 
HETATM   19  C   UNL     1       6.624  34.130  67.281  1.00  0.00     0.005 C 
ENDBRANCH  17  18
ENDBRANCH  13  17
ENDBRANCH   6   9
ENDBRANCH   1   3
BRANCH   1  20
HETATM   20  C   UNL     1       5.860  28.093  54.800  1.00  0.00     0.179 C 
HETATM   21  S   UNL     1       4.263  28.331  54.345  1.00  0.00    -0.040 SA
BRANCH  20  22
HETATM   22  N   UNL     1       6.263  26.773  54.781  1.00  0.00    -0.299 N 
HETATM   23  C   UNL     1       6.169  25.771  55.739  1.00  0.00     0.266 C 
HETATM   24  O   UNL     1       5.590  25.963  56.809  1.00  0.00    -0.267 OA
HETATM   25  H   UNL     1       6.766  26.549  53.933  1.00  0.00     0.171 HD
BRANCH  23  26
HETATM   26  C   UNL     1       6.788  24.508  55.354  1.00  0.00     0.096 A 
HETATM   27  S   UNL     1       7.635  23.619  56.547  1.00  0.00    -0.082 SA
HETATM   28  C   UNL     1       7.998  22.330  55.470  1.00  0.00     0.017 A 
HETATM   29  C   UNL     1       7.509  22.584  54.187  1.00  0.00     0.004 A 
HETATM   30  C   UNL     1       8.699  21.146  55.772  1.00  0.00     0.020 A 
HETATM   31  C   UNL     1       6.825  23.850  54.138  1.00  0.00     0.068 A 
HETATM   32  C   UNL     1       7.746  21.607  53.182  1.00  0.00     0.014 A 
HETATM   33 CL   UNL     1       6.146  24.429  52.662  1.00  0.00    -0.082 Cl
HETATM   34  C   UNL     1       8.439  20.431  53.478  1.00  0.00     0.001 A 
HETATM   35  C   UNL     1       8.908  20.203  54.763  1.00  0.00     0.001 A 
ENDBRANCH  23  26
ENDBRANCH  20  22
ENDBRANCH   1  20
TORSDOF 7
ENDMDL
MODEL 9
REMARK VINA RESULT:      -9.4      3.964     11.725
REMARK  7 active torsions:
REMARK  status: ('A' for Active; 'I' for Inactive)
REMARK    1  A    between atoms: C_2  and  C_3 
REMARK    2  A    between atoms: C_3  and  C_4 
REMARK       I    between atoms: C_4  and  N_5 
REMARK    3  A    between atoms: N_8  and  C_9 
REMARK    4  A    between atoms: C_12  and  N_13 
REMARK    5  A    between atoms: N_13  and  C_14 
REMARK    6  A    between atoms: C_14  and  N_15 
REMARK       I    between atoms: N_15  and  C_16 
REMARK    7  A    between atoms: C_16  and  C_17 
ROOT
HETATM    1  N   UNL     1       3.577  31.581  56.968  1.00  0.00    -0.333 N 
HETATM    2  H   UNL     1       2.608  31.452  56.676  1.00  0.00     0.168 HD
ENDROOT
BRANCH   1   3
HETATM    3  C   UNL     1       4.487  30.602  56.505  1.00  0.00     0.034 C 
HETATM    4  C   UNL     1       4.468  30.092  55.213  1.00  0.00     0.032 C 
HETATM    5  C   UNL     1       5.248  28.983  54.873  1.00  0.00     0.031 C 
HETATM    6  C   UNL     1       6.081  28.356  55.806  1.00  0.00     0.030 C 
HETATM    7  C   UNL     1       6.212  28.983  57.053  1.00  0.00     0.031 C 
HETATM    8  C   UNL     1       5.435  30.102  57.397  1.00  0.00     0.032 C 
BRANCH   6   9
HETATM    9  N   UNL     1       6.659  27.110  55.573  1.00  0.00    -0.378 N 
HETATM   10  C   UNL     1       7.562  26.550  56.597  1.00  0.00     0.143 C 
HETATM   11  C   UNL     1       7.691  25.019  56.420  1.00  0.00     0.145 C 
HETATM   12  N   UNL     1       7.940  24.588  55.034  1.00  0.00    -0.349 N 
HETATM   13  C   UNL     1       8.455  23.304  54.844  1.00  0.00     0.219 C 
HETATM   14  C   UNL     1       7.128  25.262  54.015  1.00  0.00     0.145 C 
HETATM   15  O   UNL     1       8.894  22.631  55.775  1.00  0.00    -0.273 OA
HETATM   16  C   UNL     1       7.074  26.783  54.199  1.00  0.00     0.143 C 
BRANCH  13  17
HETATM   17  C   UNL     1       8.462  22.787  53.409  1.00  0.00     0.103 C 
BRANCH  17  18
HETATM   18  C   UNL     1       7.675  21.491  53.231  1.00  0.00     0.005 C 
HETATM   19  C   UNL     1       8.604  20.323  52.939  1.00  0.00     0.005 C 
ENDBRANCH  17  18
ENDBRANCH  13  17
ENDBRANCH   6   9
ENDBRANCH   1   3
BRANCH   1  20
HETATM   20  C   UNL     1       3.850  32.832  57.479  1.00  0.00     0.179 C 
HETATM   21  S   UNL     1       3.650  34.343  56.780  1.00  0.00    -0.040 SA
BRANCH  20  22
HETATM   22  N   UNL     1       4.308  32.867  58.781  1.00  0.00    -0.299 N 
HETATM   23  C   UNL     1       3.871  32.209  59.925  1.00  0.00     0.266 C 
HETATM   24  O   UNL     1       2.962  31.381  59.877  1.00  0.00    -0.267 OA
HETATM   25  H   UNL     1       5.047  33.546  58.898  1.00  0.00     0.171 HD
BRANCH  23  26
HETATM   26  C   UNL     1       4.587  32.576  61.142  1.00  0.00     0.096 A 
HETATM   27  S   UNL     1       3.689  33.203  62.457  1.00  0.00    -0.082 SA
HETATM   28  C   UNL     1       5.073  33.329  63.469  1.00  0.00     0.017 A 
HETATM   29  C   UNL     1       6.231  32.930  62.801  1.00  0.00     0.004 A 
HETATM   30  C   UNL     1       5.107  33.775  64.805  1.00  0.00     0.020 A 
HETATM   31  C   UNL     1       5.933  32.510  61.456  1.00  0.00     0.068 A 
HETATM   32  C   UNL     1       7.461  32.992  63.511  1.00  0.00     0.014 A 
HETATM   33 CL   UNL     1       7.188  31.993  60.394  1.00  0.00    -0.082 Cl
HETATM   34  C   UNL     1       7.499  33.432  64.836  1.00  0.00     0.001 A 
HETATM   35  C   UNL     1       6.331  33.818  65.476  1.00  0.00     0.001 A 
ENDBRANCH  23  26
ENDBRANCH  20  22
ENDBRANCH   1  20
TORSDOF 7
ENDMDL
MODEL 10
REMARK VINA RESULT:      -9.3      4.638     12.303
REMARK  7 active torsions:
REMARK  status: ('A' for Active; 'I' for Inactive)
REMARK    1  A    between atoms: C_2  and  C_3 
REMARK    2  A    between atoms: C_3  and  C_4 
REMARK       I    between atoms: C_4  and  N_5 
REMARK    3  A    between atoms: N_8  and  C_9 
REMARK    4  A    between atoms: C_12  and  N_13 
REMARK    5  A    between atoms: N_13  and  C_14 
REMARK    6  A    between atoms: C_14  and  N_15 
REMARK       I    between atoms: N_15  and  C_16 
REMARK    7  A    between atoms: C_16  and  C_17 
ROOT
HETATM    1  N   UNL     1       7.587  28.582  58.471  1.00  0.00    -0.333 N 
HETATM    2  H   UNL     1       7.263  28.057  59.284  1.00  0.00     0.168 HD
ENDROOT
BRANCH   1   3
HETATM    3  C   UNL     1       7.015  28.204  57.235  1.00  0.00     0.034 C 
HETATM    4  C   UNL     1       7.525  27.187  56.436  1.00  0.00     0.032 C 
HETATM    5  C   UNL     1       7.049  26.997  55.135  1.00  0.00     0.031 C 
HETATM    6  C   UNL     1       6.042  27.803  54.595  1.00  0.00     0.030 C 
HETATM    7  C   UNL     1       5.427  28.712  55.469  1.00  0.00     0.031 C 
HETATM    8  C   UNL     1       5.897  28.903  56.779  1.00  0.00     0.032 C 
BRANCH   6   9
HETATM    9  N   UNL     1       5.737  27.809  53.235  1.00  0.00    -0.378 N 
HETATM   10  C   UNL     1       5.205  29.049  52.638  1.00  0.00     0.143 C 
HETATM   11  C   UNL     1       5.406  29.034  51.104  1.00  0.00     0.145 C 
HETATM   12  N   UNL     1       5.001  27.778  50.452  1.00  0.00    -0.349 N 
HETATM   13  C   UNL     1       4.773  27.814  49.075  1.00  0.00     0.219 C 
HETATM   14  C   UNL     1       5.421  26.553  51.142  1.00  0.00     0.145 C 
HETATM   15  O   UNL     1       4.692  28.872  48.453  1.00  0.00    -0.273 OA
HETATM   16  C   UNL     1       5.153  26.591  52.650  1.00  0.00     0.143 C 
BRANCH  13  17
HETATM   17  C   UNL     1       4.611  26.464  48.383  1.00  0.00     0.103 C 
BRANCH  17  18
HETATM   18  C   UNL     1       3.155  26.107  48.092  1.00  0.00     0.005 C 
HETATM   19  C   UNL     1       2.977  24.602  47.961  1.00  0.00     0.005 C 
ENDBRANCH  17  18
ENDBRANCH  13  17
ENDBRANCH   6   9
ENDBRANCH   1   3
BRANCH   1  20
HETATM   20  C   UNL     1       8.265  29.741  58.783  1.00  0.00     0.179 C 
HETATM   21  S   UNL     1       9.587  30.446  58.029  1.00  0.00    -0.040 SA
BRANCH  20  22
HETATM   22  N   UNL     1       7.760  30.472  59.840  1.00  0.00    -0.299 N 
HETATM   23  C   UNL     1       7.094  31.691  59.877  1.00  0.00     0.266 C 
HETATM   24  O   UNL     1       6.795  32.287  58.842  1.00  0.00    -0.267 OA
HETATM   25  H   UNL     1       7.988  30.048  60.729  1.00  0.00     0.171 HD
BRANCH  23  26
HETATM   26  C   UNL     1       6.782  32.167  61.220  1.00  0.00     0.096 A 
HETATM   27  S   UNL     1       8.068  32.377  62.329  1.00  0.00    -0.082 SA
HETATM   28  C   UNL     1       7.034  32.972  63.567  1.00  0.00     0.017 A 
HETATM   29  C   UNL     1       5.700  32.980  63.157  1.00  0.00     0.004 A 
HETATM   30  C   UNL     1       7.415  33.406  64.852  1.00  0.00     0.020 A 
HETATM   31  C   UNL     1       5.573  32.501  61.805  1.00  0.00     0.068 A 
HETATM   32  C   UNL     1       4.725  33.437  64.084  1.00  0.00     0.014 A 
HETATM   33 CL   UNL     1       4.026  32.377  61.054  1.00  0.00    -0.082 Cl
HETATM   34  C   UNL     1       5.098  33.869  65.359  1.00  0.00     0.001 A 
HETATM   35  C   UNL     1       6.432  33.856  65.736  1.00  0.00     0.001 A 
ENDBRANCH  23  26
ENDBRANCH  20  22
ENDBRANCH   1  20
TORSDOF 7
ENDMDL
