MODEL 1
REMARK VINA RESULT:      -9.1      0.000      0.000
REMARK  8 active torsions:
REMARK  status: ('A' for Active; 'I' for Inactive)
REMARK    1  A    between atoms: C_2  and  C_3 
REMARK    2  A    between atoms: C_3  and  O_4 
REMARK    3  A    between atoms: O_4  and  C_5 
REMARK    4  A    between atoms: C_6  and  C_7 
REMARK    5  A    between atoms: C_11  and  C_12 
REMARK       I    between atoms: C_12  and  N_13 
REMARK    6  A    between atoms: N_13  and  N_14 
REMARK    7  A    between atoms: C_15  and  C_16 
REMARK    8  A    between atoms: C_17  and  O_18 
ROOT
HETATM    1  C   UNL     1       7.241  23.782  53.062  1.00  0.00     0.092 A 
HETATM    2  N   UNL     1       8.159  24.411  52.316  1.00  0.00    -0.174 NA
HETATM    3  N   UNL     1       7.494  25.415  51.728  1.00  0.00    -0.272 N 
HETATM    4  H   UNL     1       8.000  26.047  51.112  1.00  0.00     0.189 HD
HETATM    5  C   UNL     1       6.158  25.445  52.015  1.00  0.00     0.121 A 
HETATM    6  C   UNL     1       5.968  24.405  52.902  1.00  0.00     0.071 A 
ENDROOT
BRANCH   5   7
HETATM    7  C   UNL     1       5.286  26.425  51.418  1.00  0.00     0.289 C 
HETATM    8  N   UNL     1       5.346  26.484  50.033  1.00  0.00    -0.242 N 
HETATM    9  H   UNL     1       5.997  25.900  49.524  1.00  0.00     0.192 HD
HETATM   10  O   UNL     1       4.583  27.161  52.105  1.00  0.00    -0.264 OA
BRANCH   8  11
HETATM   11  N   UNL     1       4.640  27.441  49.364  1.00  0.00    -0.183 NA
HETATM   12  C   UNL     1       3.604  27.022  48.708  1.00  0.00     0.153 C 
BRANCH  12  13
HETATM   13  C   UNL     1       2.774  27.955  47.922  1.00  0.00     0.016 A 
HETATM   14  C   UNL     1       1.403  27.751  47.726  1.00  0.00     0.077 A 
HETATM   15  C   UNL     1       0.658  28.665  46.984  1.00  0.00     0.037 A 
HETATM   16  C   UNL     1       1.277  29.791  46.440  1.00  0.00     0.003 A 
HETATM   17  C   UNL     1       2.643  30.001  46.634  1.00  0.00     0.001 A 
HETATM   18  C   UNL     1       3.395  29.084  47.373  1.00  0.00     0.016 A 
BRANCH  14  19
HETATM   19  O   UNL     1       0.720  26.678  48.230  1.00  0.00    -0.360 OA
HETATM   20  H   UNL     1       0.789  25.935  47.588  1.00  0.00     0.217 HD
ENDBRANCH  14  19
ENDBRANCH  12  13
ENDBRANCH   8  11
ENDBRANCH   5   7
BRANCH   1  21
HETATM   21  C   UNL     1       7.548  22.597  53.866  1.00  0.00     0.028 A 
HETATM   22  C   UNL     1       7.528  22.574  55.272  1.00  0.00     0.081 A 
HETATM   23  C   UNL     1       7.919  21.418  55.962  1.00  0.00     0.038 A 
HETATM   24  C   UNL     1       8.283  20.263  55.272  1.00  0.00     0.003 A 
HETATM   25  C   UNL     1       8.277  20.261  53.883  1.00  0.00     0.001 A 
HETATM   26  C   UNL     1       7.918  21.418  53.187  1.00  0.00     0.017 A 
BRANCH  22  27
HETATM   27  O   UNL     1       7.197  23.627  56.086  1.00  0.00    -0.350 OA
BRANCH  27  28
HETATM   28  C   UNL     1       8.252  24.027  56.964  1.00  0.00     0.175 C 
BRANCH  28  29
HETATM   29  C   UNL     1       8.244  25.550  57.088  1.00  0.00     0.022 C 
HETATM   30  C   UNL     1       7.480  26.218  55.953  1.00  0.00     0.007 C 
ENDBRANCH  28  29
ENDBRANCH  27  28
ENDBRANCH  22  27
ENDBRANCH   1  21
TORSDOF 8
ENDMDL
MODEL 2
REMARK VINA RESULT:      -8.9      6.109      9.795
REMARK  8 active torsions:
REMARK  status: ('A' for Active; 'I' for Inactive)
REMARK    1  A    between atoms: C_2  and  C_3 
REMARK    2  A    between atoms: C_3  and  O_4 
REMARK    3  A    between atoms: O_4  and  C_5 
REMARK    4  A    between atoms: C_6  and  C_7 
REMARK    5  A    between atoms: C_11  and  C_12 
REMARK       I    between atoms: C_12  and  N_13 
REMARK    6  A    between atoms: N_13  and  N_14 
REMARK    7  A    between atoms: C_15  and  C_16 
REMARK    8  A    between atoms: C_17  and  O_18 
ROOT
HETATM    1  C   UNL     1       8.504  29.964  58.631  1.00  0.00     0.092 A 
HETATM    2  N   UNL     1       9.597  29.999  57.857  1.00  0.00    -0.174 NA
HETATM    3  N   UNL     1       9.369  29.089  56.900  1.00  0.00    -0.272 N 
HETATM    4  H   UNL     1      10.071  28.947  56.178  1.00  0.00     0.189 HD
HETATM    5  C   UNL     1       8.187  28.416  57.039  1.00  0.00     0.121 A 
HETATM    6  C   UNL     1       7.591  28.982  58.147  1.00  0.00     0.071 A 
ENDROOT
BRANCH   5   7
HETATM    7  C   UNL     1       7.815  27.363  56.128  1.00  0.00     0.289 C 
HETATM    8  N   UNL     1       7.621  26.124  56.723  1.00  0.00    -0.242 N 
HETATM    9  H   UNL     1       7.785  26.003  57.714  1.00  0.00     0.192 HD
HETATM   10  O   UNL     1       7.717  27.564  54.921  1.00  0.00    -0.264 OA
BRANCH   8  11
HETATM   11  N   UNL     1       7.364  25.032  55.949  1.00  0.00    -0.183 NA
HETATM   12  C   UNL     1       8.302  24.139  55.901  1.00  0.00     0.153 C 
BRANCH  12  13
HETATM   13  C   UNL     1       8.154  22.924  55.077  1.00  0.00     0.016 A 
HETATM   14  C   UNL     1       8.104  22.973  53.678  1.00  0.00     0.077 A 
HETATM   15  C   UNL     1       7.975  21.797  52.942  1.00  0.00     0.037 A 
HETATM   16  C   UNL     1       7.900  20.568  53.597  1.00  0.00     0.003 A 
HETATM   17  C   UNL     1       7.951  20.513  54.991  1.00  0.00     0.001 A 
HETATM   18  C   UNL     1       8.076  21.690  55.734  1.00  0.00     0.016 A 
BRANCH  14  19
HETATM   19  O   UNL     1       8.177  24.135  52.961  1.00  0.00    -0.360 OA
HETATM   20  H   UNL     1       7.302  24.583  53.003  1.00  0.00     0.217 HD
ENDBRANCH  14  19
ENDBRANCH  12  13
ENDBRANCH   8  11
ENDBRANCH   5   7
BRANCH   1  21
HETATM   21  C   UNL     1       8.348  30.803  59.822  1.00  0.00     0.028 A 
HETATM   22  C   UNL     1       7.529  31.945  59.877  1.00  0.00     0.081 A 
HETATM   23  C   UNL     1       7.506  32.738  61.033  1.00  0.00     0.038 A 
HETATM   24  C   UNL     1       8.249  32.383  62.158  1.00  0.00     0.003 A 
HETATM   25  C   UNL     1       9.037  31.239  62.129  1.00  0.00     0.001 A 
HETATM   26  C   UNL     1       9.090  30.460  60.970  1.00  0.00     0.017 A 
BRANCH  22  27
HETATM   27  O   UNL     1       6.748  32.421  58.856  1.00  0.00    -0.350 OA
BRANCH  27  28
HETATM   28  C   UNL     1       5.345  32.350  59.126  1.00  0.00     0.175 C 
BRANCH  28  29
HETATM   29  C   UNL     1       4.692  31.407  58.114  1.00  0.00     0.022 C 
HETATM   30  C   UNL     1       5.320  31.518  56.732  1.00  0.00     0.007 C 
ENDBRANCH  28  29
ENDBRANCH  27  28
ENDBRANCH  22  27
ENDBRANCH   1  21
TORSDOF 8
ENDMDL
MODEL 3
REMARK VINA RESULT:      -8.8      5.902      9.523
REMARK  8 active torsions:
REMARK  status: ('A' for Active; 'I' for Inactive)
REMARK    1  A    between atoms: C_2  and  C_3 
REMARK    2  A    between atoms: C_3  and  O_4 
REMARK    3  A    between atoms: O_4  and  C_5 
REMARK    4  A    between atoms: C_6  and  C_7 
REMARK    5  A    between atoms: C_11  and  C_12 
REMARK       I    between atoms: C_12  and  N_13 
REMARK    6  A    between atoms: N_13  and  N_14 
REMARK    7  A    between atoms: C_15  and  C_16 
REMARK    8  A    between atoms: C_17  and  O_18 
ROOT
HETATM    1  C   UNL     1       6.920  29.989  57.718  1.00  0.00     0.092 A 
HETATM    2  N   UNL     1       6.431  30.381  56.533  1.00  0.00    -0.174 NA
HETATM    3  N   UNL     1       6.180  29.242  55.873  1.00  0.00    -0.272 N 
HETATM    4  H   UNL     1       5.784  29.293  54.937  1.00  0.00     0.189 HD
HETATM    5  C   UNL     1       6.530  28.110  56.555  1.00  0.00     0.121 A 
HETATM    6  C   UNL     1       6.995  28.566  57.772  1.00  0.00     0.071 A 
ENDROOT
BRANCH   5   7
HETATM    7  C   UNL     1       6.380  26.804  55.964  1.00  0.00     0.289 C 
HETATM    8  N   UNL     1       6.895  25.763  56.724  1.00  0.00    -0.242 N 
HETATM    9  H   UNL     1       7.370  25.954  57.596  1.00  0.00     0.192 HD
HETATM   10  O   UNL     1       5.866  26.656  54.859  1.00  0.00    -0.264 OA
BRANCH   8  11
HETATM   11  N   UNL     1       6.900  24.495  56.223  1.00  0.00    -0.183 NA
HETATM   12  C   UNL     1       7.912  24.187  55.475  1.00  0.00     0.153 C 
BRANCH  12  13
HETATM   13  C   UNL     1       8.019  22.854  54.851  1.00  0.00     0.016 A 
HETATM   14  C   UNL     1       8.202  21.689  55.606  1.00  0.00     0.077 A 
HETATM   15  C   UNL     1       8.287  20.452  54.972  1.00  0.00     0.037 A 
HETATM   16  C   UNL     1       8.185  20.370  53.583  1.00  0.00     0.003 A 
HETATM   17  C   UNL     1       8.002  21.528  52.826  1.00  0.00     0.001 A 
HETATM   18  C   UNL     1       7.920  22.772  53.457  1.00  0.00     0.016 A 
BRANCH  14  19
HETATM   19  O   UNL     1       8.305  21.683  56.970  1.00  0.00    -0.360 OA
HETATM   20  H   UNL     1       8.637  22.562  57.261  1.00  0.00     0.217 HD
ENDBRANCH  14  19
ENDBRANCH  12  13
ENDBRANCH   8  11
ENDBRANCH   5   7
BRANCH   1  21
HETATM   21  C   UNL     1       7.348  30.935  58.751  1.00  0.00     0.028 A 
HETATM   22  C   UNL     1       8.662  31.018  59.244  1.00  0.00     0.081 A 
HETATM   23  C   UNL     1       8.965  31.896  60.296  1.00  0.00     0.038 A 
HETATM   24  C   UNL     1       7.987  32.732  60.831  1.00  0.00     0.003 A 
HETATM   25  C   UNL     1       6.691  32.684  60.331  1.00  0.00     0.001 A 
HETATM   26  C   UNL     1       6.374  31.789  59.305  1.00  0.00     0.017 A 
BRANCH  22  27
HETATM   27  O   UNL     1       9.726  30.262  58.823  1.00  0.00    -0.350 OA
BRANCH  27  28
HETATM   28  C   UNL     1      10.485  30.874  57.776  1.00  0.00     0.175 C 
BRANCH  28  29
HETATM   29  C   UNL     1      10.970  29.788  56.815  1.00  0.00     0.022 C 
HETATM   30  C   UNL     1       9.994  29.554  55.669  1.00  0.00     0.007 C 
ENDBRANCH  28  29
ENDBRANCH  27  28
ENDBRANCH  22  27
ENDBRANCH   1  21
TORSDOF 8
ENDMDL
MODEL 4
REMARK VINA RESULT:      -8.7      6.866     10.976
REMARK  8 active torsions:
REMARK  status: ('A' for Active; 'I' for Inactive)
REMARK    1  A    between atoms: C_2  and  C_3 
REMARK    2  A    between atoms: C_3  and  O_4 
REMARK    3  A    between atoms: O_4  and  C_5 
REMARK    4  A    between atoms: C_6  and  C_7 
REMARK    5  A    between atoms: C_11  and  C_12 
REMARK       I    between atoms: C_12  and  N_13 
REMARK    6  A    between atoms: N_13  and  N_14 
REMARK    7  A    between atoms: C_15  and  C_16 
REMARK    8  A    between atoms: C_17  and  O_18 
ROOT
HETATM    1  C   UNL     1       8.343  31.841  60.277  1.00  0.00     0.092 A 
HETATM    2  N   UNL     1       9.319  32.458  59.597  1.00  0.00    -0.174 NA
HETATM    3  N   UNL     1       9.610  31.628  58.586  1.00  0.00    -0.272 N 
HETATM    4  H   UNL     1      10.328  31.898  57.918  1.00  0.00     0.189 HD
HETATM    5  C   UNL     1       8.900  30.459  58.600  1.00  0.00     0.121 A 
HETATM    6  C   UNL     1       8.049  30.581  59.679  1.00  0.00     0.071 A 
ENDROOT
BRANCH   5   7
HETATM    7  C   UNL     1       9.133  29.430  57.618  1.00  0.00     0.289 C 
HETATM    8  N   UNL     1       8.062  28.573  57.413  1.00  0.00    -0.242 N 
HETATM    9  H   UNL     1       7.219  28.668  57.963  1.00  0.00     0.192 HD
HETATM   10  O   UNL     1      10.215  29.322  57.048  1.00  0.00    -0.264 OA
BRANCH   8  11
HETATM   11  N   UNL     1       8.200  27.501  56.580  1.00  0.00    -0.183 NA
HETATM   12  C   UNL     1       7.759  26.372  57.036  1.00  0.00     0.153 C 
BRANCH  12  13
HETATM   13  C   UNL     1       7.875  25.133  56.241  1.00  0.00     0.016 A 
HETATM   14  C   UNL     1       7.235  24.977  55.006  1.00  0.00     0.077 A 
HETATM   15  C   UNL     1       7.383  23.793  54.287  1.00  0.00     0.037 A 
HETATM   16  C   UNL     1       8.174  22.762  54.794  1.00  0.00     0.003 A 
HETATM   17  C   UNL     1       8.816  22.914  56.025  1.00  0.00     0.001 A 
HETATM   18  C   UNL     1       8.667  24.098  56.751  1.00  0.00     0.016 A 
BRANCH  14  19
HETATM   19  O   UNL     1       6.448  25.940  54.437  1.00  0.00    -0.360 OA
HETATM   20  H   UNL     1       5.581  25.538  54.206  1.00  0.00     0.217 HD
ENDBRANCH  14  19
ENDBRANCH  12  13
ENDBRANCH   8  11
ENDBRANCH   5   7
BRANCH   1  21
HETATM   21  C   UNL     1       7.740  32.407  61.486  1.00  0.00     0.028 A 
HETATM   22  C   UNL     1       6.512  33.092  61.505  1.00  0.00     0.081 A 
HETATM   23  C   UNL     1       6.050  33.675  62.693  1.00  0.00     0.038 A 
HETATM   24  C   UNL     1       6.769  33.543  63.880  1.00  0.00     0.003 A 
HETATM   25  C   UNL     1       7.967  32.840  63.884  1.00  0.00     0.001 A 
HETATM   26  C   UNL     1       8.451  32.283  62.697  1.00  0.00     0.017 A 
BRANCH  22  27
HETATM   27  O   UNL     1       5.697  33.306  60.423  1.00  0.00    -0.350 OA
BRANCH  27  28
HETATM   28  C   UNL     1       4.561  32.438  60.379  1.00  0.00     0.175 C 
BRANCH  28  29
HETATM   29  C   UNL     1       4.314  32.016  58.931  1.00  0.00     0.022 C 
HETATM   30  C   UNL     1       5.369  32.565  57.981  1.00  0.00     0.007 C 
ENDBRANCH  28  29
ENDBRANCH  27  28
ENDBRANCH  22  27
ENDBRANCH   1  21
TORSDOF 8
ENDMDL
MODEL 5
REMARK VINA RESULT:      -8.7      7.308     11.264
REMARK  8 active torsions:
REMARK  status: ('A' for Active; 'I' for Inactive)
REMARK    1  A    between atoms: C_2  and  C_3 
REMARK    2  A    between atoms: C_3  and  O_4 
REMARK    3  A    between atoms: O_4  and  C_5 
REMARK    4  A    between atoms: C_6  and  C_7 
REMARK    5  A    between atoms: C_11  and  C_12 
REMARK       I    between atoms: C_12  and  N_13 
REMARK    6  A    between atoms: N_13  and  N_14 
REMARK    7  A    between atoms: C_15  and  C_16 
REMARK    8  A    between atoms: C_17  and  O_18 
ROOT
HETATM    1  C   UNL     1       8.216  27.851  57.130  1.00  0.00     0.092 A 
HETATM    2  N   UNL     1       9.329  28.575  56.949  1.00  0.00    -0.174 NA
HETATM    3  N   UNL     1       9.137  29.685  57.674  1.00  0.00    -0.272 N 
HETATM    4  H   UNL     1       9.870  30.390  57.699  1.00  0.00     0.189 HD
HETATM    5  C   UNL     1       7.918  29.748  58.289  1.00  0.00     0.121 A 
HETATM    6  C   UNL     1       7.304  28.554  57.970  1.00  0.00     0.071 A 
ENDROOT
BRANCH   5   7
HETATM    7  C   UNL     1       7.527  30.902  59.060  1.00  0.00     0.289 C 
HETATM    8  N   UNL     1       7.597  30.729  60.436  1.00  0.00    -0.242 N 
HETATM    9  H   UNL     1       7.861  29.833  60.825  1.00  0.00     0.192 HD
HETATM   10  O   UNL     1       7.135  31.932  58.519  1.00  0.00    -0.264 OA
BRANCH   8  11
HETATM   11  N   UNL     1       7.158  31.717  61.267  1.00  0.00    -0.183 NA
HETATM   12  C   UNL     1       7.221  31.457  62.535  1.00  0.00     0.153 C 
BRANCH  12  13
HETATM   13  C   UNL     1       6.751  32.435  63.535  1.00  0.00     0.016 A 
HETATM   14  C   UNL     1       5.390  32.674  63.763  1.00  0.00     0.077 A 
HETATM   15  C   UNL     1       4.996  33.600  64.726  1.00  0.00     0.037 A 
HETATM   16  C   UNL     1       5.956  34.287  65.470  1.00  0.00     0.003 A 
HETATM   17  C   UNL     1       7.313  34.051  65.248  1.00  0.00     0.001 A 
HETATM   18  C   UNL     1       7.714  33.127  64.280  1.00  0.00     0.016 A 
BRANCH  14  19
HETATM   19  O   UNL     1       4.388  32.040  63.083  1.00  0.00    -0.360 OA
HETATM   20  H   UNL     1       3.649  31.866  63.707  1.00  0.00     0.217 HD
ENDBRANCH  14  19
ENDBRANCH  12  13
ENDBRANCH   8  11
ENDBRANCH   5   7
BRANCH   1  21
HETATM   21  C   UNL     1       8.002  26.552  56.487  1.00  0.00     0.028 A 
HETATM   22  C   UNL     1       7.362  26.385  55.246  1.00  0.00     0.081 A 
HETATM   23  C   UNL     1       7.123  25.097  54.746  1.00  0.00     0.038 A 
HETATM   24  C   UNL     1       7.559  23.969  55.439  1.00  0.00     0.003 A 
HETATM   25  C   UNL     1       8.223  24.121  56.651  1.00  0.00     0.001 A 
HETATM   26  C   UNL     1       8.436  25.400  57.173  1.00  0.00     0.017 A 
BRANCH  22  27
HETATM   27  O   UNL     1       6.876  27.392  54.453  1.00  0.00    -0.350 OA
BRANCH  27  28
HETATM   28  C   UNL     1       5.562  27.142  53.947  1.00  0.00     0.175 C 
BRANCH  28  29
HETATM   29  C   UNL     1       4.573  28.069  54.654  1.00  0.00     0.022 C 
HETATM   30  C   UNL     1       5.194  29.412  55.011  1.00  0.00     0.007 C 
ENDBRANCH  28  29
ENDBRANCH  27  28
ENDBRANCH  22  27
ENDBRANCH   1  21
TORSDOF 8
ENDMDL
MODEL 6
REMARK VINA RESULT:      -8.6      6.433     10.128
REMARK  8 active torsions:
REMARK  status: ('A' for Active; 'I' for Inactive)
REMARK    1  A    between atoms: C_2  and  C_3 
REMARK    2  A    between atoms: C_3  and  O_4 
REMARK    3  A    between atoms: O_4  and  C_5 
REMARK    4  A    between atoms: C_6  and  C_7 
REMARK    5  A    between atoms: C_11  and  C_12 
REMARK       I    between atoms: C_12  and  N_13 
REMARK    6  A    between atoms: N_13  and  N_14 
REMARK    7  A    between atoms: C_15  and  C_16 
REMARK    8  A    between atoms: C_17  and  O_18 
ROOT
HETATM    1  C   UNL     1       7.089  30.115  57.962  1.00  0.00     0.092 A 
HETATM    2  N   UNL     1       8.426  30.060  57.876  1.00  0.00    -0.174 NA
HETATM    3  N   UNL     1       8.699  28.779  57.594  1.00  0.00    -0.272 N 
HETATM    4  H   UNL     1       9.668  28.498  57.469  1.00  0.00     0.189 HD
HETATM    5  C   UNL     1       7.597  27.970  57.540  1.00  0.00     0.121 A 
HETATM    6  C   UNL     1       6.531  28.819  57.753  1.00  0.00     0.071 A 
ENDROOT
BRANCH   5   7
HETATM    7  C   UNL     1       7.720  26.554  57.306  1.00  0.00     0.289 C 
HETATM    8  N   UNL     1       7.168  26.115  56.110  1.00  0.00    -0.242 N 
HETATM    9  H   UNL     1       6.687  26.764  55.502  1.00  0.00     0.192 HD
HETATM   10  O   UNL     1       8.244  25.811  58.131  1.00  0.00    -0.264 OA
BRANCH   8  11
HETATM   11  N   UNL     1       7.136  24.781  55.827  1.00  0.00    -0.183 NA
HETATM   12  C   UNL     1       8.016  24.364  54.973  1.00  0.00     0.153 C 
BRANCH  12  13
HETATM   13  C   UNL     1       8.067  22.947  54.563  1.00  0.00     0.016 A 
HETATM   14  C   UNL     1       8.207  21.907  55.489  1.00  0.00     0.077 A 
HETATM   15  C   UNL     1       8.240  20.584  55.055  1.00  0.00     0.037 A 
HETATM   16  C   UNL     1       8.126  20.293  53.695  1.00  0.00     0.003 A 
HETATM   17  C   UNL     1       7.984  21.326  52.768  1.00  0.00     0.001 A 
HETATM   18  C   UNL     1       7.955  22.654  53.198  1.00  0.00     0.016 A 
BRANCH  14  19
HETATM   19  O   UNL     1       8.319  22.108  56.837  1.00  0.00    -0.360 OA
HETATM   20  H   UNL     1       8.350  23.076  57.007  1.00  0.00     0.217 HD
ENDBRANCH  14  19
ENDBRANCH  12  13
ENDBRANCH   8  11
ENDBRANCH   5   7
BRANCH   1  21
HETATM   21  C   UNL     1       6.365  31.348  58.279  1.00  0.00     0.028 A 
HETATM   22  C   UNL     1       6.413  31.988  59.530  1.00  0.00     0.081 A 
HETATM   23  C   UNL     1       5.620  33.118  59.773  1.00  0.00     0.038 A 
HETATM   24  C   UNL     1       4.814  33.654  58.770  1.00  0.00     0.003 A 
HETATM   25  C   UNL     1       4.782  33.052  57.518  1.00  0.00     0.001 A 
HETATM   26  C   UNL     1       5.545  31.906  57.277  1.00  0.00     0.017 A 
BRANCH  22  27
HETATM   27  O   UNL     1       7.151  31.580  60.611  1.00  0.00    -0.350 OA
BRANCH  27  28
HETATM   28  C   UNL     1       6.794  32.235  61.831  1.00  0.00     0.175 C 
BRANCH  28  29
HETATM   29  C   UNL     1       8.035  32.350  62.716  1.00  0.00     0.022 C 
HETATM   30  C   UNL     1       7.728  32.992  64.061  1.00  0.00     0.007 C 
ENDBRANCH  28  29
ENDBRANCH  27  28
ENDBRANCH  22  27
ENDBRANCH   1  21
TORSDOF 8
ENDMDL
MODEL 7
REMARK VINA RESULT:      -8.3      4.661      8.772
REMARK  8 active torsions:
REMARK  status: ('A' for Active; 'I' for Inactive)
REMARK    1  A    between atoms: C_2  and  C_3 
REMARK    2  A    between atoms: C_3  and  O_4 
REMARK    3  A    between atoms: O_4  and  C_5 
REMARK    4  A    between atoms: C_6  and  C_7 
REMARK    5  A    between atoms: C_11  and  C_12 
REMARK       I    between atoms: C_12  and  N_13 
REMARK    6  A    between atoms: N_13  and  N_14 
REMARK    7  A    between atoms: C_15  and  C_16 
REMARK    8  A    between atoms: C_17  and  O_18 
ROOT
HETATM    1  C   UNL     1       6.752  24.443  55.315  1.00  0.00     0.092 A 
HETATM    2  N   UNL     1       5.477  24.735  55.025  1.00  0.00    -0.174 NA
HETATM    3  N   UNL     1       5.275  25.951  55.552  1.00  0.00    -0.272 N 
HETATM    4  H   UNL     1       4.364  26.390  55.444  1.00  0.00     0.189 HD
HETATM    5  C   UNL     1       6.354  26.455  56.226  1.00  0.00     0.121 A 
HETATM    6  C   UNL     1       7.339  25.502  56.068  1.00  0.00     0.071 A 
ENDROOT
BRANCH   5   7
HETATM    7  C   UNL     1       6.286  27.725  56.903  1.00  0.00     0.289 C 
HETATM    8  N   UNL     1       7.502  28.384  57.019  1.00  0.00    -0.242 N 
HETATM    9  H   UNL     1       8.352  27.950  56.682  1.00  0.00     0.192 HD
HETATM   10  O   UNL     1       5.230  28.151  57.361  1.00  0.00    -0.264 OA
BRANCH   8  11
HETATM   11  N   UNL     1       7.579  29.547  57.727  1.00  0.00    -0.183 NA
HETATM   12  C   UNL     1       8.103  29.455  58.908  1.00  0.00     0.153 C 
BRANCH  12  13
HETATM   13  C   UNL     1       8.218  30.638  59.783  1.00  0.00     0.016 A 
HETATM   14  C   UNL     1       7.174  31.558  59.934  1.00  0.00     0.077 A 
HETATM   15  C   UNL     1       7.325  32.655  60.780  1.00  0.00     0.037 A 
HETATM   16  C   UNL     1       8.517  32.835  61.483  1.00  0.00     0.003 A 
HETATM   17  C   UNL     1       9.561  31.920  61.337  1.00  0.00     0.001 A 
HETATM   18  C   UNL     1       9.415  30.821  60.486  1.00  0.00     0.016 A 
BRANCH  14  19
HETATM   19  O   UNL     1       5.974  31.451  59.287  1.00  0.00    -0.360 OA
HETATM   20  H   UNL     1       6.062  31.861  58.397  1.00  0.00     0.217 HD
ENDBRANCH  14  19
ENDBRANCH  12  13
ENDBRANCH   8  11
ENDBRANCH   5   7
BRANCH   1  21
HETATM   21  C   UNL     1       7.382  23.178  54.932  1.00  0.00     0.028 A 
HETATM   22  C   UNL     1       7.526  22.742  53.602  1.00  0.00     0.081 A 
HETATM   23  C   UNL     1       8.065  21.476  53.331  1.00  0.00     0.038 A 
HETATM   24  C   UNL     1       8.513  20.655  54.364  1.00  0.00     0.003 A 
HETATM   25  C   UNL     1       8.408  21.086  55.681  1.00  0.00     0.001 A 
HETATM   26  C   UNL     1       7.842  22.333  55.962  1.00  0.00     0.017 A 
BRANCH  22  27
HETATM   27  O   UNL     1       7.132  23.434  52.486  1.00  0.00    -0.350 OA
BRANCH  27  28
HETATM   28  C   UNL     1       8.049  24.458  52.092  1.00  0.00     0.175 C 
BRANCH  28  29
HETATM   29  C   UNL     1       7.350  25.814  52.190  1.00  0.00     0.022 C 
HETATM   30  C   UNL     1       5.986  25.812  51.514  1.00  0.00     0.007 C 
ENDBRANCH  28  29
ENDBRANCH  27  28
ENDBRANCH  22  27
ENDBRANCH   1  21
TORSDOF 8
ENDMDL
MODEL 8
REMARK VINA RESULT:      -8.2      7.234     11.315
REMARK  8 active torsions:
REMARK  status: ('A' for Active; 'I' for Inactive)
REMARK    1  A    between atoms: C_2  and  C_3 
REMARK    2  A    between atoms: C_3  and  O_4 
REMARK    3  A    between atoms: O_4  and  C_5 
REMARK    4  A    between atoms: C_6  and  C_7 
REMARK    5  A    between atoms: C_11  and  C_12 
REMARK       I    between atoms: C_12  and  N_13 
REMARK    6  A    between atoms: N_13  and  N_14 
REMARK    7  A    between atoms: C_15  and  C_16 
REMARK    8  A    between atoms: C_17  and  O_18 
ROOT
HETATM    1  C   UNL     1       8.217  28.411  56.777  1.00  0.00     0.092 A 
HETATM    2  N   UNL     1       9.486  28.840  56.803  1.00  0.00    -0.174 NA
HETATM    3  N   UNL     1       9.560  29.627  57.884  1.00  0.00    -0.272 N 
HETATM    4  H   UNL     1      10.450  30.063  58.116  1.00  0.00     0.189 HD
HETATM    5  C   UNL     1       8.375  29.778  58.549  1.00  0.00     0.121 A 
HETATM    6  C   UNL     1       7.486  28.977  57.863  1.00  0.00     0.071 A 
ENDROOT
BRANCH   5   7
HETATM    7  C   UNL     1       8.267  30.639  59.700  1.00  0.00     0.289 C 
HETATM    8  N   UNL     1       6.994  31.142  59.928  1.00  0.00    -0.242 N 
HETATM    9  H   UNL     1       6.240  30.934  59.286  1.00  0.00     0.192 HD
HETATM   10  O   UNL     1       9.246  30.916  60.387  1.00  0.00    -0.264 OA
BRANCH   8  11
HETATM   11  N   UNL     1       6.791  32.046  60.929  1.00  0.00    -0.183 NA
HETATM   12  C   UNL     1       6.784  31.565  62.132  1.00  0.00     0.153 C 
BRANCH  12  13
HETATM   13  C   UNL     1       6.548  32.437  63.298  1.00  0.00     0.016 A 
HETATM   14  C   UNL     1       5.260  32.805  63.707  1.00  0.00     0.077 A 
HETATM   15  C   UNL     1       5.087  33.622  64.821  1.00  0.00     0.037 A 
HETATM   16  C   UNL     1       6.197  34.071  65.537  1.00  0.00     0.003 A 
HETATM   17  C   UNL     1       7.482  33.707  65.135  1.00  0.00     0.001 A 
HETATM   18  C   UNL     1       7.661  32.891  64.015  1.00  0.00     0.016 A 
BRANCH  14  19
HETATM   19  O   UNL     1       4.121  32.402  63.065  1.00  0.00    -0.360 OA
HETATM   20  H   UNL     1       3.675  33.196  62.693  1.00  0.00     0.217 HD
ENDBRANCH  14  19
ENDBRANCH  12  13
ENDBRANCH   8  11
ENDBRANCH   5   7
BRANCH   1  21
HETATM   21  C   UNL     1       7.699  27.528  55.729  1.00  0.00     0.028 A 
HETATM   22  C   UNL     1       7.510  26.144  55.890  1.00  0.00     0.081 A 
HETATM   23  C   UNL     1       7.090  25.361  54.805  1.00  0.00     0.038 A 
HETATM   24  C   UNL     1       6.805  25.944  53.572  1.00  0.00     0.003 A 
HETATM   25  C   UNL     1       6.956  27.316  53.407  1.00  0.00     0.001 A 
HETATM   26  C   UNL     1       7.405  28.099  54.474  1.00  0.00     0.017 A 
BRANCH  22  27
HETATM   27  O   UNL     1       7.749  25.430  57.036  1.00  0.00    -0.350 OA
BRANCH  27  28
HETATM   28  C   UNL     1       8.863  24.538  56.934  1.00  0.00     0.175 C 
BRANCH  28  29
HETATM   29  C   UNL     1       8.400  23.124  57.286  1.00  0.00     0.022 C 
HETATM   30  C   UNL     1       8.533  22.164  56.113  1.00  0.00     0.007 C 
ENDBRANCH  28  29
ENDBRANCH  27  28
ENDBRANCH  22  27
ENDBRANCH   1  21
TORSDOF 8
ENDMDL
MODEL 9
REMARK VINA RESULT:      -8.0      4.870      7.633
REMARK  8 active torsions:
REMARK  status: ('A' for Active; 'I' for Inactive)
REMARK    1  A    between atoms: C_2  and  C_3 
REMARK    2  A    between atoms: C_3  and  O_4 
REMARK    3  A    between atoms: O_4  and  C_5 
REMARK    4  A    between atoms: C_6  and  C_7 
REMARK    5  A    between atoms: C_11  and  C_12 
REMARK       I    between atoms: C_12  and  N_13 
REMARK    6  A    between atoms: N_13  and  N_14 
REMARK    7  A    between atoms: C_15  and  C_16 
REMARK    8  A    between atoms: C_17  and  O_18 
ROOT
HETATM    1  C   UNL     1       7.094  24.078  55.586  1.00  0.00     0.092 A 
HETATM    2  N   UNL     1       5.799  24.381  55.417  1.00  0.00    -0.174 NA
HETATM    3  N   UNL     1       5.650  25.581  55.996  1.00  0.00    -0.272 N 
HETATM    4  H   UNL     1       4.735  26.025  55.980  1.00  0.00     0.189 HD
HETATM    5  C   UNL     1       6.785  26.063  56.587  1.00  0.00     0.121 A 
HETATM    6  C   UNL     1       7.749  25.113  56.315  1.00  0.00     0.071 A 
ENDROOT
BRANCH   5   7
HETATM    7  C   UNL     1       6.783  27.313  57.304  1.00  0.00     0.289 C 
HETATM    8  N   UNL     1       5.741  28.168  56.973  1.00  0.00    -0.242 N 
HETATM    9  H   UNL     1       5.084  27.914  56.246  1.00  0.00     0.192 HD
HETATM   10  O   UNL     1       7.663  27.589  58.114  1.00  0.00    -0.264 OA
BRANCH   8  11
HETATM   11  N   UNL     1       5.692  29.419  57.514  1.00  0.00    -0.183 NA
HETATM   12  C   UNL     1       4.508  29.873  57.777  1.00  0.00     0.153 C 
BRANCH  12  13
HETATM   13  C   UNL     1       4.320  31.225  58.340  1.00  0.00     0.016 A 
HETATM   14  C   UNL     1       3.482  31.467  59.435  1.00  0.00     0.077 A 
HETATM   15  C   UNL     1       3.345  32.759  59.938  1.00  0.00     0.037 A 
HETATM   16  C   UNL     1       4.047  33.814  59.354  1.00  0.00     0.003 A 
HETATM   17  C   UNL     1       4.885  33.577  58.263  1.00  0.00     0.001 A 
HETATM   18  C   UNL     1       5.023  32.284  57.753  1.00  0.00     0.016 A 
BRANCH  14  19
HETATM   19  O   UNL     1       2.765  30.489  60.067  1.00  0.00    -0.360 OA
HETATM   20  H   UNL     1       3.176  30.318  60.944  1.00  0.00     0.217 HD
ENDBRANCH  14  19
ENDBRANCH  12  13
ENDBRANCH   8  11
ENDBRANCH   5   7
BRANCH   1  21
HETATM   21  C   UNL     1       7.683  22.824  55.112  1.00  0.00     0.028 A 
HETATM   22  C   UNL     1       7.702  22.424  53.764  1.00  0.00     0.081 A 
HETATM   23  C   UNL     1       8.210  21.166  53.410  1.00  0.00     0.038 A 
HETATM   24  C   UNL     1       8.750  20.318  54.374  1.00  0.00     0.003 A 
HETATM   25  C   UNL     1       8.769  20.713  55.706  1.00  0.00     0.001 A 
HETATM   26  C   UNL     1       8.234  21.951  56.072  1.00  0.00     0.017 A 
BRANCH  22  27
HETATM   27  O   UNL     1       7.207  23.145  52.707  1.00  0.00    -0.350 OA
BRANCH  27  28
HETATM   28  C   UNL     1       8.041  24.241  52.320  1.00  0.00     0.175 C 
BRANCH  28  29
HETATM   29  C   UNL     1       7.169  25.478  52.107  1.00  0.00     0.022 C 
HETATM   30  C   UNL     1       5.694  25.128  51.968  1.00  0.00     0.007 C 
ENDBRANCH  28  29
ENDBRANCH  27  28
ENDBRANCH  22  27
ENDBRANCH   1  21
TORSDOF 8
ENDMDL
MODEL 10
REMARK VINA RESULT:      -8.0      7.423     10.621
REMARK  8 active torsions:
REMARK  status: ('A' for Active; 'I' for Inactive)
REMARK    1  A    between atoms: C_2  and  C_3 
REMARK    2  A    between atoms: C_3  and  O_4 
REMARK    3  A    between atoms: O_4  and  C_5 
REMARK    4  A    between atoms: C_6  and  C_7 
REMARK    5  A    between atoms: C_11  and  C_12 
REMARK       I    between atoms: C_12  and  N_13 
REMARK    6  A    between atoms: N_13  and  N_14 
REMARK    7  A    between atoms: C_15  and  C_16 
REMARK    8  A    between atoms: C_17  and  O_18 
ROOT
HETATM    1  C   UNL     1       4.111  32.098  59.433  1.00  0.00     0.092 A 
HETATM    2  N   UNL     1       3.124  31.192  59.464  1.00  0.00    -0.174 NA
HETATM    3  N   UNL     1       3.416  30.334  58.478  1.00  0.00    -0.272 N 
HETATM    4  H   UNL     1       2.801  29.540  58.318  1.00  0.00     0.189 HD
HETATM    5  C   UNL     1       4.532  30.664  57.760  1.00  0.00     0.121 A 
HETATM    6  C   UNL     1       5.020  31.799  58.376  1.00  0.00     0.071 A 
ENDROOT
BRANCH   5   7
HETATM    7  C   UNL     1       4.953  29.879  56.627  1.00  0.00     0.289 C 
HETATM    8  N   UNL     1       4.365  28.625  56.542  1.00  0.00    -0.242 N 
HETATM    9  H   UNL     1       3.731  28.308  57.264  1.00  0.00     0.192 HD
HETATM   10  O   UNL     1       5.793  30.296  55.835  1.00  0.00    -0.264 OA
BRANCH   8  11
HETATM   11  N   UNL     1       4.759  27.755  55.569  1.00  0.00    -0.183 NA
HETATM   12  C   UNL     1       5.372  26.690  55.978  1.00  0.00     0.153 C 
BRANCH  12  13
HETATM   13  C   UNL     1       5.872  25.684  55.020  1.00  0.00     0.016 A 
HETATM   14  C   UNL     1       5.248  25.452  53.789  1.00  0.00     0.077 A 
HETATM   15  C   UNL     1       5.763  24.499  52.913  1.00  0.00     0.037 A 
HETATM   16  C   UNL     1       6.906  23.778  53.259  1.00  0.00     0.003 A 
HETATM   17  C   UNL     1       7.534  24.007  54.485  1.00  0.00     0.001 A 
HETATM   18  C   UNL     1       7.018  24.959  55.368  1.00  0.00     0.016 A 
BRANCH  14  19
HETATM   19  O   UNL     1       4.129  26.118  53.372  1.00  0.00    -0.360 OA
HETATM   20  H   UNL     1       4.406  26.854  52.781  1.00  0.00     0.217 HD
ENDBRANCH  14  19
ENDBRANCH  12  13
ENDBRANCH   8  11
ENDBRANCH   5   7
BRANCH   1  21
HETATM   21  C   UNL     1       4.167  33.241  60.348  1.00  0.00     0.028 A 
HETATM   22  C   UNL     1       5.047  33.331  61.441  1.00  0.00     0.081 A 
HETATM   23  C   UNL     1       4.974  34.424  62.316  1.00  0.00     0.038 A 
HETATM   24  C   UNL     1       4.069  35.460  62.089  1.00  0.00     0.003 A 
HETATM   25  C   UNL     1       3.216  35.402  60.993  1.00  0.00     0.001 A 
HETATM   26  C   UNL     1       3.261  34.300  60.135  1.00  0.00     0.017 A 
BRANCH  22  27
HETATM   27  O   UNL     1       5.985  32.394  61.794  1.00  0.00    -0.350 OA
BRANCH  27  28
HETATM   28  C   UNL     1       7.327  32.890  61.772  1.00  0.00     0.175 C 
BRANCH  28  29
HETATM   29  C   UNL     1       8.069  32.367  63.002  1.00  0.00     0.022 C 
HETATM   30  C   UNL     1       7.685  33.117  64.270  1.00  0.00     0.007 C 
ENDBRANCH  28  29
ENDBRANCH  27  28
ENDBRANCH  22  27
ENDBRANCH   1  21
TORSDOF 8
ENDMDL
