MODEL 1
REMARK VINA RESULT:     -12.0      0.000      0.000
REMARK  4 active torsions:
REMARK  status: ('A' for Active; 'I' for Inactive)
REMARK    1  A    between atoms: C_4  and  C_5 
REMARK    2  A    between atoms: N_8  and  C_9 
REMARK    3  A    between atoms: C_12  and  C_13 
REMARK       I    between atoms: C_13  and  N_14 
REMARK    4  A    between atoms: N_14  and  N_15 
ROOT
HETATM    1  C   UNL     1       7.095  29.060  55.523  1.00  0.00     0.034 A 
HETATM    2  C   UNL     1       8.404  28.942  56.003  1.00  0.00     0.030 A 
HETATM    3  C   UNL     1       8.767  29.428  57.272  1.00  0.00     0.019 A 
HETATM    4  C   UNL     1       7.814  30.054  58.083  1.00  0.00     0.033 A 
HETATM    5  C   UNL     1       6.507  30.194  57.607  1.00  0.00     0.019 A 
HETATM    6  C   UNL     1       6.159  29.711  56.343  1.00  0.00     0.030 A 
ENDROOT
BRANCH   4   7
HETATM    7  C   UNL     1       8.099  30.534  59.466  1.00  0.00     0.271 C 
HETATM    8  N   UNL     1       7.216  31.461  59.998  1.00  0.00    -0.242 N 
HETATM    9  H   UNL     1       6.363  31.736  59.511  1.00  0.00     0.192 HD
HETATM   10  O   UNL     1       9.072  30.075  60.061  1.00  0.00    -0.266 OA
BRANCH   8  11
HETATM   11  N   UNL     1       7.440  31.931  61.262  1.00  0.00    -0.166 NA
HETATM   12  C   UNL     1       6.413  32.319  61.945  1.00  0.00     0.157 A 
HETATM   13  C   UNL     1       4.939  32.325  61.540  1.00  0.00     0.277 A 
HETATM   14  C   UNL     1       6.457  32.846  63.303  1.00  0.00     0.027 A 
HETATM   15  O   UNL     1       4.514  31.957  60.464  1.00  0.00    -0.266 OA
HETATM   16  N   UNL     1       4.256  32.820  62.632  1.00  0.00    -0.321 N 
HETATM   17  C   UNL     1       5.141  33.128  63.664  1.00  0.00     0.048 A 
HETATM   18  H   UNL     1       3.255  32.938  62.657  1.00  0.00     0.169 HD
HETATM   19  C   UNL     1       4.838  33.644  64.906  1.00  0.00     0.030 A 
HETATM   20  C   UNL     1       5.905  33.875  65.784  1.00  0.00     0.002 A 
HETATM   21  C   UNL     1       7.236  33.588  65.410  1.00  0.00     0.001 A 
HETATM   22  C   UNL     1       7.525  33.064  64.149  1.00  0.00     0.016 A 
ENDBRANCH   8  11
ENDBRANCH   4   7
BRANCH   1  23
HETATM   23  N   UNL     1       6.650  28.573  54.281  1.00  0.00    -0.335 N 
HETATM   24  C   UNL     1       6.585  27.305  53.814  1.00  0.00     0.171 A 
HETATM   25  N   UNL     1       7.089  26.212  54.341  1.00  0.00    -0.223 NA
HETATM   26  S   UNL     1       5.737  27.045  52.325  1.00  0.00    -0.061 SA
HETATM   27  C   UNL     1       6.784  25.098  53.570  1.00  0.00     0.076 A 
HETATM   28  C   UNL     1       6.054  25.369  52.432  1.00  0.00     0.085 A 
HETATM   29  H   UNL     1       6.180  29.268  53.716  1.00  0.00     0.168 HD
BRANCH  27  30
HETATM   30  C   UNL     1       7.248  23.766  53.943  1.00  0.00    -0.007 A 
HETATM   31  C   UNL     1       7.236  23.323  55.275  1.00  0.00     0.014 A 
HETATM   32  C   UNL     1       7.669  22.034  55.600  1.00  0.00     0.001 A 
HETATM   33  C   UNL     1       8.119  21.176  54.599  1.00  0.00     0.000 A 
HETATM   34  C   UNL     1       8.145  21.607  53.274  1.00  0.00     0.001 A 
HETATM   35  C   UNL     1       7.716  22.896  52.949  1.00  0.00     0.014 A 
ENDBRANCH  27  30
ENDBRANCH   1  23
TORSDOF 4
ENDMDL
MODEL 2
REMARK VINA RESULT:     -11.5      1.578      2.483
REMARK  4 active torsions:
REMARK  status: ('A' for Active; 'I' for Inactive)
REMARK    1  A    between atoms: C_4  and  C_5 
REMARK    2  A    between atoms: N_8  and  C_9 
REMARK    3  A    between atoms: C_12  and  C_13 
REMARK       I    between atoms: C_13  and  N_14 
REMARK    4  A    between atoms: N_14  and  N_15 
ROOT
HETATM    1  C   UNL     1       7.075  28.149  54.493  1.00  0.00     0.034 A 
HETATM    2  C   UNL     1       8.060  28.553  55.402  1.00  0.00     0.030 A 
HETATM    3  C   UNL     1       7.763  29.425  56.465  1.00  0.00     0.019 A 
HETATM    4  C   UNL     1       6.464  29.916  56.629  1.00  0.00     0.033 A 
HETATM    5  C   UNL     1       5.476  29.534  55.717  1.00  0.00     0.019 A 
HETATM    6  C   UNL     1       5.782  28.671  54.662  1.00  0.00     0.030 A 
ENDROOT
BRANCH   4   7
HETATM    7  C   UNL     1       6.052  30.788  57.766  1.00  0.00     0.271 C 
HETATM    8  N   UNL     1       7.049  31.533  58.375  1.00  0.00    -0.242 N 
HETATM    9  H   UNL     1       8.001  31.561  58.011  1.00  0.00     0.192 HD
HETATM   10  O   UNL     1       4.864  30.816  58.087  1.00  0.00    -0.266 OA
BRANCH   8  11
HETATM   11  N   UNL     1       6.716  32.344  59.425  1.00  0.00    -0.166 NA
HETATM   12  C   UNL     1       7.274  32.102  60.566  1.00  0.00     0.157 A 
HETATM   13  C   UNL     1       8.284  31.013  60.928  1.00  0.00     0.277 A 
HETATM   14  C   UNL     1       7.042  32.857  61.791  1.00  0.00     0.027 A 
HETATM   15  O   UNL     1       8.713  30.182  60.155  1.00  0.00    -0.266 OA
HETATM   16  N   UNL     1       8.568  31.200  62.265  1.00  0.00    -0.321 N 
HETATM   17  C   UNL     1       7.842  32.276  62.773  1.00  0.00     0.048 A 
HETATM   18  H   UNL     1       9.212  30.624  62.784  1.00  0.00     0.169 HD
HETATM   19  C   UNL     1       7.856  32.766  64.062  1.00  0.00     0.030 A 
HETATM   20  C   UNL     1       7.033  33.865  64.341  1.00  0.00     0.002 A 
HETATM   21  C   UNL     1       6.224  34.447  63.341  1.00  0.00     0.001 A 
HETATM   22  C   UNL     1       6.224  33.939  62.040  1.00  0.00     0.016 A 
ENDBRANCH   8  11
ENDBRANCH   4   7
BRANCH   1  23
HETATM   23  N   UNL     1       7.287  27.258  53.426  1.00  0.00    -0.335 N 
HETATM   24  C   UNL     1       7.455  25.916  53.431  1.00  0.00     0.171 A 
HETATM   25  N   UNL     1       7.638  25.117  54.458  1.00  0.00    -0.223 NA
HETATM   26  S   UNL     1       7.434  25.103  51.900  1.00  0.00    -0.061 SA
HETATM   27  C   UNL     1       7.743  23.794  54.051  1.00  0.00     0.076 A 
HETATM   28  C   UNL     1       7.657  23.603  52.688  1.00  0.00     0.085 A 
HETATM   29  H   UNL     1       7.151  27.675  52.514  1.00  0.00     0.168 HD
BRANCH  27  30
HETATM   30  C   UNL     1       7.966  22.719  55.012  1.00  0.00    -0.007 A 
HETATM   31  C   UNL     1       8.137  22.973  56.382  1.00  0.00     0.014 A 
HETATM   32  C   UNL     1       8.330  21.921  57.282  1.00  0.00     0.001 A 
HETATM   33  C   UNL     1       8.356  20.606  56.824  1.00  0.00     0.000 A 
HETATM   34  C   UNL     1       8.198  20.340  55.465  1.00  0.00     0.001 A 
HETATM   35  C   UNL     1       8.009  21.392  54.564  1.00  0.00     0.014 A 
ENDBRANCH  27  30
ENDBRANCH   1  23
TORSDOF 4
ENDMDL
MODEL 3
REMARK VINA RESULT:     -11.1      2.912     11.224
REMARK  4 active torsions:
REMARK  status: ('A' for Active; 'I' for Inactive)
REMARK    1  A    between atoms: C_4  and  C_5 
REMARK    2  A    between atoms: N_8  and  C_9 
REMARK    3  A    between atoms: C_12  and  C_13 
REMARK       I    between atoms: C_13  and  N_14 
REMARK    4  A    between atoms: N_14  and  N_15 
ROOT
HETATM    1  C   UNL     1       5.327  30.498  57.740  1.00  0.00     0.034 A 
HETATM    2  C   UNL     1       4.626  29.398  57.232  1.00  0.00     0.030 A 
HETATM    3  C   UNL     1       5.253  28.155  57.038  1.00  0.00     0.019 A 
HETATM    4  C   UNL     1       6.608  27.996  57.344  1.00  0.00     0.033 A 
HETATM    5  C   UNL     1       7.324  29.092  57.835  1.00  0.00     0.019 A 
HETATM    6  C   UNL     1       6.692  30.325  58.020  1.00  0.00     0.030 A 
ENDROOT
BRANCH   4   7
HETATM    7  C   UNL     1       7.331  26.697  57.233  1.00  0.00     0.271 C 
HETATM    8  N   UNL     1       6.585  25.601  56.830  1.00  0.00    -0.242 N 
HETATM    9  H   UNL     1       5.613  25.687  56.534  1.00  0.00     0.192 HD
HETATM   10  O   UNL     1       8.536  26.668  57.480  1.00  0.00    -0.266 OA
BRANCH   8  11
HETATM   11  N   UNL     1       7.206  24.387  56.718  1.00  0.00    -0.166 NA
HETATM   12  C   UNL     1       7.224  23.832  55.551  1.00  0.00     0.157 A 
HETATM   13  C   UNL     1       6.640  24.345  54.235  1.00  0.00     0.277 A 
HETATM   14  C   UNL     1       7.837  22.546  55.242  1.00  0.00     0.027 A 
HETATM   15  O   UNL     1       6.042  25.394  54.105  1.00  0.00    -0.266 OA
HETATM   16  N   UNL     1       6.942  23.383  53.294  1.00  0.00    -0.321 N 
HETATM   17  C   UNL     1       7.641  22.328  53.880  1.00  0.00     0.048 A 
HETATM   18  H   UNL     1       6.681  23.452  52.323  1.00  0.00     0.169 HD
HETATM   19  C   UNL     1       8.110  21.187  53.266  1.00  0.00     0.030 A 
HETATM   20  C   UNL     1       8.788  20.259  54.067  1.00  0.00     0.002 A 
HETATM   21  C   UNL     1       8.982  20.485  55.446  1.00  0.00     0.001 A 
HETATM   22  C   UNL     1       8.501  21.648  56.052  1.00  0.00     0.016 A 
ENDBRANCH   8  11
ENDBRANCH   4   7
BRANCH   1  23
HETATM   23  N   UNL     1       4.762  31.761  57.990  1.00  0.00    -0.335 N 
HETATM   24  C   UNL     1       4.944  32.608  59.029  1.00  0.00     0.171 A 
HETATM   25  N   UNL     1       5.566  32.388  60.165  1.00  0.00    -0.223 NA
HETATM   26  S   UNL     1       4.283  34.204  58.883  1.00  0.00    -0.061 SA
HETATM   27  C   UNL     1       5.560  33.521  60.967  1.00  0.00     0.076 A 
HETATM   28  C   UNL     1       4.901  34.605  60.426  1.00  0.00     0.085 A 
HETATM   29  H   UNL     1       4.257  32.145  57.201  1.00  0.00     0.168 HD
BRANCH  27  30
HETATM   30  C   UNL     1       6.177  33.520  62.289  1.00  0.00    -0.007 A 
HETATM   31  C   UNL     1       7.317  32.751  62.574  1.00  0.00     0.014 A 
HETATM   32  C   UNL     1       7.898  32.784  63.845  1.00  0.00     0.001 A 
HETATM   33  C   UNL     1       7.345  33.583  64.844  1.00  0.00     0.000 A 
HETATM   34  C   UNL     1       6.208  34.343  64.577  1.00  0.00     0.001 A 
HETATM   35  C   UNL     1       5.625  34.307  63.308  1.00  0.00     0.014 A 
ENDBRANCH  27  30
ENDBRANCH   1  23
TORSDOF 4
ENDMDL
MODEL 4
REMARK VINA RESULT:     -10.9      3.049     10.954
REMARK  4 active torsions:
REMARK  status: ('A' for Active; 'I' for Inactive)
REMARK    1  A    between atoms: C_4  and  C_5 
REMARK    2  A    between atoms: N_8  and  C_9 
REMARK    3  A    between atoms: C_12  and  C_13 
REMARK       I    between atoms: C_13  and  N_14 
REMARK    4  A    between atoms: N_14  and  N_15 
ROOT
HETATM    1  C   UNL     1       4.749  30.453  56.660  1.00  0.00     0.034 A 
HETATM    2  C   UNL     1       6.123  30.383  56.399  1.00  0.00     0.030 A 
HETATM    3  C   UNL     1       6.691  29.271  55.751  1.00  0.00     0.019 A 
HETATM    4  C   UNL     1       5.883  28.200  55.357  1.00  0.00     0.033 A 
HETATM    5  C   UNL     1       4.513  28.250  55.628  1.00  0.00     0.019 A 
HETATM    6  C   UNL     1       3.960  29.357  56.277  1.00  0.00     0.030 A 
ENDROOT
BRANCH   4   7
HETATM    7  C   UNL     1       6.393  27.018  54.605  1.00  0.00     0.271 C 
HETATM    8  N   UNL     1       5.934  25.775  55.010  1.00  0.00    -0.242 N 
HETATM    9  H   UNL     1       5.213  25.671  55.724  1.00  0.00     0.192 HD
HETATM   10  O   UNL     1       7.165  27.205  53.666  1.00  0.00    -0.266 OA
BRANCH   8  11
HETATM   11  N   UNL     1       6.378  24.662  54.350  1.00  0.00    -0.166 NA
HETATM   12  C   UNL     1       7.081  23.811  55.022  1.00  0.00     0.157 A 
HETATM   13  C   UNL     1       7.500  23.861  56.491  1.00  0.00     0.277 A 
HETATM   14  C   UNL     1       7.637  22.573  54.489  1.00  0.00     0.027 A 
HETATM   15  O   UNL     1       7.222  24.757  57.261  1.00  0.00    -0.266 OA
HETATM   16  N   UNL     1       8.225  22.708  56.710  1.00  0.00    -0.321 N 
HETATM   17  C   UNL     1       8.308  21.953  55.541  1.00  0.00     0.048 A 
HETATM   18  H   UNL     1       8.632  22.465  57.600  1.00  0.00     0.169 HD
HETATM   19  C   UNL     1       8.949  20.745  55.363  1.00  0.00     0.030 A 
HETATM   20  C   UNL     1       8.898  20.173  54.085  1.00  0.00     0.002 A 
HETATM   21  C   UNL     1       8.217  20.808  53.025  1.00  0.00     0.001 A 
HETATM   22  C   UNL     1       7.572  22.030  53.223  1.00  0.00     0.016 A 
ENDBRANCH   8  11
ENDBRANCH   4   7
BRANCH   1  23
HETATM   23  N   UNL     1       4.106  31.541  57.275  1.00  0.00    -0.335 N 
HETATM   24  C   UNL     1       4.430  32.228  58.395  1.00  0.00     0.171 A 
HETATM   25  N   UNL     1       5.340  31.938  59.297  1.00  0.00    -0.223 NA
HETATM   26  S   UNL     1       3.552  33.686  58.720  1.00  0.00    -0.061 SA
HETATM   27  C   UNL     1       5.388  32.908  60.289  1.00  0.00     0.076 A 
HETATM   28  C   UNL     1       4.479  33.934  60.135  1.00  0.00     0.085 A 
HETATM   29  H   UNL     1       3.374  31.953  56.711  1.00  0.00     0.168 HD
BRANCH  27  30
HETATM   30  C   UNL     1       6.312  32.800  61.413  1.00  0.00    -0.007 A 
HETATM   31  C   UNL     1       7.442  31.969  61.367  1.00  0.00     0.014 A 
HETATM   32  C   UNL     1       8.320  31.901  62.452  1.00  0.00     0.001 A 
HETATM   33  C   UNL     1       8.078  32.659  63.595  1.00  0.00     0.000 A 
HETATM   34  C   UNL     1       6.954  33.481  63.658  1.00  0.00     0.001 A 
HETATM   35  C   UNL     1       6.074  33.547  62.575  1.00  0.00     0.014 A 
ENDBRANCH  27  30
ENDBRANCH   1  23
TORSDOF 4
ENDMDL
MODEL 5
REMARK VINA RESULT:     -10.3      1.755      2.617
REMARK  4 active torsions:
REMARK  status: ('A' for Active; 'I' for Inactive)
REMARK    1  A    between atoms: C_4  and  C_5 
REMARK    2  A    between atoms: N_8  and  C_9 
REMARK    3  A    between atoms: C_12  and  C_13 
REMARK       I    between atoms: C_13  and  N_14 
REMARK    4  A    between atoms: N_14  and  N_15 
ROOT
HETATM    1  C   UNL     1       4.679  29.573  54.653  1.00  0.00     0.034 A 
HETATM    2  C   UNL     1       4.825  28.854  55.845  1.00  0.00     0.030 A 
HETATM    3  C   UNL     1       4.696  29.478  57.099  1.00  0.00     0.019 A 
HETATM    4  C   UNL     1       4.424  30.847  57.177  1.00  0.00     0.033 A 
HETATM    5  C   UNL     1       4.294  31.580  55.994  1.00  0.00     0.019 A 
HETATM    6  C   UNL     1       4.429  30.951  54.753  1.00  0.00     0.030 A 
ENDROOT
BRANCH   4   7
HETATM    7  C   UNL     1       4.204  31.571  58.462  1.00  0.00     0.271 C 
HETATM    8  N   UNL     1       5.283  31.645  59.329  1.00  0.00    -0.242 N 
HETATM    9  H   UNL     1       6.209  31.305  59.070  1.00  0.00     0.192 HD
HETATM   10  O   UNL     1       3.102  32.074  58.674  1.00  0.00    -0.266 OA
BRANCH   8  11
HETATM   11  N   UNL     1       5.125  32.296  60.521  1.00  0.00    -0.166 NA
HETATM   12  C   UNL     1       6.126  32.292  61.340  1.00  0.00     0.157 A 
HETATM   13  C   UNL     1       7.504  31.653  61.167  1.00  0.00     0.277 A 
HETATM   14  C   UNL     1       6.142  32.932  62.650  1.00  0.00     0.027 A 
HETATM   15  O   UNL     1       7.858  31.023  60.193  1.00  0.00    -0.266 OA
HETATM   16  N   UNL     1       8.199  31.953  62.321  1.00  0.00    -0.321 N 
HETATM   17  C   UNL     1       7.405  32.699  63.191  1.00  0.00     0.048 A 
HETATM   18  H   UNL     1       9.148  31.660  62.492  1.00  0.00     0.169 HD
HETATM   19  C   UNL     1       7.746  33.182  64.436  1.00  0.00     0.030 A 
HETATM   20  C   UNL     1       6.772  33.910  65.132  1.00  0.00     0.002 A 
HETATM   21  C   UNL     1       5.495  34.140  64.578  1.00  0.00     0.001 A 
HETATM   22  C   UNL     1       5.166  33.646  63.314  1.00  0.00     0.016 A 
ENDBRANCH   8  11
ENDBRANCH   4   7
BRANCH   1  23
HETATM   23  N   UNL     1       4.764  29.014  53.366  1.00  0.00    -0.335 N 
HETATM   24  C   UNL     1       5.199  27.796  52.970  1.00  0.00     0.171 A 
HETATM   25  N   UNL     1       5.824  26.881  53.676  1.00  0.00    -0.223 NA
HETATM   26  S   UNL     1       4.919  27.345  51.320  1.00  0.00    -0.061 SA
HETATM   27  C   UNL     1       6.081  25.750  52.914  1.00  0.00     0.076 A 
HETATM   28  C   UNL     1       5.659  25.830  51.604  1.00  0.00     0.085 A 
HETATM   29  H   UNL     1       4.294  29.559  52.654  1.00  0.00     0.168 HD
BRANCH  27  30
HETATM   30  C   UNL     1       6.782  24.599  53.475  1.00  0.00    -0.007 A 
HETATM   31  C   UNL     1       6.701  24.275  54.839  1.00  0.00     0.014 A 
HETATM   32  C   UNL     1       7.368  23.155  55.344  1.00  0.00     0.001 A 
HETATM   33  C   UNL     1       8.123  22.349  54.494  1.00  0.00     0.000 A 
HETATM   34  C   UNL     1       8.219  22.666  53.141  1.00  0.00     0.001 A 
HETATM   35  C   UNL     1       7.556  23.787  52.635  1.00  0.00     0.014 A 
ENDBRANCH  27  30
ENDBRANCH   1  23
TORSDOF 4
ENDMDL
MODEL 6
REMARK VINA RESULT:     -10.0      3.271     10.814
REMARK  4 active torsions:
REMARK  status: ('A' for Active; 'I' for Inactive)
REMARK    1  A    between atoms: C_4  and  C_5 
REMARK    2  A    between atoms: N_8  and  C_9 
REMARK    3  A    between atoms: C_12  and  C_13 
REMARK       I    between atoms: C_13  and  N_14 
REMARK    4  A    between atoms: N_14  and  N_15 
ROOT
HETATM    1  C   UNL     1       3.825  32.284  57.208  1.00  0.00     0.034 A 
HETATM    2  C   UNL     1       4.297  32.471  55.904  1.00  0.00     0.030 A 
HETATM    3  C   UNL     1       4.712  31.386  55.111  1.00  0.00     0.019 A 
HETATM    4  C   UNL     1       4.667  30.085  55.622  1.00  0.00     0.033 A 
HETATM    5  C   UNL     1       4.214  29.887  56.929  1.00  0.00     0.019 A 
HETATM    6  C   UNL     1       3.809  30.973  57.710  1.00  0.00     0.030 A 
ENDROOT
BRANCH   4   7
HETATM    7  C   UNL     1       5.021  28.876  54.826  1.00  0.00     0.271 C 
HETATM    8  N   UNL     1       6.288  28.349  55.022  1.00  0.00    -0.242 N 
HETATM    9  H   UNL     1       6.918  28.708  55.740  1.00  0.00     0.192 HD
HETATM   10  O   UNL     1       4.179  28.403  54.064  1.00  0.00    -0.266 OA
BRANCH   8  11
HETATM   11  N   UNL     1       6.657  27.241  54.310  1.00  0.00    -0.166 NA
HETATM   12  C   UNL     1       6.787  26.131  54.959  1.00  0.00     0.157 A 
HETATM   13  C   UNL     1       6.578  25.860  56.449  1.00  0.00     0.277 A 
HETATM   14  C   UNL     1       7.171  24.854  54.370  1.00  0.00     0.027 A 
HETATM   15  O   UNL     1       6.255  26.697  57.266  1.00  0.00    -0.266 OA
HETATM   16  N   UNL     1       6.831  24.515  56.621  1.00  0.00    -0.321 N 
HETATM   17  C   UNL     1       7.180  23.923  55.408  1.00  0.00     0.048 A 
HETATM   18  H   UNL     1       6.769  24.046  57.511  1.00  0.00     0.169 HD
HETATM   19  C   UNL     1       7.504  22.603  55.179  1.00  0.00     0.030 A 
HETATM   20  C   UNL     1       7.826  22.240  53.864  1.00  0.00     0.002 A 
HETATM   21  C   UNL     1       7.816  23.188  52.819  1.00  0.00     0.001 A 
HETATM   22  C   UNL     1       7.483  24.521  53.069  1.00  0.00     0.016 A 
ENDBRANCH   8  11
ENDBRANCH   4   7
BRANCH   1  23
HETATM   23  N   UNL     1       3.366  33.313  58.049  1.00  0.00    -0.335 N 
HETATM   24  C   UNL     1       3.857  33.762  59.227  1.00  0.00     0.171 A 
HETATM   25  N   UNL     1       4.793  33.230  59.979  1.00  0.00    -0.223 NA
HETATM   26  S   UNL     1       3.186  35.228  59.865  1.00  0.00    -0.061 SA
HETATM   27  C   UNL     1       5.034  34.008  61.103  1.00  0.00     0.076 A 
HETATM   28  C   UNL     1       4.245  35.134  61.204  1.00  0.00     0.085 A 
HETATM   29  H   UNL     1       2.646  33.889  57.631  1.00  0.00     0.168 HD
BRANCH  27  30
HETATM   30  C   UNL     1       6.024  33.615  62.101  1.00  0.00    -0.007 A 
HETATM   31  C   UNL     1       7.067  32.725  61.800  1.00  0.00     0.014 A 
HETATM   32  C   UNL     1       8.012  32.382  62.771  1.00  0.00     0.001 A 
HETATM   33  C   UNL     1       7.924  32.921  64.052  1.00  0.00     0.000 A 
HETATM   34  C   UNL     1       6.888  33.798  64.368  1.00  0.00     0.001 A 
HETATM   35  C   UNL     1       5.940  34.139  63.398  1.00  0.00     0.014 A 
ENDBRANCH  27  30
ENDBRANCH   1  23
TORSDOF 4
ENDMDL
MODEL 7
REMARK VINA RESULT:      -9.5      7.685     11.524
REMARK  4 active torsions:
REMARK  status: ('A' for Active; 'I' for Inactive)
REMARK    1  A    between atoms: C_4  and  C_5 
REMARK    2  A    between atoms: N_8  and  C_9 
REMARK    3  A    between atoms: C_12  and  C_13 
REMARK       I    between atoms: C_13  and  N_14 
REMARK    4  A    between atoms: N_14  and  N_15 
ROOT
HETATM    1  C   UNL     1       4.970  26.906  52.651  1.00  0.00     0.034 A 
HETATM    2  C   UNL     1       5.100  25.978  51.612  1.00  0.00     0.030 A 
HETATM    3  C   UNL     1       5.004  26.368  50.264  1.00  0.00     0.019 A 
HETATM    4  C   UNL     1       4.765  27.706  49.935  1.00  0.00     0.033 A 
HETATM    5  C   UNL     1       4.616  28.639  50.966  1.00  0.00     0.019 A 
HETATM    6  C   UNL     1       4.708  28.240  52.301  1.00  0.00     0.030 A 
ENDROOT
BRANCH   4   7
HETATM    7  C   UNL     1       4.719  28.214  48.534  1.00  0.00     0.271 C 
HETATM    8  N   UNL     1       4.261  29.509  48.356  1.00  0.00    -0.242 N 
HETATM    9  H   UNL     1       4.052  30.123  49.143  1.00  0.00     0.192 HD
HETATM   10  O   UNL     1       5.102  27.477  47.627  1.00  0.00    -0.266 OA
BRANCH   8  11
HETATM   11  N   UNL     1       4.198  30.016  47.087  1.00  0.00    -0.166 NA
HETATM   12  C   UNL     1       4.685  31.197  46.891  1.00  0.00     0.157 A 
HETATM   13  C   UNL     1       5.345  32.142  47.896  1.00  0.00     0.277 A 
HETATM   14  C   UNL     1       4.706  31.895  45.611  1.00  0.00     0.027 A 
HETATM   15  O   UNL     1       5.500  31.900  49.075  1.00  0.00    -0.266 OA
HETATM   16  N   UNL     1       5.698  33.263  47.174  1.00  0.00    -0.321 N 
HETATM   17  C   UNL     1       5.324  33.124  45.838  1.00  0.00     0.048 A 
HETATM   18  H   UNL     1       6.158  34.064  47.578  1.00  0.00     0.169 HD
HETATM   19  C   UNL     1       5.505  34.030  44.816  1.00  0.00     0.030 A 
HETATM   20  C   UNL     1       5.040  33.666  43.545  1.00  0.00     0.002 A 
HETATM   21  C   UNL     1       4.414  32.421  43.323  1.00  0.00     0.001 A 
HETATM   22  C   UNL     1       4.241  31.513  44.370  1.00  0.00     0.016 A 
ENDBRANCH   8  11
ENDBRANCH   4   7
BRANCH   1  23
HETATM   23  N   UNL     1       5.083  26.597  54.019  1.00  0.00    -0.335 N 
HETATM   24  C   UNL     1       5.730  25.580  54.633  1.00  0.00     0.171 A 
HETATM   25  N   UNL     1       6.275  24.513  54.094  1.00  0.00    -0.223 NA
HETATM   26  S   UNL     1       5.880  25.655  56.358  1.00  0.00    -0.061 SA
HETATM   27  C   UNL     1       6.869  23.712  55.060  1.00  0.00     0.076 A 
HETATM   28  C   UNL     1       6.746  24.182  56.351  1.00  0.00     0.085 A 
HETATM   29  H   UNL     1       4.748  27.331  54.630  1.00  0.00     0.168 HD
BRANCH  27  30
HETATM   30  C   UNL     1       7.528  22.459  54.708  1.00  0.00    -0.007 A 
HETATM   31  C   UNL     1       7.934  21.536  55.685  1.00  0.00     0.014 A 
HETATM   32  C   UNL     1       8.546  20.334  55.317  1.00  0.00     0.001 A 
HETATM   33  C   UNL     1       8.760  20.043  53.971  1.00  0.00     0.000 A 
HETATM   34  C   UNL     1       8.370  20.954  52.993  1.00  0.00     0.001 A 
HETATM   35  C   UNL     1       7.762  22.158  53.360  1.00  0.00     0.014 A 
ENDBRANCH  27  30
ENDBRANCH   1  23
TORSDOF 4
ENDMDL
MODEL 8
REMARK VINA RESULT:      -9.4      6.736     11.173
REMARK  4 active torsions:
REMARK  status: ('A' for Active; 'I' for Inactive)
REMARK    1  A    between atoms: C_4  and  C_5 
REMARK    2  A    between atoms: N_8  and  C_9 
REMARK    3  A    between atoms: C_12  and  C_13 
REMARK       I    between atoms: C_13  and  N_14 
REMARK    4  A    between atoms: N_14  and  N_15 
ROOT
HETATM    1  C   UNL     1       5.881  27.979  54.325  1.00  0.00     0.034 A 
HETATM    2  C   UNL     1       6.403  28.216  53.048  1.00  0.00     0.030 A 
HETATM    3  C   UNL     1       5.591  28.685  52.000  1.00  0.00     0.019 A 
HETATM    4  C   UNL     1       4.229  28.918  52.216  1.00  0.00     0.033 A 
HETATM    5  C   UNL     1       3.693  28.667  53.483  1.00  0.00     0.019 A 
HETATM    6  C   UNL     1       4.507  28.197  54.516  1.00  0.00     0.030 A 
ENDROOT
BRANCH   4   7
HETATM    7  C   UNL     1       3.315  29.479  51.180  1.00  0.00     0.271 C 
HETATM    8  N   UNL     1       3.602  29.168  49.861  1.00  0.00    -0.242 N 
HETATM    9  H   UNL     1       4.343  28.515  49.608  1.00  0.00     0.192 HD
HETATM   10  O   UNL     1       2.358  30.160  51.545  1.00  0.00    -0.266 OA
BRANCH   8  11
HETATM   11  N   UNL     1       2.792  29.665  48.877  1.00  0.00    -0.166 NA
HETATM   12  C   UNL     1       2.131  28.814  48.163  1.00  0.00     0.157 A 
HETATM   13  C   UNL     1       2.114  27.288  48.258  1.00  0.00     0.277 A 
HETATM   14  C   UNL     1       1.222  29.157  47.075  1.00  0.00     0.027 A 
HETATM   15  O   UNL     1       2.761  26.637  49.053  1.00  0.00    -0.266 OA
HETATM   16  N   UNL     1       1.239  26.865  47.280  1.00  0.00    -0.321 N 
HETATM   17  C   UNL     1       0.716  27.954  46.585  1.00  0.00     0.048 A 
HETATM   18  H   UNL     1       1.023  25.895  47.107  1.00  0.00     0.169 HD
HETATM   19  C   UNL     1      -0.184  27.933  45.542  1.00  0.00     0.030 A 
HETATM   20  C   UNL     1      -0.565  29.166  44.996  1.00  0.00     0.002 A 
HETATM   21  C   UNL     1      -0.047  30.380  45.497  1.00  0.00     0.001 A 
HETATM   22  C   UNL     1       0.864  30.383  46.556  1.00  0.00     0.016 A 
ENDBRANCH   8  11
ENDBRANCH   4   7
BRANCH   1  23
HETATM   23  N   UNL     1       6.634  27.540  55.428  1.00  0.00    -0.335 N 
HETATM   24  C   UNL     1       7.237  26.351  55.656  1.00  0.00     0.171 A 
HETATM   25  N   UNL     1       7.124  25.233  54.975  1.00  0.00    -0.223 NA
HETATM   26  S   UNL     1       8.306  26.244  57.016  1.00  0.00    -0.061 SA
HETATM   27  C   UNL     1       7.927  24.236  55.512  1.00  0.00     0.076 A 
HETATM   28  C   UNL     1       8.640  24.612  56.632  1.00  0.00     0.085 A 
HETATM   29  H   UNL     1       6.874  28.279  56.077  1.00  0.00     0.168 HD
BRANCH  27  30
HETATM   30  C   UNL     1       7.961  22.895  54.938  1.00  0.00    -0.007 A 
HETATM   31  C   UNL     1       7.963  21.744  55.742  1.00  0.00     0.014 A 
HETATM   32  C   UNL     1       7.976  20.472  55.163  1.00  0.00     0.001 A 
HETATM   33  C   UNL     1       7.990  20.336  53.776  1.00  0.00     0.000 A 
HETATM   34  C   UNL     1       7.999  21.470  52.967  1.00  0.00     0.001 A 
HETATM   35  C   UNL     1       7.990  22.742  53.545  1.00  0.00     0.014 A 
ENDBRANCH  27  30
ENDBRANCH   1  23
TORSDOF 4
ENDMDL
MODEL 9
REMARK VINA RESULT:      -9.2      2.823      4.147
REMARK  4 active torsions:
REMARK  status: ('A' for Active; 'I' for Inactive)
REMARK    1  A    between atoms: C_4  and  C_5 
REMARK    2  A    between atoms: N_8  and  C_9 
REMARK    3  A    between atoms: C_12  and  C_13 
REMARK       I    between atoms: C_13  and  N_14 
REMARK    4  A    between atoms: N_14  and  N_15 
ROOT
HETATM    1  C   UNL     1       5.492  27.990  56.172  1.00  0.00     0.034 A 
HETATM    2  C   UNL     1       6.716  28.312  56.769  1.00  0.00     0.030 A 
HETATM    3  C   UNL     1       6.888  29.507  57.491  1.00  0.00     0.019 A 
HETATM    4  C   UNL     1       5.827  30.408  57.620  1.00  0.00     0.033 A 
HETATM    5  C   UNL     1       4.605  30.106  57.014  1.00  0.00     0.019 A 
HETATM    6  C   UNL     1       4.446  28.919  56.295  1.00  0.00     0.030 A 
ENDROOT
BRANCH   4   7
HETATM    7  C   UNL     1       5.905  31.661  58.425  1.00  0.00     0.271 C 
HETATM    8  N   UNL     1       6.012  31.514  59.799  1.00  0.00    -0.242 N 
HETATM    9  H   UNL     1       6.125  30.600  60.238  1.00  0.00     0.192 HD
HETATM   10  O   UNL     1       5.893  32.742  57.838  1.00  0.00    -0.266 OA
BRANCH   8  11
HETATM   11  N   UNL     1       6.082  32.636  60.577  1.00  0.00    -0.166 NA
HETATM   12  C   UNL     1       5.054  32.922  61.306  1.00  0.00     0.157 A 
HETATM   13  C   UNL     1       3.730  32.168  61.437  1.00  0.00     0.277 A 
HETATM   14  C   UNL     1       4.948  34.073  62.195  1.00  0.00     0.027 A 
HETATM   15  O   UNL     1       3.450  31.152  60.834  1.00  0.00    -0.266 OA
HETATM   16  N   UNL     1       2.984  32.883  62.350  1.00  0.00    -0.321 N 
HETATM   17  C   UNL     1       3.692  33.999  62.795  1.00  0.00     0.048 A 
HETATM   18  H   UNL     1       2.055  32.619  62.639  1.00  0.00     0.169 HD
HETATM   19  C   UNL     1       3.279  34.950  63.703  1.00  0.00     0.030 A 
HETATM   20  C   UNL     1       4.171  35.991  63.993  1.00  0.00     0.002 A 
HETATM   21  C   UNL     1       5.441  36.060  63.382  1.00  0.00     0.001 A 
HETATM   22  C   UNL     1       5.844  35.087  62.465  1.00  0.00     0.016 A 
ENDBRANCH   8  11
ENDBRANCH   4   7
BRANCH   1  23
HETATM   23  N   UNL     1       5.235  26.804  55.462  1.00  0.00    -0.335 N 
HETATM   24  C   UNL     1       5.194  26.576  54.129  1.00  0.00     0.171 A 
HETATM   25  N   UNL     1       5.210  27.451  53.149  1.00  0.00    -0.223 NA
HETATM   26  S   UNL     1       5.104  24.927  53.603  1.00  0.00    -0.061 SA
HETATM   27  C   UNL     1       5.180  26.819  51.914  1.00  0.00     0.076 A 
HETATM   28  C   UNL     1       5.117  25.442  51.973  1.00  0.00     0.085 A 
HETATM   29  H   UNL     1       5.221  25.976  56.044  1.00  0.00     0.168 HD
BRANCH  27  30
HETATM   30  C   UNL     1       5.175  27.581  50.670  1.00  0.00    -0.007 A 
HETATM   31  C   UNL     1       5.548  28.934  50.629  1.00  0.00     0.014 A 
HETATM   32  C   UNL     1       5.552  29.634  49.419  1.00  0.00     0.001 A 
HETATM   33  C   UNL     1       5.182  28.992  48.239  1.00  0.00     0.000 A 
HETATM   34  C   UNL     1       4.800  27.652  48.267  1.00  0.00     0.001 A 
HETATM   35  C   UNL     1       4.792  26.953  49.477  1.00  0.00     0.014 A 
ENDBRANCH  27  30
ENDBRANCH   1  23
TORSDOF 4
ENDMDL
MODEL 10
REMARK VINA RESULT:      -9.2      6.249     10.375
REMARK  4 active torsions:
REMARK  status: ('A' for Active; 'I' for Inactive)
REMARK    1  A    between atoms: C_4  and  C_5 
REMARK    2  A    between atoms: N_8  and  C_9 
REMARK    3  A    between atoms: C_12  and  C_13 
REMARK       I    between atoms: C_13  and  N_14 
REMARK    4  A    between atoms: N_14  and  N_15 
ROOT
HETATM    1  C   UNL     1       4.099  30.109  53.204  1.00  0.00     0.034 A 
HETATM    2  C   UNL     1       4.274  30.133  54.593  1.00  0.00     0.030 A 
HETATM    3  C   UNL     1       4.934  29.090  55.267  1.00  0.00     0.019 A 
HETATM    4  C   UNL     1       5.428  27.994  54.553  1.00  0.00     0.033 A 
HETATM    5  C   UNL     1       5.243  27.950  53.168  1.00  0.00     0.019 A 
HETATM    6  C   UNL     1       4.581  28.989  52.509  1.00  0.00     0.030 A 
ENDROOT
BRANCH   4   7
HETATM    7  C   UNL     1       6.199  26.883  55.180  1.00  0.00     0.271 C 
HETATM    8  N   UNL     1       5.691  25.604  55.022  1.00  0.00    -0.242 N 
HETATM    9  H   UNL     1       4.882  25.412  54.431  1.00  0.00     0.192 HD
HETATM   10  O   UNL     1       7.241  27.151  55.777  1.00  0.00    -0.266 OA
BRANCH   8  11
HETATM   11  N   UNL     1       6.364  24.554  55.584  1.00  0.00    -0.166 NA
HETATM   12  C   UNL     1       6.891  23.686  54.783  1.00  0.00     0.157 A 
HETATM   13  C   UNL     1       6.878  23.659  53.255  1.00  0.00     0.277 A 
HETATM   14  C   UNL     1       7.643  22.508  55.198  1.00  0.00     0.027 A 
HETATM   15  O   UNL     1       6.335  24.486  52.552  1.00  0.00    -0.266 OA
HETATM   16  N   UNL     1       7.592  22.534  52.897  1.00  0.00    -0.321 N 
HETATM   17  C   UNL     1       8.039  21.857  54.031  1.00  0.00     0.048 A 
HETATM   18  H   UNL     1       7.753  22.256  51.942  1.00  0.00     0.169 HD
HETATM   19  C   UNL     1       8.779  20.695  54.080  1.00  0.00     0.030 A 
HETATM   20  C   UNL     1       9.111  20.198  55.347  1.00  0.00     0.002 A 
HETATM   21  C   UNL     1       8.705  20.862  56.524  1.00  0.00     0.001 A 
HETATM   22  C   UNL     1       7.957  22.039  56.457  1.00  0.00     0.016 A 
ENDBRANCH   8  11
ENDBRANCH   4   7
BRANCH   1  23
HETATM   23  N   UNL     1       3.477  31.126  52.458  1.00  0.00    -0.335 N 
HETATM   24  C   UNL     1       2.718  31.049  51.341  1.00  0.00     0.171 A 
HETATM   25  N   UNL     1       2.512  30.011  50.562  1.00  0.00    -0.223 NA
HETATM   26  S   UNL     1       1.893  32.487  50.834  1.00  0.00    -0.061 SA
HETATM   27  C   UNL     1       1.646  30.328  49.525  1.00  0.00     0.076 A 
HETATM   28  C   UNL     1       1.212  31.637  49.517  1.00  0.00     0.085 A 
HETATM   29  H   UNL     1       3.487  32.030  52.914  1.00  0.00     0.168 HD
BRANCH  27  30
HETATM   30  C   UNL     1       1.275  29.342  48.515  1.00  0.00    -0.007 A 
HETATM   31  C   UNL     1       0.620  29.706  47.329  1.00  0.00     0.014 A 
HETATM   32  C   UNL     1       0.294  28.741  46.370  1.00  0.00     0.001 A 
HETATM   33  C   UNL     1       0.618  27.404  46.589  1.00  0.00     0.000 A 
HETATM   34  C   UNL     1       1.259  27.027  47.767  1.00  0.00     0.001 A 
HETATM   35  C   UNL     1       1.582  27.991  48.727  1.00  0.00     0.014 A 
ENDBRANCH  27  30
ENDBRANCH   1  23
TORSDOF 4
ENDMDL
