MODEL 1
REMARK VINA RESULT:      -9.8      0.000      0.000
REMARK  10 active torsions:
REMARK  status: ('A' for Active; 'I' for Inactive)
REMARK    1  A    between atoms: C_7  and  N_8 
REMARK    2  A    between atoms: C_9  and  S_10 
REMARK    3  A    between atoms: S_10  and  C_11 
REMARK    4  A    between atoms: C_11  and  C_12 
REMARK       I    between atoms: C_12  and  N_13 
REMARK    5  A    between atoms: N_13  and  C_14 
REMARK    6  A    between atoms: C_14  and  C_15 
REMARK    7  A    between atoms: C_15  and  C_16 
REMARK    8  A    between atoms: C_18  and  O_19 
REMARK    9  A    between atoms: C_21  and  O_22 
REMARK   10  A    between atoms: C_30  and  N_31 
ROOT
HETATM    1  N   UNL     1       6.043  29.242  56.181  1.00  0.00    -0.276 N 
HETATM    2  C   UNL     1       6.601  29.757  57.384  1.00  0.00     0.177 A 
HETATM    3  N   UNL     1       6.153  30.791  58.057  1.00  0.00    -0.204 NA
HETATM    4  C   UNL     1       5.047  31.353  57.526  1.00  0.00     0.162 A 
HETATM    5  C   UNL     1       4.353  31.009  56.400  1.00  0.00     0.081 A 
HETATM    6  C   UNL     1       4.867  29.913  55.632  1.00  0.00     0.124 A 
HETATM    7  N   UNL     1       4.363  32.406  58.061  1.00  0.00    -0.260 N 
HETATM    8  H   UNL     1       4.578  32.923  58.906  1.00  0.00     0.191 HD
HETATM    9  N   UNL     1       3.272  32.748  57.341  1.00  0.00    -0.177 NA
HETATM   10  C   UNL     1       3.255  31.876  56.318  1.00  0.00     0.068 A 
HETATM   11  C   UNL     1       2.154  31.939  55.328  1.00  0.00     0.073 C 
ENDROOT
BRANCH   2  12
HETATM   12  S   UNL     1       7.992  28.949  58.139  1.00  0.00    -0.082 SA
BRANCH  12  13
HETATM   13  C   UNL     1       9.345  29.948  57.458  1.00  0.00     0.185 C 
BRANCH  13  14
HETATM   14  C   UNL     1       9.707  31.119  58.360  1.00  0.00     0.227 C 
HETATM   15  N   UNL     1       8.905  31.199  59.488  1.00  0.00    -0.360 N 
HETATM   16  H   UNL     1       8.059  30.645  59.518  1.00  0.00     0.162 HD
HETATM   17  O   UNL     1      10.579  31.944  58.108  1.00  0.00    -0.273 OA
BRANCH  15  18
HETATM   18  C   UNL     1       9.027  32.311  60.420  1.00  0.00     0.127 C 
BRANCH  18  19
HETATM   19  C   UNL     1       9.135  31.816  61.862  1.00  0.00     0.058 C 
BRANCH  19  20
HETATM   20  C   UNL     1       7.922  32.153  62.692  1.00  0.00    -0.054 A 
HETATM   21  C   UNL     1       6.655  31.683  62.316  1.00  0.00     0.046 A 
HETATM   22  C   UNL     1       5.518  32.003  63.071  1.00  0.00     0.102 A 
HETATM   23  C   UNL     1       5.652  32.802  64.224  1.00  0.00     0.101 A 
HETATM   24  C   UNL     1       6.919  33.252  64.608  1.00  0.00     0.040 A 
HETATM   25  C   UNL     1       8.045  32.929  63.847  1.00  0.00     0.010 A 
BRANCH  22  26
HETATM   26  O   UNL     1       4.244  31.594  62.766  1.00  0.00    -0.353 OA
HETATM   27  C   UNL     1       3.624  32.160  61.621  1.00  0.00     0.210 C 
ENDBRANCH  22  26
BRANCH  23  28
HETATM   28  O   UNL     1       4.493  33.074  64.909  1.00  0.00    -0.353 OA
HETATM   29  C   UNL     1       4.513  34.154  65.831  1.00  0.00     0.210 C 
ENDBRANCH  23  28
ENDBRANCH  19  20
ENDBRANCH  18  19
ENDBRANCH  15  18
ENDBRANCH  13  14
ENDBRANCH  12  13
ENDBRANCH   2  12
BRANCH   1  30
HETATM   30  C   UNL     1       6.596  28.110  55.511  1.00  0.00     0.043 A 
HETATM   31  C   UNL     1       7.317  28.250  54.318  1.00  0.00     0.032 A 
HETATM   32  C   UNL     1       7.774  27.122  53.632  1.00  0.00     0.026 A 
HETATM   33  C   UNL     1       7.502  25.842  54.118  1.00  0.00     0.040 A 
HETATM   34  C   UNL     1       6.775  25.671  55.306  1.00  0.00    -0.038 A 
HETATM   35 CL   UNL     1       8.069  24.492  53.205  1.00  0.00    -0.084 Cl
HETATM   36  C   UNL     1       6.457  24.306  55.851  1.00  0.00     0.050 C 
HETATM   37  C   UNL     1       6.334  26.814  55.995  1.00  0.00     0.038 A 
ENDBRANCH   1  30
BRANCH   6  38
HETATM   38  N   UNL     1       4.320  29.579  54.479  1.00  0.00    -0.384 N 
HETATM   39  H   UNL     1       4.143  28.617  54.231  1.00  0.00     0.157 HD
HETATM   40  H   UNL     1       4.030  30.298  53.827  1.00  0.00     0.157 HD
ENDBRANCH   6  38
TORSDOF 10
ENDMDL
MODEL 2
REMARK VINA RESULT:      -9.5      2.443      4.600
REMARK  10 active torsions:
REMARK  status: ('A' for Active; 'I' for Inactive)
REMARK    1  A    between atoms: C_7  and  N_8 
REMARK    2  A    between atoms: C_9  and  S_10 
REMARK    3  A    between atoms: S_10  and  C_11 
REMARK    4  A    between atoms: C_11  and  C_12 
REMARK       I    between atoms: C_12  and  N_13 
REMARK    5  A    between atoms: N_13  and  C_14 
REMARK    6  A    between atoms: C_14  and  C_15 
REMARK    7  A    between atoms: C_15  and  C_16 
REMARK    8  A    between atoms: C_18  and  O_19 
REMARK    9  A    between atoms: C_21  and  O_22 
REMARK   10  A    between atoms: C_30  and  N_31 
ROOT
HETATM    1  N   UNL     1       6.375  27.307  56.221  1.00  0.00    -0.276 N 
HETATM    2  C   UNL     1       7.196  27.675  57.323  1.00  0.00     0.177 A 
HETATM    3  N   UNL     1       7.991  26.872  57.990  1.00  0.00    -0.204 NA
HETATM    4  C   UNL     1       8.008  25.605  57.523  1.00  0.00     0.162 A 
HETATM    5  C   UNL     1       7.314  25.055  56.482  1.00  0.00     0.081 A 
HETATM    6  C   UNL     1       6.407  25.915  55.782  1.00  0.00     0.124 A 
HETATM    7  N   UNL     1       8.785  24.595  58.011  1.00  0.00    -0.260 N 
HETATM    8  H   UNL     1       9.440  24.632  58.783  1.00  0.00     0.191 HD
HETATM    9  N   UNL     1       8.628  23.435  57.337  1.00  0.00    -0.177 NA
HETATM   10  C   UNL     1       7.728  23.719  56.380  1.00  0.00     0.068 A 
HETATM   11  C   UNL     1       7.336  22.664  55.415  1.00  0.00     0.073 C 
ENDROOT
BRANCH   2  12
HETATM   12  S   UNL     1       7.255  29.366  57.866  1.00  0.00    -0.082 SA
BRANCH  12  13
HETATM   13  C   UNL     1       8.985  29.759  57.486  1.00  0.00     0.185 C 
BRANCH  13  14
HETATM   14  C   UNL     1       9.531  30.870  58.372  1.00  0.00     0.227 C 
HETATM   15  N   UNL     1       8.729  31.125  59.473  1.00  0.00    -0.360 N 
HETATM   16  H   UNL     1       7.796  30.735  59.490  1.00  0.00     0.162 HD
HETATM   17  O   UNL     1      10.545  31.515  58.127  1.00  0.00    -0.273 OA
BRANCH  15  18
HETATM   18  C   UNL     1       9.028  32.221  60.383  1.00  0.00     0.127 C 
BRANCH  18  19
HETATM   19  C   UNL     1       9.106  31.735  61.830  1.00  0.00     0.058 C 
BRANCH  19  20
HETATM   20  C   UNL     1       7.917  32.155  62.656  1.00  0.00    -0.054 A 
HETATM   21  C   UNL     1       6.627  31.725  62.310  1.00  0.00     0.046 A 
HETATM   22  C   UNL     1       5.513  32.121  63.061  1.00  0.00     0.102 A 
HETATM   23  C   UNL     1       5.691  32.958  64.181  1.00  0.00     0.101 A 
HETATM   24  C   UNL     1       6.980  33.369  64.536  1.00  0.00     0.040 A 
HETATM   25  C   UNL     1       8.084  32.969  63.779  1.00  0.00     0.010 A 
BRANCH  22  26
HETATM   26  O   UNL     1       4.219  31.755  62.783  1.00  0.00    -0.353 OA
HETATM   27  C   UNL     1       3.631  32.259  61.593  1.00  0.00     0.210 C 
ENDBRANCH  22  26
BRANCH  23  28
HETATM   28  O   UNL     1       4.552  33.306  64.864  1.00  0.00    -0.353 OA
HETATM   29  C   UNL     1       4.706  33.825  66.177  1.00  0.00     0.210 C 
ENDBRANCH  23  28
ENDBRANCH  19  20
ENDBRANCH  18  19
ENDBRANCH  15  18
ENDBRANCH  13  14
ENDBRANCH  12  13
ENDBRANCH   2  12
BRANCH   1  30
HETATM   30  C   UNL     1       5.537  28.248  55.551  1.00  0.00     0.043 A 
HETATM   31  C   UNL     1       5.695  28.522  54.187  1.00  0.00     0.032 A 
HETATM   32  C   UNL     1       4.924  29.510  53.570  1.00  0.00     0.026 A 
HETATM   33  C   UNL     1       3.999  30.249  54.310  1.00  0.00     0.040 A 
HETATM   34  C   UNL     1       3.825  30.002  55.680  1.00  0.00    -0.038 A 
HETATM   35 CL   UNL     1       3.102  31.475  53.493  1.00  0.00    -0.084 Cl
HETATM   36  C   UNL     1       2.845  30.786  56.508  1.00  0.00     0.050 C 
HETATM   37  C   UNL     1       4.596  28.995  56.286  1.00  0.00     0.038 A 
ENDBRANCH   1  30
BRANCH   6  38
HETATM   38  N   UNL     1       5.622  25.442  54.831  1.00  0.00    -0.384 N 
HETATM   39  H   UNL     1       5.995  25.016  53.996  1.00  0.00     0.157 HD
HETATM   40  H   UNL     1       4.616  25.464  54.945  1.00  0.00     0.157 HD
ENDBRANCH   6  38
TORSDOF 10
ENDMDL
MODEL 3
REMARK VINA RESULT:      -9.4      3.661      8.712
REMARK  10 active torsions:
REMARK  status: ('A' for Active; 'I' for Inactive)
REMARK    1  A    between atoms: C_7  and  N_8 
REMARK    2  A    between atoms: C_9  and  S_10 
REMARK    3  A    between atoms: S_10  and  C_11 
REMARK    4  A    between atoms: C_11  and  C_12 
REMARK       I    between atoms: C_12  and  N_13 
REMARK    5  A    between atoms: N_13  and  C_14 
REMARK    6  A    between atoms: C_14  and  C_15 
REMARK    7  A    between atoms: C_15  and  C_16 
REMARK    8  A    between atoms: C_18  and  O_19 
REMARK    9  A    between atoms: C_21  and  O_22 
REMARK   10  A    between atoms: C_30  and  N_31 
ROOT
HETATM    1  N   UNL     1       7.170  31.965  60.305  1.00  0.00    -0.276 N 
HETATM    2  C   UNL     1       5.914  32.401  59.800  1.00  0.00     0.177 A 
HETATM    3  N   UNL     1       4.977  33.005  60.491  1.00  0.00    -0.204 NA
HETATM    4  C   UNL     1       5.305  33.228  61.782  1.00  0.00     0.162 A 
HETATM    5  C   UNL     1       6.450  32.906  62.454  1.00  0.00     0.081 A 
HETATM    6  C   UNL     1       7.457  32.201  61.718  1.00  0.00     0.124 A 
HETATM    7  N   UNL     1       4.524  33.879  62.692  1.00  0.00    -0.260 N 
HETATM    8  H   UNL     1       3.601  34.273  62.552  1.00  0.00     0.191 HD
HETATM    9  N   UNL     1       5.110  33.992  63.904  1.00  0.00    -0.177 NA
HETATM   10  C   UNL     1       6.309  33.402  63.758  1.00  0.00     0.068 A 
HETATM   11  C   UNL     1       7.249  33.372  64.903  1.00  0.00     0.073 C 
ENDROOT
BRANCH   2  12
HETATM   12  S   UNL     1       5.529  32.204  58.076  1.00  0.00    -0.082 SA
BRANCH  12  13
HETATM   13  C   UNL     1       4.208  30.964  58.188  1.00  0.00     0.185 C 
BRANCH  13  14
HETATM   14  C   UNL     1       4.210  30.012  57.001  1.00  0.00     0.227 C 
HETATM   15  N   UNL     1       4.629  28.733  57.334  1.00  0.00    -0.360 N 
HETATM   16  H   UNL     1       5.078  28.592  58.230  1.00  0.00     0.162 HD
HETATM   17  O   UNL     1       3.923  30.337  55.854  1.00  0.00    -0.273 OA
BRANCH  15  18
HETATM   18  C   UNL     1       4.798  27.708  56.316  1.00  0.00     0.127 C 
BRANCH  18  19
HETATM   19  C   UNL     1       5.099  26.347  56.943  1.00  0.00     0.058 C 
BRANCH  19  20
HETATM   20  C   UNL     1       5.926  25.458  56.050  1.00  0.00    -0.054 A 
HETATM   21  C   UNL     1       5.667  25.402  54.672  1.00  0.00     0.046 A 
HETATM   22  C   UNL     1       6.419  24.568  53.834  1.00  0.00     0.102 A 
HETATM   23  C   UNL     1       7.450  23.779  54.382  1.00  0.00     0.101 A 
HETATM   24  C   UNL     1       7.720  23.852  55.752  1.00  0.00     0.040 A 
HETATM   25  C   UNL     1       6.963  24.686  56.579  1.00  0.00     0.010 A 
BRANCH  22  26
HETATM   26  O   UNL     1       6.221  24.446  52.481  1.00  0.00    -0.353 OA
HETATM   27  C   UNL     1       5.287  25.322  51.867  1.00  0.00     0.210 C 
ENDBRANCH  22  26
BRANCH  23  28
HETATM   28  O   UNL     1       8.139  22.986  53.497  1.00  0.00    -0.353 OA
HETATM   29  C   UNL     1       7.833  21.600  53.482  1.00  0.00     0.210 C 
ENDBRANCH  23  28
ENDBRANCH  19  20
ENDBRANCH  18  19
ENDBRANCH  15  18
ENDBRANCH  13  14
ENDBRANCH  12  13
ENDBRANCH   2  12
BRANCH   1  30
HETATM   30  C   UNL     1       8.136  31.313  59.480  1.00  0.00     0.043 A 
HETATM   31  C   UNL     1       9.337  31.942  59.130  1.00  0.00     0.032 A 
HETATM   32  C   UNL     1      10.228  31.324  58.250  1.00  0.00     0.026 A 
HETATM   33  C   UNL     1       9.924  30.079  57.696  1.00  0.00     0.040 A 
HETATM   34  C   UNL     1       8.724  29.429  58.022  1.00  0.00    -0.038 A 
HETATM   35 CL   UNL     1      11.055  29.385  56.592  1.00  0.00    -0.084 Cl
HETATM   36  C   UNL     1       8.362  28.093  57.434  1.00  0.00     0.050 C 
HETATM   37  C   UNL     1       7.843  30.055  58.920  1.00  0.00     0.038 A 
ENDBRANCH   1  30
BRANCH   6  38
HETATM   38  N   UNL     1       8.549  31.761  62.314  1.00  0.00    -0.384 N 
HETATM   39  H   UNL     1       8.826  30.792  62.272  1.00  0.00     0.157 HD
HETATM   40  H   UNL     1       9.158  32.408  62.800  1.00  0.00     0.157 HD
ENDBRANCH   6  38
TORSDOF 10
ENDMDL
MODEL 4
REMARK VINA RESULT:      -9.2      2.674      4.642
REMARK  10 active torsions:
REMARK  status: ('A' for Active; 'I' for Inactive)
REMARK    1  A    between atoms: C_7  and  N_8 
REMARK    2  A    between atoms: C_9  and  S_10 
REMARK    3  A    between atoms: S_10  and  C_11 
REMARK    4  A    between atoms: C_11  and  C_12 
REMARK       I    between atoms: C_12  and  N_13 
REMARK    5  A    between atoms: N_13  and  C_14 
REMARK    6  A    between atoms: C_14  and  C_15 
REMARK    7  A    between atoms: C_15  and  C_16 
REMARK    8  A    between atoms: C_18  and  O_19 
REMARK    9  A    between atoms: C_21  and  O_22 
REMARK   10  A    between atoms: C_30  and  N_31 
ROOT
HETATM    1  N   UNL     1       6.293  27.044  55.213  1.00  0.00    -0.276 N 
HETATM    2  C   UNL     1       6.893  27.669  56.342  1.00  0.00     0.177 A 
HETATM    3  N   UNL     1       7.614  27.069  57.258  1.00  0.00    -0.204 NA
HETATM    4  C   UNL     1       7.790  25.748  57.039  1.00  0.00     0.162 A 
HETATM    5  C   UNL     1       7.318  24.966  56.023  1.00  0.00     0.081 A 
HETATM    6  C   UNL     1       6.487  25.606  55.046  1.00  0.00     0.124 A 
HETATM    7  N   UNL     1       8.538  24.913  57.818  1.00  0.00    -0.260 N 
HETATM    8  H   UNL     1       9.051  25.141  58.661  1.00  0.00     0.191 HD
HETATM    9  N   UNL     1       8.570  23.645  57.351  1.00  0.00    -0.177 NA
HETATM   10  C   UNL     1       7.827  23.677  56.232  1.00  0.00     0.068 A 
HETATM   11  C   UNL     1       7.671  22.441  55.428  1.00  0.00     0.073 C 
ENDROOT
BRANCH   2  12
HETATM   12  S   UNL     1       6.750  29.426  56.568  1.00  0.00    -0.082 SA
BRANCH  12  13
HETATM   13  C   UNL     1       8.136  29.710  57.705  1.00  0.00     0.185 C 
BRANCH  13  14
HETATM   14  C   UNL     1       7.907  30.918  58.602  1.00  0.00     0.227 C 
HETATM   15  N   UNL     1       9.024  31.254  59.351  1.00  0.00    -0.360 N 
HETATM   16  H   UNL     1       9.784  30.589  59.406  1.00  0.00     0.162 HD
HETATM   17  O   UNL     1       6.839  31.512  58.702  1.00  0.00    -0.273 OA
BRANCH  15  18
HETATM   18  C   UNL     1       8.971  32.316  60.345  1.00  0.00     0.127 C 
BRANCH  18  19
HETATM   19  C   UNL     1       9.067  31.753  61.763  1.00  0.00     0.058 C 
BRANCH  19  20
HETATM   20  C   UNL     1       7.884  32.119  62.622  1.00  0.00    -0.054 A 
HETATM   21  C   UNL     1       6.598  31.672  62.282  1.00  0.00     0.046 A 
HETATM   22  C   UNL     1       5.488  32.018  63.065  1.00  0.00     0.102 A 
HETATM   23  C   UNL     1       5.667  32.821  64.209  1.00  0.00     0.101 A 
HETATM   24  C   UNL     1       6.953  33.248  64.557  1.00  0.00     0.040 A 
HETATM   25  C   UNL     1       8.052  32.899  63.769  1.00  0.00     0.010 A 
BRANCH  22  26
HETATM   26  O   UNL     1       4.198  31.633  62.795  1.00  0.00    -0.353 OA
HETATM   27  C   UNL     1       3.649  31.996  61.537  1.00  0.00     0.210 C 
ENDBRANCH  22  26
BRANCH  23  28
HETATM   28  O   UNL     1       4.532  33.120  64.922  1.00  0.00    -0.353 OA
HETATM   29  C   UNL     1       4.670  33.975  66.047  1.00  0.00     0.210 C 
ENDBRANCH  23  28
ENDBRANCH  19  20
ENDBRANCH  18  19
ENDBRANCH  15  18
ENDBRANCH  13  14
ENDBRANCH  12  13
ENDBRANCH   2  12
BRANCH   1  30
HETATM   30  C   UNL     1       5.520  27.775  54.261  1.00  0.00     0.043 A 
HETATM   31  C   UNL     1       4.229  28.225  54.564  1.00  0.00     0.032 A 
HETATM   32  C   UNL     1       3.456  28.861  53.589  1.00  0.00     0.026 A 
HETATM   33  C   UNL     1       3.955  29.040  52.298  1.00  0.00     0.040 A 
HETATM   34  C   UNL     1       5.242  28.592  51.964  1.00  0.00    -0.038 A 
HETATM   35 CL   UNL     1       2.936  29.805  51.134  1.00  0.00    -0.084 Cl
HETATM   36  C   UNL     1       5.805  28.760  50.580  1.00  0.00     0.050 C 
HETATM   37  C   UNL     1       6.015  27.967  52.957  1.00  0.00     0.038 A 
ENDBRANCH   1  30
BRANCH   6  38
HETATM   38  N   UNL     1       5.905  24.907  54.089  1.00  0.00    -0.384 N 
HETATM   39  H   UNL     1       5.076  24.357  54.259  1.00  0.00     0.157 HD
HETATM   40  H   UNL     1       6.266  24.942  53.144  1.00  0.00     0.157 HD
ENDBRANCH   6  38
TORSDOF 10
ENDMDL
MODEL 5
REMARK VINA RESULT:      -8.8      6.387     11.341
REMARK  10 active torsions:
REMARK  status: ('A' for Active; 'I' for Inactive)
REMARK    1  A    between atoms: C_7  and  N_8 
REMARK    2  A    between atoms: C_9  and  S_10 
REMARK    3  A    between atoms: S_10  and  C_11 
REMARK    4  A    between atoms: C_11  and  C_12 
REMARK       I    between atoms: C_12  and  N_13 
REMARK    5  A    between atoms: N_13  and  C_14 
REMARK    6  A    between atoms: C_14  and  C_15 
REMARK    7  A    between atoms: C_15  and  C_16 
REMARK    8  A    between atoms: C_18  and  O_19 
REMARK    9  A    between atoms: C_21  and  O_22 
REMARK   10  A    between atoms: C_30  and  N_31 
ROOT
HETATM    1  N   UNL     1       7.570  25.821  55.664  1.00  0.00    -0.276 N 
HETATM    2  C   UNL     1       7.453  25.834  54.246  1.00  0.00     0.177 A 
HETATM    3  N   UNL     1       7.577  24.793  53.457  1.00  0.00    -0.204 NA
HETATM    4  C   UNL     1       7.808  23.634  54.109  1.00  0.00     0.162 A 
HETATM    5  C   UNL     1       7.939  23.404  55.450  1.00  0.00     0.081 A 
HETATM    6  C   UNL     1       7.855  24.545  56.314  1.00  0.00     0.124 A 
HETATM    7  N   UNL     1       7.926  22.408  53.521  1.00  0.00    -0.260 N 
HETATM    8  H   UNL     1       7.875  22.184  52.534  1.00  0.00     0.191 HD
HETATM    9  N   UNL     1       8.122  21.412  54.413  1.00  0.00    -0.177 NA
HETATM   10  C   UNL     1       8.118  22.023  55.610  1.00  0.00     0.068 A 
HETATM   11  C   UNL     1       8.277  21.212  56.840  1.00  0.00     0.073 C 
ENDROOT
BRANCH   2  12
HETATM   12  S   UNL     1       7.042  27.340  53.398  1.00  0.00    -0.082 SA
BRANCH  12  13
HETATM   13  C   UNL     1       5.272  27.064  53.105  1.00  0.00     0.185 C 
BRANCH  13  14
HETATM   14  C   UNL     1       4.646  28.173  52.273  1.00  0.00     0.227 C 
HETATM   15  N   UNL     1       5.571  28.850  51.492  1.00  0.00    -0.360 N 
HETATM   16  H   UNL     1       6.555  28.712  51.683  1.00  0.00     0.162 HD
HETATM   17  O   UNL     1       3.460  28.484  52.312  1.00  0.00    -0.273 OA
BRANCH  15  18
HETATM   18  C   UNL     1       5.185  30.012  50.706  1.00  0.00     0.127 C 
BRANCH  18  19
HETATM   19  C   UNL     1       5.158  29.686  49.212  1.00  0.00     0.058 C 
BRANCH  19  20
HETATM   20  C   UNL     1       3.869  29.038  48.775  1.00  0.00    -0.054 A 
HETATM   21  C   UNL     1       3.887  27.790  48.134  1.00  0.00     0.046 A 
HETATM   22  C   UNL     1       2.696  27.185  47.709  1.00  0.00     0.102 A 
HETATM   23  C   UNL     1       1.467  27.836  47.933  1.00  0.00     0.101 A 
HETATM   24  C   UNL     1       1.450  29.070  48.591  1.00  0.00     0.040 A 
HETATM   25  C   UNL     1       2.643  29.665  49.009  1.00  0.00     0.010 A 
BRANCH  22  26
HETATM   26  O   UNL     1       2.628  25.974  47.065  1.00  0.00    -0.353 OA
HETATM   27  C   UNL     1       2.960  24.811  47.808  1.00  0.00     0.210 C 
ENDBRANCH  22  26
BRANCH  23  28
HETATM   28  O   UNL     1       0.345  27.182  47.486  1.00  0.00    -0.353 OA
HETATM   29  C   UNL     1      -0.306  27.704  46.337  1.00  0.00     0.210 C 
ENDBRANCH  23  28
ENDBRANCH  19  20
ENDBRANCH  18  19
ENDBRANCH  15  18
ENDBRANCH  13  14
ENDBRANCH  12  13
ENDBRANCH   2  12
BRANCH   1  30
HETATM   30  C   UNL     1       7.420  27.004  56.448  1.00  0.00     0.043 A 
HETATM   31  C   UNL     1       6.155  27.467  56.833  1.00  0.00     0.032 A 
HETATM   32  C   UNL     1       6.024  28.673  57.525  1.00  0.00     0.026 A 
HETATM   33  C   UNL     1       7.151  29.440  57.825  1.00  0.00     0.040 A 
HETATM   34  C   UNL     1       8.430  29.006  57.446  1.00  0.00    -0.038 A 
HETATM   35 CL   UNL     1       6.915  30.935  58.655  1.00  0.00    -0.084 Cl
HETATM   36  C   UNL     1       9.663  29.813  57.746  1.00  0.00     0.050 C 
HETATM   37  C   UNL     1       8.549  27.783  56.763  1.00  0.00     0.038 A 
ENDBRANCH   1  30
BRANCH   6  38
HETATM   38  N   UNL     1       8.073  24.430  57.610  1.00  0.00    -0.384 N 
HETATM   39  H   UNL     1       7.458  24.846  58.293  1.00  0.00     0.157 HD
HETATM   40  H   UNL     1       8.853  23.879  57.947  1.00  0.00     0.157 HD
ENDBRANCH   6  38
TORSDOF 10
ENDMDL
MODEL 6
REMARK VINA RESULT:      -8.7      1.934      2.658
REMARK  10 active torsions:
REMARK  status: ('A' for Active; 'I' for Inactive)
REMARK    1  A    between atoms: C_7  and  N_8 
REMARK    2  A    between atoms: C_9  and  S_10 
REMARK    3  A    between atoms: S_10  and  C_11 
REMARK    4  A    between atoms: C_11  and  C_12 
REMARK       I    between atoms: C_12  and  N_13 
REMARK    5  A    between atoms: N_13  and  C_14 
REMARK    6  A    between atoms: C_14  and  C_15 
REMARK    7  A    between atoms: C_15  and  C_16 
REMARK    8  A    between atoms: C_18  and  O_19 
REMARK    9  A    between atoms: C_21  and  O_22 
REMARK   10  A    between atoms: C_30  and  N_31 
ROOT
HETATM    1  N   UNL     1       6.510  26.803  55.361  1.00  0.00    -0.276 N 
HETATM    2  C   UNL     1       7.007  27.883  56.144  1.00  0.00     0.177 A 
HETATM    3  N   UNL     1       6.614  29.132  56.065  1.00  0.00    -0.204 NA
HETATM    4  C   UNL     1       5.631  29.343  55.164  1.00  0.00     0.162 A 
HETATM    5  C   UNL     1       5.013  28.453  54.331  1.00  0.00     0.081 A 
HETATM    6  C   UNL     1       5.472  27.096  54.376  1.00  0.00     0.124 A 
HETATM    7  N   UNL     1       5.020  30.540  54.928  1.00  0.00    -0.260 N 
HETATM    8  H   UNL     1       5.210  31.433  55.368  1.00  0.00     0.191 HD
HETATM    9  N   UNL     1       4.046  30.461  53.995  1.00  0.00    -0.177 NA
HETATM   10  C   UNL     1       4.029  29.167  53.632  1.00  0.00     0.068 A 
HETATM   11  C   UNL     1       3.039  28.707  52.629  1.00  0.00     0.073 C 
ENDROOT
BRANCH   2  12
HETATM   12  S   UNL     1       8.222  27.584  57.405  1.00  0.00    -0.082 SA
BRANCH  12  13
HETATM   13  C   UNL     1       9.429  28.874  56.991  1.00  0.00     0.185 C 
BRANCH  13  14
HETATM   14  C   UNL     1       9.288  30.102  57.880  1.00  0.00     0.227 C 
HETATM   15  N   UNL     1       8.170  30.050  58.698  1.00  0.00    -0.360 N 
HETATM   16  H   UNL     1       7.463  29.353  58.503  1.00  0.00     0.162 HD
HETATM   17  O   UNL     1      10.045  31.066  57.853  1.00  0.00    -0.273 OA
BRANCH  15  18
HETATM   18  C   UNL     1       7.806  31.176  59.545  1.00  0.00     0.127 C 
BRANCH  18  19
HETATM   19  C   UNL     1       8.492  31.089  60.908  1.00  0.00     0.058 C 
BRANCH  19  20
HETATM   20  C   UNL     1       7.682  31.715  62.015  1.00  0.00    -0.054 A 
HETATM   21  C   UNL     1       6.280  31.679  61.973  1.00  0.00     0.046 A 
HETATM   22  C   UNL     1       5.516  32.271  62.988  1.00  0.00     0.102 A 
HETATM   23  C   UNL     1       6.165  32.905  64.066  1.00  0.00     0.101 A 
HETATM   24  C   UNL     1       7.562  32.921  64.117  1.00  0.00     0.040 A 
HETATM   25  C   UNL     1       8.314  32.329  63.099  1.00  0.00     0.010 A 
BRANCH  22  26
HETATM   26  O   UNL     1       4.143  32.291  63.015  1.00  0.00    -0.353 OA
HETATM   27  C   UNL     1       3.475  33.106  62.063  1.00  0.00     0.210 C 
ENDBRANCH  22  26
BRANCH  23  28
HETATM   28  O   UNL     1       5.349  33.464  65.019  1.00  0.00    -0.353 OA
HETATM   29  C   UNL     1       5.329  34.880  65.118  1.00  0.00     0.210 C 
ENDBRANCH  23  28
ENDBRANCH  19  20
ENDBRANCH  18  19
ENDBRANCH  15  18
ENDBRANCH  13  14
ENDBRANCH  12  13
ENDBRANCH   2  12
BRANCH   1  30
HETATM   30  C   UNL     1       6.996  25.470  55.512  1.00  0.00     0.043 A 
HETATM   31  C   UNL     1       7.178  24.901  56.779  1.00  0.00     0.032 A 
HETATM   32  C   UNL     1       7.737  23.627  56.907  1.00  0.00     0.026 A 
HETATM   33  C   UNL     1       8.137  22.914  55.775  1.00  0.00     0.040 A 
HETATM   34  C   UNL     1       7.973  23.462  54.494  1.00  0.00    -0.038 A 
HETATM   35 CL   UNL     1       8.849  21.359  56.007  1.00  0.00    -0.084 Cl
HETATM   36  C   UNL     1       8.401  22.724  53.256  1.00  0.00     0.050 C 
HETATM   37  C   UNL     1       7.395  24.738  54.378  1.00  0.00     0.038 A 
ENDBRANCH   1  30
BRANCH   6  38
HETATM   38  N   UNL     1       5.003  26.194  53.535  1.00  0.00    -0.384 N 
HETATM   39  H   UNL     1       4.015  26.012  53.444  1.00  0.00     0.157 HD
HETATM   40  H   UNL     1       5.636  25.687  52.928  1.00  0.00     0.157 HD
ENDBRANCH   6  38
TORSDOF 10
ENDMDL
MODEL 7
REMARK VINA RESULT:      -8.7      6.891     12.081
REMARK  10 active torsions:
REMARK  status: ('A' for Active; 'I' for Inactive)
REMARK    1  A    between atoms: C_7  and  N_8 
REMARK    2  A    between atoms: C_9  and  S_10 
REMARK    3  A    between atoms: S_10  and  C_11 
REMARK    4  A    between atoms: C_11  and  C_12 
REMARK       I    between atoms: C_12  and  N_13 
REMARK    5  A    between atoms: N_13  and  C_14 
REMARK    6  A    between atoms: C_14  and  C_15 
REMARK    7  A    between atoms: C_15  and  C_16 
REMARK    8  A    between atoms: C_18  and  O_19 
REMARK    9  A    between atoms: C_21  and  O_22 
REMARK   10  A    between atoms: C_30  and  N_31 
ROOT
HETATM    1  N   UNL     1       7.376  25.424  55.486  1.00  0.00    -0.276 N 
HETATM    2  C   UNL     1       7.146  25.411  54.082  1.00  0.00     0.177 A 
HETATM    3  N   UNL     1       7.219  24.359  53.302  1.00  0.00    -0.204 NA
HETATM    4  C   UNL     1       7.513  23.213  53.953  1.00  0.00     0.162 A 
HETATM    5  C   UNL     1       7.754  23.008  55.282  1.00  0.00     0.081 A 
HETATM    6  C   UNL     1       7.726  24.162  56.131  1.00  0.00     0.124 A 
HETATM    7  N   UNL     1       7.598  21.979  53.377  1.00  0.00    -0.260 N 
HETATM    8  H   UNL     1       7.471  21.737  52.401  1.00  0.00     0.191 HD
HETATM    9  N   UNL     1       7.876  21.000  54.266  1.00  0.00    -0.177 NA
HETATM   10  C   UNL     1       7.959  21.631  55.449  1.00  0.00     0.068 A 
HETATM   11  C   UNL     1       8.225  20.842  56.676  1.00  0.00     0.073 C 
ENDROOT
BRANCH   2  12
HETATM   12  S   UNL     1       6.652  26.899  53.246  1.00  0.00    -0.082 SA
BRANCH  12  13
HETATM   13  C   UNL     1       5.172  26.300  52.384  1.00  0.00     0.185 C 
BRANCH  13  14
HETATM   14  C   UNL     1       5.043  26.885  50.985  1.00  0.00     0.227 C 
HETATM   15  N   UNL     1       4.491  25.996  50.076  1.00  0.00    -0.360 N 
HETATM   16  H   UNL     1       4.420  25.021  50.338  1.00  0.00     0.162 HD
HETATM   17  O   UNL     1       5.429  28.005  50.665  1.00  0.00    -0.273 OA
BRANCH  15  18
HETATM   18  C   UNL     1       4.382  26.333  48.665  1.00  0.00     0.127 C 
BRANCH  18  19
HETATM   19  C   UNL     1       2.986  26.022  48.126  1.00  0.00     0.058 C 
BRANCH  19  20
HETATM   20  C   UNL     1       2.303  27.228  47.533  1.00  0.00    -0.054 A 
HETATM   21  C   UNL     1       3.007  28.430  47.367  1.00  0.00     0.046 A 
HETATM   22  C   UNL     1       2.378  29.562  46.831  1.00  0.00     0.102 A 
HETATM   23  C   UNL     1       1.023  29.489  46.451  1.00  0.00     0.101 A 
HETATM   24  C   UNL     1       0.329  28.285  46.598  1.00  0.00     0.040 A 
HETATM   25  C   UNL     1       0.965  27.163  47.135  1.00  0.00     0.010 A 
BRANCH  22  26
HETATM   26  O   UNL     1       2.991  30.776  46.648  1.00  0.00    -0.353 OA
HETATM   27  C   UNL     1       4.363  30.776  46.283  1.00  0.00     0.210 C 
ENDBRANCH  22  26
BRANCH  23  28
HETATM   28  O   UNL     1       0.477  30.640  45.937  1.00  0.00    -0.353 OA
HETATM   29  C   UNL     1      -0.936  30.697  45.812  1.00  0.00     0.210 C 
ENDBRANCH  23  28
ENDBRANCH  19  20
ENDBRANCH  18  19
ENDBRANCH  15  18
ENDBRANCH  13  14
ENDBRANCH  12  13
ENDBRANCH   2  12
BRANCH   1  30
HETATM   30  C   UNL     1       7.276  26.619  56.261  1.00  0.00     0.043 A 
HETATM   31  C   UNL     1       6.036  27.100  56.700  1.00  0.00     0.032 A 
HETATM   32  C   UNL     1       5.951  28.316  57.381  1.00  0.00     0.026 A 
HETATM   33  C   UNL     1       7.099  29.075  57.616  1.00  0.00     0.040 A 
HETATM   34  C   UNL     1       8.353  28.622  57.181  1.00  0.00    -0.038 A 
HETATM   35 CL   UNL     1       6.918  30.583  58.436  1.00  0.00    -0.084 Cl
HETATM   36  C   UNL     1       9.607  29.420  57.411  1.00  0.00     0.050 C 
HETATM   37  C   UNL     1       8.427  27.389  56.511  1.00  0.00     0.038 A 
ENDBRANCH   1  30
BRANCH   6  38
HETATM   38  N   UNL     1       8.048  24.071  57.408  1.00  0.00    -0.384 N 
HETATM   39  H   UNL     1       8.812  23.494  57.726  1.00  0.00     0.157 HD
HETATM   40  H   UNL     1       7.548  24.618  58.098  1.00  0.00     0.157 HD
ENDBRANCH   6  38
TORSDOF 10
ENDMDL
MODEL 8
REMARK VINA RESULT:      -8.6      6.633     11.242
REMARK  10 active torsions:
REMARK  status: ('A' for Active; 'I' for Inactive)
REMARK    1  A    between atoms: C_7  and  N_8 
REMARK    2  A    between atoms: C_9  and  S_10 
REMARK    3  A    between atoms: S_10  and  C_11 
REMARK    4  A    between atoms: C_11  and  C_12 
REMARK       I    between atoms: C_12  and  N_13 
REMARK    5  A    between atoms: N_13  and  C_14 
REMARK    6  A    between atoms: C_14  and  C_15 
REMARK    7  A    between atoms: C_15  and  C_16 
REMARK    8  A    between atoms: C_18  and  O_19 
REMARK    9  A    between atoms: C_21  and  O_22 
REMARK   10  A    between atoms: C_30  and  N_31 
ROOT
HETATM    1  N   UNL     1       6.735  25.549  54.887  1.00  0.00    -0.276 N 
HETATM    2  C   UNL     1       5.614  26.086  54.194  1.00  0.00     0.177 A 
HETATM    3  N   UNL     1       5.016  27.221  54.467  1.00  0.00    -0.204 NA
HETATM    4  C   UNL     1       5.578  27.907  55.486  1.00  0.00     0.162 A 
HETATM    5  C   UNL     1       6.652  27.579  56.263  1.00  0.00     0.081 A 
HETATM    6  C   UNL     1       7.279  26.317  56.004  1.00  0.00     0.124 A 
HETATM    7  N   UNL     1       5.173  29.132  55.929  1.00  0.00    -0.260 N 
HETATM    8  H   UNL     1       4.405  29.697  55.585  1.00  0.00     0.191 HD
HETATM    9  N   UNL     1       5.932  29.604  56.943  1.00  0.00    -0.177 NA
HETATM   10  C   UNL     1       6.858  28.651  57.144  1.00  0.00     0.068 A 
HETATM   11  C   UNL     1       7.897  28.855  58.181  1.00  0.00     0.073 C 
ENDROOT
BRANCH   2  12
HETATM   12  S   UNL     1       4.946  25.235  52.785  1.00  0.00    -0.082 SA
BRANCH  12  13
HETATM   13  C   UNL     1       5.891  26.033  51.457  1.00  0.00     0.185 C 
BRANCH  13  14
HETATM   14  C   UNL     1       5.002  26.835  50.518  1.00  0.00     0.227 C 
HETATM   15  N   UNL     1       5.187  26.503  49.185  1.00  0.00    -0.360 N 
HETATM   16  H   UNL     1       5.996  25.949  48.934  1.00  0.00     0.162 HD
HETATM   17  O   UNL     1       4.233  27.719  50.880  1.00  0.00    -0.273 OA
BRANCH  15  18
HETATM   18  C   UNL     1       4.503  27.231  48.127  1.00  0.00     0.127 C 
BRANCH  18  19
HETATM   19  C   UNL     1       3.255  26.484  47.656  1.00  0.00     0.058 C 
BRANCH  19  20
HETATM   20  C   UNL     1       2.119  27.408  47.294  1.00  0.00    -0.054 A 
HETATM   21  C   UNL     1       2.171  28.765  47.645  1.00  0.00     0.046 A 
HETATM   22  C   UNL     1       1.115  29.629  47.328  1.00  0.00     0.102 A 
HETATM   23  C   UNL     1      -0.010  29.129  46.643  1.00  0.00     0.101 A 
HETATM   24  C   UNL     1      -0.051  27.780  46.275  1.00  0.00     0.040 A 
HETATM   25  C   UNL     1       1.007  26.927  46.598  1.00  0.00     0.010 A 
BRANCH  22  26
HETATM   26  O   UNL     1       1.082  30.964  47.646  1.00  0.00    -0.353 OA
HETATM   27  C   UNL     1       0.839  31.316  48.999  1.00  0.00     0.210 C 
ENDBRANCH  22  26
BRANCH  23  28
HETATM   28  O   UNL     1      -1.005  30.036  46.370  1.00  0.00    -0.353 OA
HETATM   29  C   UNL     1      -2.148  29.566  45.671  1.00  0.00     0.210 C 
ENDBRANCH  23  28
ENDBRANCH  19  20
ENDBRANCH  18  19
ENDBRANCH  15  18
ENDBRANCH  13  14
ENDBRANCH  12  13
ENDBRANCH   2  12
BRANCH   1  30
HETATM   30  C   UNL     1       7.326  24.302  54.523  1.00  0.00     0.043 A 
HETATM   31  C   UNL     1       7.950  24.126  53.282  1.00  0.00     0.032 A 
HETATM   32  C   UNL     1       8.444  22.874  52.910  1.00  0.00     0.026 A 
HETATM   33  C   UNL     1       8.305  21.778  53.763  1.00  0.00     0.040 A 
HETATM   34  C   UNL     1       7.677  21.922  55.010  1.00  0.00    -0.038 A 
HETATM   35 CL   UNL     1       8.910  20.253  53.228  1.00  0.00    -0.084 Cl
HETATM   36  C   UNL     1       7.503  20.760  55.948  1.00  0.00     0.050 C 
HETATM   37  C   UNL     1       7.198  23.191  55.379  1.00  0.00     0.038 A 
ENDBRANCH   1  30
BRANCH   6  38
HETATM   38  N   UNL     1       8.257  25.875  56.773  1.00  0.00    -0.384 N 
HETATM   39  H   UNL     1       8.192  25.891  57.780  1.00  0.00     0.157 HD
HETATM   40  H   UNL     1       9.087  25.471  56.357  1.00  0.00     0.157 HD
ENDBRANCH   6  38
TORSDOF 10
ENDMDL
MODEL 9
REMARK VINA RESULT:      -8.5      3.963      9.115
REMARK  10 active torsions:
REMARK  status: ('A' for Active; 'I' for Inactive)
REMARK    1  A    between atoms: C_7  and  N_8 
REMARK    2  A    between atoms: C_9  and  S_10 
REMARK    3  A    between atoms: S_10  and  C_11 
REMARK    4  A    between atoms: C_11  and  C_12 
REMARK       I    between atoms: C_12  and  N_13 
REMARK    5  A    between atoms: N_13  and  C_14 
REMARK    6  A    between atoms: C_14  and  C_15 
REMARK    7  A    between atoms: C_15  and  C_16 
REMARK    8  A    between atoms: C_18  and  O_19 
REMARK    9  A    between atoms: C_21  and  O_22 
REMARK   10  A    between atoms: C_30  and  N_31 
ROOT
HETATM    1  N   UNL     1       7.067  32.087  60.472  1.00  0.00    -0.276 N 
HETATM    2  C   UNL     1       5.808  32.542  59.989  1.00  0.00     0.177 A 
HETATM    3  N   UNL     1       4.888  33.149  60.700  1.00  0.00    -0.204 NA
HETATM    4  C   UNL     1       5.237  33.356  61.988  1.00  0.00     0.162 A 
HETATM    5  C   UNL     1       6.388  33.014  62.640  1.00  0.00     0.081 A 
HETATM    6  C   UNL     1       7.377  32.306  61.883  1.00  0.00     0.124 A 
HETATM    7  N   UNL     1       4.477  34.006  62.916  1.00  0.00    -0.260 N 
HETATM    8  H   UNL     1       3.556  34.411  62.794  1.00  0.00     0.191 HD
HETATM    9  N   UNL     1       5.081  34.100  64.121  1.00  0.00    -0.177 NA
HETATM   10  C   UNL     1       6.271  33.499  63.951  1.00  0.00     0.068 A 
HETATM   11  C   UNL     1       7.227  33.446  65.082  1.00  0.00     0.073 C 
ENDROOT
BRANCH   2  12
HETATM   12  S   UNL     1       5.397  32.367  58.270  1.00  0.00    -0.082 SA
BRANCH  12  13
HETATM   13  C   UNL     1       3.914  31.328  58.405  1.00  0.00     0.185 C 
BRANCH  13  14
HETATM   14  C   UNL     1       3.650  30.533  57.135  1.00  0.00     0.227 C 
HETATM   15  N   UNL     1       4.346  29.335  57.093  1.00  0.00    -0.360 N 
HETATM   16  H   UNL     1       5.093  29.189  57.760  1.00  0.00     0.162 HD
HETATM   17  O   UNL     1       2.940  30.919  56.212  1.00  0.00    -0.273 OA
BRANCH  15  18
HETATM   18  C   UNL     1       4.306  28.483  55.914  1.00  0.00     0.127 C 
BRANCH  18  19
HETATM   19  C   UNL     1       5.479  28.777  54.978  1.00  0.00     0.058 C 
BRANCH  19  20
HETATM   20  C   UNL     1       5.340  28.106  53.635  1.00  0.00    -0.054 A 
HETATM   21  C   UNL     1       6.038  26.920  53.360  1.00  0.00     0.046 A 
HETATM   22  C   UNL     1       5.929  26.296  52.110  1.00  0.00     0.102 A 
HETATM   23  C   UNL     1       5.105  26.865  51.119  1.00  0.00     0.101 A 
HETATM   24  C   UNL     1       4.394  28.035  51.401  1.00  0.00     0.040 A 
HETATM   25  C   UNL     1       4.511  28.650  52.650  1.00  0.00     0.010 A 
BRANCH  22  26
HETATM   26  O   UNL     1       6.587  25.144  51.759  1.00  0.00    -0.353 OA
HETATM   27  C   UNL     1       7.946  25.013  52.148  1.00  0.00     0.210 C 
ENDBRANCH  22  26
BRANCH  23  28
HETATM   28  O   UNL     1       5.053  26.197  49.920  1.00  0.00    -0.353 OA
HETATM   29  C   UNL     1       4.126  26.662  48.950  1.00  0.00     0.210 C 
ENDBRANCH  23  28
ENDBRANCH  19  20
ENDBRANCH  18  19
ENDBRANCH  15  18
ENDBRANCH  13  14
ENDBRANCH  12  13
ENDBRANCH   2  12
BRANCH   1  30
HETATM   30  C   UNL     1       8.013  31.434  59.627  1.00  0.00     0.043 A 
HETATM   31  C   UNL     1       9.220  32.050  59.272  1.00  0.00     0.032 A 
HETATM   32  C   UNL     1      10.092  31.431  58.373  1.00  0.00     0.026 A 
HETATM   33  C   UNL     1       9.763  30.199  57.804  1.00  0.00     0.040 A 
HETATM   34  C   UNL     1       8.558  29.562  58.135  1.00  0.00    -0.038 A 
HETATM   35 CL   UNL     1      10.871  29.505  56.678  1.00  0.00    -0.084 Cl
HETATM   36  C   UNL     1       8.169  28.240  57.533  1.00  0.00     0.050 C 
HETATM   37  C   UNL     1       7.696  30.188  59.052  1.00  0.00     0.038 A 
ENDBRANCH   1  30
BRANCH   6  38
HETATM   38  N   UNL     1       8.472  31.848  62.459  1.00  0.00    -0.384 N 
HETATM   39  H   UNL     1       8.964  31.042  62.104  1.00  0.00     0.157 HD
HETATM   40  H   UNL     1       8.865  32.330  63.258  1.00  0.00     0.157 HD
ENDBRANCH   6  38
TORSDOF 10
ENDMDL
MODEL 10
REMARK VINA RESULT:      -8.1      3.732      5.785
REMARK  10 active torsions:
REMARK  status: ('A' for Active; 'I' for Inactive)
REMARK    1  A    between atoms: C_7  and  N_8 
REMARK    2  A    between atoms: C_9  and  S_10 
REMARK    3  A    between atoms: S_10  and  C_11 
REMARK    4  A    between atoms: C_11  and  C_12 
REMARK       I    between atoms: C_12  and  N_13 
REMARK    5  A    between atoms: N_13  and  C_14 
REMARK    6  A    between atoms: C_14  and  C_15 
REMARK    7  A    between atoms: C_15  and  C_16 
REMARK    8  A    between atoms: C_18  and  O_19 
REMARK    9  A    between atoms: C_21  and  O_22 
REMARK   10  A    between atoms: C_30  and  N_31 
ROOT
HETATM    1  N   UNL     1       5.551  26.874  52.830  1.00  0.00    -0.276 N 
HETATM    2  C   UNL     1       5.091  27.075  54.161  1.00  0.00     0.177 A 
HETATM    3  N   UNL     1       5.345  26.298  55.187  1.00  0.00    -0.204 NA
HETATM    4  C   UNL     1       6.141  25.248  54.896  1.00  0.00     0.162 A 
HETATM    5  C   UNL     1       6.695  24.884  53.700  1.00  0.00     0.081 A 
HETATM    6  C   UNL     1       6.380  25.700  52.565  1.00  0.00     0.124 A 
HETATM    7  N   UNL     1       6.588  24.324  55.795  1.00  0.00    -0.260 N 
HETATM    8  H   UNL     1       6.390  24.275  56.788  1.00  0.00     0.191 HD
HETATM    9  N   UNL     1       7.398  23.396  55.240  1.00  0.00    -0.177 NA
HETATM   10  C   UNL     1       7.478  23.747  53.945  1.00  0.00     0.068 A 
HETATM   11  C   UNL     1       8.328  22.952  53.028  1.00  0.00     0.073 C 
ENDROOT
BRANCH   2  12
HETATM   12  S   UNL     1       4.134  28.517  54.564  1.00  0.00    -0.082 SA
BRANCH  12  13
HETATM   13  C   UNL     1       5.458  29.631  55.113  1.00  0.00     0.185 C 
BRANCH  13  14
HETATM   14  C   UNL     1       5.827  29.411  56.573  1.00  0.00     0.227 C 
HETATM   15  N   UNL     1       7.185  29.205  56.761  1.00  0.00    -0.360 N 
HETATM   16  H   UNL     1       7.760  29.012  55.951  1.00  0.00     0.162 HD
HETATM   17  O   UNL     1       5.016  29.367  57.492  1.00  0.00    -0.273 OA
BRANCH  15  18
HETATM   18  C   UNL     1       7.720  28.874  58.074  1.00  0.00     0.127 C 
BRANCH  18  19
HETATM   19  C   UNL     1       8.790  29.876  58.505  1.00  0.00     0.058 C 
BRANCH  19  20
HETATM   20  C   UNL     1       8.363  30.724  59.676  1.00  0.00    -0.054 A 
HETATM   21  C   UNL     1       7.232  31.548  59.578  1.00  0.00     0.046 A 
HETATM   22  C   UNL     1       6.834  32.352  60.654  1.00  0.00     0.102 A 
HETATM   23  C   UNL     1       7.577  32.329  61.851  1.00  0.00     0.101 A 
HETATM   24  C   UNL     1       8.692  31.492  61.954  1.00  0.00     0.040 A 
HETATM   25  C   UNL     1       9.081  30.695  60.874  1.00  0.00     0.010 A 
BRANCH  22  26
HETATM   26  O   UNL     1       5.749  33.194  60.635  1.00  0.00    -0.353 OA
HETATM   27  C   UNL     1       4.754  32.967  59.648  1.00  0.00     0.210 C 
ENDBRANCH  22  26
BRANCH  23  28
HETATM   28  O   UNL     1       7.127  33.147  62.859  1.00  0.00    -0.353 OA
HETATM   29  C   UNL     1       7.788  33.068  64.113  1.00  0.00     0.210 C 
ENDBRANCH  23  28
ENDBRANCH  19  20
ENDBRANCH  18  19
ENDBRANCH  15  18
ENDBRANCH  13  14
ENDBRANCH  12  13
ENDBRANCH   2  12
BRANCH   1  30
HETATM   30  C   UNL     1       5.226  27.772  51.770  1.00  0.00     0.043 A 
HETATM   31  C   UNL     1       5.863  29.013  51.646  1.00  0.00     0.032 A 
HETATM   32  C   UNL     1       5.468  29.914  50.654  1.00  0.00     0.026 A 
HETATM   33  C   UNL     1       4.422  29.595  49.786  1.00  0.00     0.040 A 
HETATM   34  C   UNL     1       3.761  28.363  49.892  1.00  0.00    -0.038 A 
HETATM   35 CL   UNL     1       3.965  30.767  48.604  1.00  0.00    -0.084 Cl
HETATM   36  C   UNL     1       2.624  27.993  48.979  1.00  0.00     0.050 C 
HETATM   37  C   UNL     1       4.177  27.459  50.884  1.00  0.00     0.038 A 
ENDBRANCH   1  30
BRANCH   6  38
HETATM   38  N   UNL     1       6.787  25.365  51.356  1.00  0.00    -0.384 N 
HETATM   39  H   UNL     1       6.940  26.053  50.634  1.00  0.00     0.157 HD
HETATM   40  H   UNL     1       6.995  24.397  51.140  1.00  0.00     0.157 HD
ENDBRANCH   6  38
TORSDOF 10
ENDMDL
