MODEL 1
REMARK VINA RESULT:     -10.0      0.000      0.000
REMARK  9 active torsions:
REMARK  status: ('A' for Active; 'I' for Inactive)
REMARK    1  A    between atoms: C_2  and  O_3 
REMARK    2  A    between atoms: O_3  and  C_4 
REMARK    3  A    between atoms: C_4  and  C_5 
REMARK    4  A    between atoms: C_8  and  N_9 
REMARK       I    between atoms: N_9  and  C_10 
REMARK    5  A    between atoms: C_10  and  C_11 
REMARK    6  A    between atoms: C_11  and  C_12 
REMARK    7  A    between atoms: N_13  and  C_14 
REMARK    8  A    between atoms: C_14  and  C_15 
REMARK    9  A    between atoms: N_23  and  C_24 
ROOT
HETATM    1  C   UNL     1       5.836  27.636  53.453  1.00  0.00     0.191 C 
HETATM    2  N   UNL     1       5.242  26.890  52.361  1.00  0.00    -0.315 N 
HETATM    3  C   UNL     1       5.392  25.517  52.577  1.00  0.00     0.333 C 
HETATM    4  O   UNL     1       4.676  24.686  52.037  1.00  0.00    -0.246 OA
HETATM    5  N   UNL     1       6.412  25.335  53.493  1.00  0.00    -0.232 N 
HETATM    6  C   UNL     1       6.809  26.572  53.961  1.00  0.00     0.256 C 
HETATM    7  O   UNL     1       7.736  26.862  54.707  1.00  0.00    -0.270 OA
ENDROOT
BRANCH   1   8
HETATM    8  C   UNL     1       4.802  27.966  54.525  1.00  0.00     0.138 C 
BRANCH   8   9
HETATM    9  C   UNL     1       5.211  29.129  55.403  1.00  0.00     0.224 C 
HETATM   10  N   UNL     1       5.932  28.747  56.522  1.00  0.00    -0.327 N 
HETATM   11  H   UNL     1       6.062  27.756  56.682  1.00  0.00     0.169 HD
HETATM   12  O   UNL     1       4.939  30.274  55.064  1.00  0.00    -0.273 OA
BRANCH  10  13
HETATM   13  C   UNL     1       6.601  29.598  57.431  1.00  0.00     0.034 A 
HETATM   14  C   UNL     1       6.010  30.704  58.049  1.00  0.00     0.030 A 
HETATM   15  C   UNL     1       6.753  31.529  58.907  1.00  0.00     0.020 A 
HETATM   16  C   UNL     1       8.100  31.256  59.162  1.00  0.00     0.039 A 
HETATM   17  C   UNL     1       8.694  30.145  58.551  1.00  0.00     0.020 A 
HETATM   18  C   UNL     1       7.949  29.324  57.695  1.00  0.00     0.030 A 
BRANCH  16  19
HETATM   19  C   UNL     1       8.934  32.098  60.064  1.00  0.00     0.293 C 
HETATM   20  O   UNL     1      10.111  32.344  59.852  1.00  0.00    -0.259 OA
BRANCH  19  21
HETATM   21  O   UNL     1       8.207  32.530  61.124  1.00  0.00    -0.318 OA
BRANCH  21  22
HETATM   22  C   UNL     1       8.332  31.757  62.327  1.00  0.00     0.174 C 
HETATM   23  C   UNL     1       7.909  32.576  63.531  1.00  0.00     0.034 C 
ENDBRANCH  21  22
ENDBRANCH  19  21
ENDBRANCH  16  19
ENDBRANCH  10  13
ENDBRANCH   8   9
ENDBRANCH   1   8
BRANCH   2  24
HETATM   24  C   UNL     1       4.199  27.440  51.514  1.00  0.00     0.168 C 
BRANCH  24  25
HETATM   25  C   UNL     1       4.593  27.515  50.066  1.00  0.00    -0.023 A 
HETATM   26  C   UNL     1       5.366  28.564  49.579  1.00  0.00     0.125 A 
HETATM   27  N   UNL     1       5.760  28.685  48.291  1.00  0.00    -0.273 NA
HETATM   28  C   UNL     1       5.385  27.700  47.446  1.00  0.00     0.116 A 
HETATM   29  C   UNL     1       4.626  26.609  47.828  1.00  0.00     0.020 A 
HETATM   30  C   UNL     1       4.224  26.520  49.156  1.00  0.00     0.012 A 
ENDBRANCH  24  25
ENDBRANCH   2  24
BRANCH   5  31
HETATM   31  C   UNL     1       6.972  24.072  53.869  1.00  0.00     0.047 A 
HETATM   32  C   UNL     1       7.606  23.236  52.933  1.00  0.00     0.031 A 
HETATM   33  C   UNL     1       8.162  22.000  53.296  1.00  0.00     0.009 A 
HETATM   34  C   UNL     1       8.104  21.557  54.614  1.00  0.00    -0.062 A 
HETATM   35  C   UNL     1       8.713  20.248  55.020  1.00  0.00     0.048 C 
HETATM   36  C   UNL     1       7.489  22.373  55.562  1.00  0.00     0.009 A 
HETATM   37  C   UNL     1       6.929  23.606  55.193  1.00  0.00     0.031 A 
ENDBRANCH   5  31
TORSDOF 9
ENDMDL
MODEL 2
REMARK VINA RESULT:      -9.9      2.649      9.258
REMARK  9 active torsions:
REMARK  status: ('A' for Active; 'I' for Inactive)
REMARK    1  A    between atoms: C_2  and  O_3 
REMARK    2  A    between atoms: O_3  and  C_4 
REMARK    3  A    between atoms: C_4  and  C_5 
REMARK    4  A    between atoms: C_8  and  N_9 
REMARK       I    between atoms: N_9  and  C_10 
REMARK    5  A    between atoms: C_10  and  C_11 
REMARK    6  A    between atoms: C_11  and  C_12 
REMARK    7  A    between atoms: N_13  and  C_14 
REMARK    8  A    between atoms: C_14  and  C_15 
REMARK    9  A    between atoms: N_23  and  C_24 
ROOT
HETATM    1  C   UNL     1       7.072  25.770  54.961  1.00  0.00     0.191 C 
HETATM    2  N   UNL     1       7.595  25.072  56.118  1.00  0.00    -0.315 N 
HETATM    3  C   UNL     1       7.921  25.984  57.126  1.00  0.00     0.333 C 
HETATM    4  O   UNL     1       8.011  25.658  58.300  1.00  0.00    -0.246 OA
HETATM    5  N   UNL     1       8.059  27.232  56.548  1.00  0.00    -0.232 N 
HETATM    6  C   UNL     1       7.687  27.145  55.220  1.00  0.00     0.256 C 
HETATM    7  O   UNL     1       7.749  27.992  54.338  1.00  0.00    -0.270 OA
ENDROOT
BRANCH   1   8
HETATM    8  C   UNL     1       5.549  25.853  55.005  1.00  0.00     0.138 C 
BRANCH   8   9
HETATM    9  C   UNL     1       4.920  25.893  53.629  1.00  0.00     0.224 C 
HETATM   10  N   UNL     1       4.981  27.141  53.032  1.00  0.00    -0.327 N 
HETATM   11  H   UNL     1       5.371  27.902  53.573  1.00  0.00     0.169 HD
HETATM   12  O   UNL     1       4.464  24.868  53.136  1.00  0.00    -0.273 OA
BRANCH  10  13
HETATM   13  C   UNL     1       4.646  27.459  51.696  1.00  0.00     0.034 A 
HETATM   14  C   UNL     1       3.768  28.483  51.330  1.00  0.00     0.030 A 
HETATM   15  C   UNL     1       3.451  28.710  49.983  1.00  0.00     0.020 A 
HETATM   16  C   UNL     1       4.012  27.914  48.979  1.00  0.00     0.039 A 
HETATM   17  C   UNL     1       4.898  26.892  49.340  1.00  0.00     0.020 A 
HETATM   18  C   UNL     1       5.212  26.669  50.687  1.00  0.00     0.030 A 
BRANCH  16  19
HETATM   19  C   UNL     1       3.710  28.112  47.534  1.00  0.00     0.293 C 
HETATM   20  O   UNL     1       3.782  29.195  46.977  1.00  0.00    -0.259 OA
BRANCH  19  21
HETATM   21  O   UNL     1       3.349  26.940  46.956  1.00  0.00    -0.318 OA
BRANCH  21  22
HETATM   22  C   UNL     1       2.065  26.422  47.336  1.00  0.00     0.174 C 
HETATM   23  C   UNL     1       0.954  27.217  46.677  1.00  0.00     0.034 C 
ENDBRANCH  21  22
ENDBRANCH  19  21
ENDBRANCH  16  19
ENDBRANCH  10  13
ENDBRANCH   8   9
ENDBRANCH   1   8
BRANCH   2  24
HETATM   24  C   UNL     1       7.296  23.677  56.390  1.00  0.00     0.168 C 
BRANCH  24  25
HETATM   25  C   UNL     1       7.812  22.745  55.330  1.00  0.00    -0.023 A 
HETATM   26  C   UNL     1       8.635  21.670  55.649  1.00  0.00     0.125 A 
HETATM   27  N   UNL     1       9.126  20.792  54.744  1.00  0.00    -0.273 NA
HETATM   28  C   UNL     1       8.761  20.980  53.457  1.00  0.00     0.116 A 
HETATM   29  C   UNL     1       7.939  22.008  53.033  1.00  0.00     0.020 A 
HETATM   30  C   UNL     1       7.462  22.903  53.986  1.00  0.00     0.012 A 
ENDBRANCH  24  25
ENDBRANCH   2  24
BRANCH   5  31
HETATM   31  C   UNL     1       8.530  28.408  57.216  1.00  0.00     0.047 A 
HETATM   32  C   UNL     1       9.807  28.939  56.963  1.00  0.00     0.031 A 
HETATM   33  C   UNL     1      10.274  30.093  57.609  1.00  0.00     0.009 A 
HETATM   34  C   UNL     1       9.475  30.759  58.534  1.00  0.00    -0.062 A 
HETATM   35  C   UNL     1       9.953  32.006  59.217  1.00  0.00     0.048 C 
HETATM   36  C   UNL     1       8.201  30.256  58.795  1.00  0.00     0.009 A 
HETATM   37  C   UNL     1       7.742  29.097  58.150  1.00  0.00     0.031 A 
ENDBRANCH   5  31
TORSDOF 9
ENDMDL
MODEL 3
REMARK VINA RESULT:      -9.8      3.597      6.502
REMARK  9 active torsions:
REMARK  status: ('A' for Active; 'I' for Inactive)
REMARK    1  A    between atoms: C_2  and  O_3 
REMARK    2  A    between atoms: O_3  and  C_4 
REMARK    3  A    between atoms: C_4  and  C_5 
REMARK    4  A    between atoms: C_8  and  N_9 
REMARK       I    between atoms: N_9  and  C_10 
REMARK    5  A    between atoms: C_10  and  C_11 
REMARK    6  A    between atoms: C_11  and  C_12 
REMARK    7  A    between atoms: N_13  and  C_14 
REMARK    8  A    between atoms: C_14  and  C_15 
REMARK    9  A    between atoms: N_23  and  C_24 
ROOT
HETATM    1  C   UNL     1       8.006  30.302  57.800  1.00  0.00     0.191 C 
HETATM    2  N   UNL     1       6.584  30.114  57.592  1.00  0.00    -0.315 N 
HETATM    3  C   UNL     1       6.321  28.793  57.218  1.00  0.00     0.333 C 
HETATM    4  O   UNL     1       5.220  28.280  57.354  1.00  0.00    -0.246 OA
HETATM    5  N   UNL     1       7.497  28.237  56.748  1.00  0.00    -0.232 N 
HETATM    6  C   UNL     1       8.522  29.140  56.951  1.00  0.00     0.256 C 
HETATM    7  O   UNL     1       9.693  29.080  56.598  1.00  0.00    -0.270 OA
ENDROOT
BRANCH   1   8
HETATM    8  C   UNL     1       8.383  30.097  59.264  1.00  0.00     0.138 C 
BRANCH   8   9
HETATM    9  C   UNL     1       8.019  31.278  60.138  1.00  0.00     0.224 C 
HETATM   10  N   UNL     1       7.421  30.914  61.333  1.00  0.00    -0.327 N 
HETATM   11  H   UNL     1       7.230  29.932  61.483  1.00  0.00     0.169 HD
HETATM   12  O   UNL     1       8.304  32.414  59.778  1.00  0.00    -0.273 OA
BRANCH  10  13
HETATM   13  C   UNL     1       7.129  31.761  62.427  1.00  0.00     0.034 A 
HETATM   14  C   UNL     1       8.100  32.388  63.214  1.00  0.00     0.030 A 
HETATM   15  C   UNL     1       7.733  33.180  64.311  1.00  0.00     0.020 A 
HETATM   16  C   UNL     1       6.384  33.359  64.637  1.00  0.00     0.039 A 
HETATM   17  C   UNL     1       5.409  32.739  63.848  1.00  0.00     0.020 A 
HETATM   18  C   UNL     1       5.780  31.948  62.752  1.00  0.00     0.030 A 
BRANCH  16  19
HETATM   19  C   UNL     1       5.939  34.188  65.791  1.00  0.00     0.293 C 
HETATM   20  O   UNL     1       4.956  34.910  65.757  1.00  0.00    -0.259 OA
BRANCH  19  21
HETATM   21  O   UNL     1       6.773  34.025  66.848  1.00  0.00    -0.318 OA
BRANCH  21  22
HETATM   22  C   UNL     1       6.301  34.536  68.104  1.00  0.00     0.174 C 
HETATM   23  C   UNL     1       7.467  34.955  68.979  1.00  0.00     0.034 C 
ENDBRANCH  21  22
ENDBRANCH  19  21
ENDBRANCH  16  19
ENDBRANCH  10  13
ENDBRANCH   8   9
ENDBRANCH   1   8
BRANCH   2  24
HETATM   24  C   UNL     1       5.584  30.968  58.209  1.00  0.00     0.168 C 
BRANCH  24  25
HETATM   25  C   UNL     1       5.232  32.164  57.371  1.00  0.00    -0.023 A 
HETATM   26  C   UNL     1       5.080  32.063  55.991  1.00  0.00     0.125 A 
HETATM   27  N   UNL     1       4.756  33.098  55.183  1.00  0.00    -0.273 NA
HETATM   28  C   UNL     1       4.552  34.293  55.779  1.00  0.00     0.116 A 
HETATM   29  C   UNL     1       4.666  34.501  57.142  1.00  0.00     0.020 A 
HETATM   30  C   UNL     1       5.014  33.420  57.945  1.00  0.00     0.012 A 
ENDBRANCH  24  25
ENDBRANCH   2  24
BRANCH   5  31
HETATM   31  C   UNL     1       7.617  26.949  56.133  1.00  0.00     0.047 A 
HETATM   32  C   UNL     1       7.970  25.808  56.873  1.00  0.00     0.031 A 
HETATM   33  C   UNL     1       8.084  24.542  56.279  1.00  0.00     0.009 A 
HETATM   34  C   UNL     1       7.846  24.374  54.917  1.00  0.00    -0.062 A 
HETATM   35  C   UNL     1       7.944  23.024  54.273  1.00  0.00     0.048 C 
HETATM   36  C   UNL     1       7.486  25.491  54.164  1.00  0.00     0.009 A 
HETATM   37  C   UNL     1       7.379  26.756  54.763  1.00  0.00     0.031 A 
ENDBRANCH   5  31
TORSDOF 9
ENDMDL
MODEL 4
REMARK VINA RESULT:      -9.4      2.619      9.019
REMARK  9 active torsions:
REMARK  status: ('A' for Active; 'I' for Inactive)
REMARK    1  A    between atoms: C_2  and  O_3 
REMARK    2  A    between atoms: O_3  and  C_4 
REMARK    3  A    between atoms: C_4  and  C_5 
REMARK    4  A    between atoms: C_8  and  N_9 
REMARK       I    between atoms: N_9  and  C_10 
REMARK    5  A    between atoms: C_10  and  C_11 
REMARK    6  A    between atoms: C_11  and  C_12 
REMARK    7  A    between atoms: N_13  and  C_14 
REMARK    8  A    between atoms: C_14  and  C_15 
REMARK    9  A    between atoms: N_23  and  C_24 
ROOT
HETATM    1  C   UNL     1       6.996  25.940  54.898  1.00  0.00     0.191 C 
HETATM    2  N   UNL     1       7.472  25.215  56.059  1.00  0.00    -0.315 N 
HETATM    3  C   UNL     1       7.800  26.108  57.084  1.00  0.00     0.333 C 
HETATM    4  O   UNL     1       7.853  25.768  58.257  1.00  0.00    -0.246 OA
HETATM    5  N   UNL     1       7.986  27.357  56.523  1.00  0.00    -0.232 N 
HETATM    6  C   UNL     1       7.644  27.295  55.186  1.00  0.00     0.256 C 
HETATM    7  O   UNL     1       7.750  28.148  54.315  1.00  0.00    -0.270 OA
ENDROOT
BRANCH   1   8
HETATM    8  C   UNL     1       5.476  26.066  54.908  1.00  0.00     0.138 C 
BRANCH   8   9
HETATM    9  C   UNL     1       4.882  26.166  53.519  1.00  0.00     0.224 C 
HETATM   10  N   UNL     1       4.856  27.460  53.024  1.00  0.00    -0.327 N 
HETATM   11  H   UNL     1       5.165  28.204  53.635  1.00  0.00     0.169 HD
HETATM   12  O   UNL     1       4.527  25.151  52.932  1.00  0.00    -0.273 OA
BRANCH  10  13
HETATM   13  C   UNL     1       4.531  27.856  51.706  1.00  0.00     0.034 A 
HETATM   14  C   UNL     1       3.429  28.649  51.375  1.00  0.00     0.030 A 
HETATM   15  C   UNL     1       3.147  28.965  50.038  1.00  0.00     0.020 A 
HETATM   16  C   UNL     1       3.969  28.494  49.010  1.00  0.00     0.039 A 
HETATM   17  C   UNL     1       5.079  27.706  49.338  1.00  0.00     0.020 A 
HETATM   18  C   UNL     1       5.357  27.392  50.674  1.00  0.00     0.030 A 
BRANCH  16  19
HETATM   19  C   UNL     1       3.717  28.799  47.575  1.00  0.00     0.293 C 
HETATM   20  O   UNL     1       2.715  28.436  46.979  1.00  0.00    -0.259 OA
BRANCH  19  21
HETATM   21  O   UNL     1       4.742  29.515  47.050  1.00  0.00    -0.318 OA
BRANCH  21  22
HETATM   22  C   UNL     1       4.413  30.831  46.581  1.00  0.00     0.174 C 
HETATM   23  C   UNL     1       4.770  31.872  47.624  1.00  0.00     0.034 C 
ENDBRANCH  21  22
ENDBRANCH  19  21
ENDBRANCH  16  19
ENDBRANCH  10  13
ENDBRANCH   8   9
ENDBRANCH   1   8
BRANCH   2  24
HETATM   24  C   UNL     1       7.127  23.827  56.310  1.00  0.00     0.168 C 
BRANCH  24  25
HETATM   25  C   UNL     1       7.732  22.880  55.313  1.00  0.00    -0.023 A 
HETATM   26  C   UNL     1       8.607  21.873  55.708  1.00  0.00     0.125 A 
HETATM   27  N   UNL     1       9.178  20.985  54.862  1.00  0.00    -0.273 NA
HETATM   28  C   UNL     1       8.846  21.090  53.557  1.00  0.00     0.116 A 
HETATM   29  C   UNL     1       7.979  22.046  53.059  1.00  0.00     0.020 A 
HETATM   30  C   UNL     1       7.419  22.953  53.952  1.00  0.00     0.012 A 
ENDBRANCH  24  25
ENDBRANCH   2  24
BRANCH   5  31
HETATM   31  C   UNL     1       8.476  28.512  57.214  1.00  0.00     0.047 A 
HETATM   32  C   UNL     1       7.694  29.190  58.165  1.00  0.00     0.031 A 
HETATM   33  C   UNL     1       8.168  30.319  58.850  1.00  0.00     0.009 A 
HETATM   34  C   UNL     1       9.448  30.809  58.607  1.00  0.00    -0.062 A 
HETATM   35  C   UNL     1       9.976  32.001  59.348  1.00  0.00     0.048 C 
HETATM   36  C   UNL     1      10.246  30.147  57.675  1.00  0.00     0.009 A 
HETATM   37  C   UNL     1       9.763  29.022  56.987  1.00  0.00     0.031 A 
ENDBRANCH   5  31
TORSDOF 9
ENDMDL
MODEL 5
REMARK VINA RESULT:      -9.4      3.608      5.367
REMARK  9 active torsions:
REMARK  status: ('A' for Active; 'I' for Inactive)
REMARK    1  A    between atoms: C_2  and  O_3 
REMARK    2  A    between atoms: O_3  and  C_4 
REMARK    3  A    between atoms: C_4  and  C_5 
REMARK    4  A    between atoms: C_8  and  N_9 
REMARK       I    between atoms: N_9  and  C_10 
REMARK    5  A    between atoms: C_10  and  C_11 
REMARK    6  A    between atoms: C_11  and  C_12 
REMARK    7  A    between atoms: N_13  and  C_14 
REMARK    8  A    between atoms: C_14  and  C_15 
REMARK    9  A    between atoms: N_23  and  C_24 
ROOT
HETATM    1  C   UNL     1       5.814  27.394  56.710  1.00  0.00     0.191 C 
HETATM    2  N   UNL     1       6.982  27.850  55.984  1.00  0.00    -0.315 N 
HETATM    3  C   UNL     1       7.392  26.877  55.068  1.00  0.00     0.333 C 
HETATM    4  O   UNL     1       8.083  27.142  54.095  1.00  0.00    -0.246 OA
HETATM    5  N   UNL     1       6.848  25.667  55.455  1.00  0.00    -0.232 N 
HETATM    6  C   UNL     1       5.990  25.888  56.516  1.00  0.00     0.256 C 
HETATM    7  O   UNL     1       5.383  25.081  57.207  1.00  0.00    -0.270 OA
ENDROOT
BRANCH   1   8
HETATM    8  C   UNL     1       4.527  27.868  56.040  1.00  0.00     0.138 C 
BRANCH   8   9
HETATM    9  C   UNL     1       4.146  29.281  56.426  1.00  0.00     0.224 C 
HETATM   10  N   UNL     1       4.480  29.604  57.731  1.00  0.00    -0.327 N 
HETATM   11  H   UNL     1       4.877  28.875  58.309  1.00  0.00     0.169 HD
HETATM   12  O   UNL     1       3.640  30.025  55.595  1.00  0.00    -0.273 OA
BRANCH  10  13
HETATM   13  C   UNL     1       4.419  30.884  58.329  1.00  0.00     0.034 A 
HETATM   14  C   UNL     1       5.331  31.912  58.076  1.00  0.00     0.030 A 
HETATM   15  C   UNL     1       5.231  33.142  58.743  1.00  0.00     0.020 A 
HETATM   16  C   UNL     1       4.210  33.362  59.673  1.00  0.00     0.039 A 
HETATM   17  C   UNL     1       3.290  32.338  59.925  1.00  0.00     0.020 A 
HETATM   18  C   UNL     1       3.394  31.111  59.257  1.00  0.00     0.030 A 
BRANCH  16  19
HETATM   19  C   UNL     1       4.057  34.648  60.409  1.00  0.00     0.293 C 
HETATM   20  O   UNL     1       3.768  35.701  59.863  1.00  0.00    -0.259 OA
BRANCH  19  21
HETATM   21  O   UNL     1       4.286  34.472  61.733  1.00  0.00    -0.318 OA
BRANCH  21  22
HETATM   22  C   UNL     1       3.347  35.099  62.621  1.00  0.00     0.174 C 
HETATM   23  C   UNL     1       2.301  34.101  63.080  1.00  0.00     0.034 C 
ENDBRANCH  21  22
ENDBRANCH  19  21
ENDBRANCH  16  19
ENDBRANCH  10  13
ENDBRANCH   8   9
ENDBRANCH   1   8
BRANCH   2  24
HETATM   24  C   UNL     1       7.307  29.258  55.829  1.00  0.00     0.168 C 
BRANCH  24  25
HETATM   25  C   UNL     1       8.562  29.656  56.552  1.00  0.00    -0.023 A 
HETATM   26  C   UNL     1       9.808  29.577  55.938  1.00  0.00     0.125 A 
HETATM   27  N   UNL     1      10.973  29.927  56.531  1.00  0.00    -0.273 NA
HETATM   28  C   UNL     1      10.892  30.402  57.794  1.00  0.00     0.116 A 
HETATM   29  C   UNL     1       9.706  30.531  58.492  1.00  0.00     0.020 A 
HETATM   30  C   UNL     1       8.527  30.149  57.860  1.00  0.00     0.012 A 
ENDBRANCH  24  25
ENDBRANCH   2  24
BRANCH   5  31
HETATM   31  C   UNL     1       7.147  24.396  54.865  1.00  0.00     0.047 A 
HETATM   32  C   UNL     1       6.988  24.166  53.488  1.00  0.00     0.031 A 
HETATM   33  C   UNL     1       7.284  22.926  52.902  1.00  0.00     0.009 A 
HETATM   34  C   UNL     1       7.754  21.870  53.678  1.00  0.00    -0.062 A 
HETATM   35  C   UNL     1       8.095  20.546  53.061  1.00  0.00     0.048 C 
HETATM   36  C   UNL     1       7.928  22.077  55.045  1.00  0.00     0.009 A 
HETATM   37  C   UNL     1       7.624  23.318  55.627  1.00  0.00     0.031 A 
ENDBRANCH   5  31
TORSDOF 9
ENDMDL
MODEL 6
REMARK VINA RESULT:      -9.3      3.582      7.460
REMARK  9 active torsions:
REMARK  status: ('A' for Active; 'I' for Inactive)
REMARK    1  A    between atoms: C_2  and  O_3 
REMARK    2  A    between atoms: O_3  and  C_4 
REMARK    3  A    between atoms: C_4  and  C_5 
REMARK    4  A    between atoms: C_8  and  N_9 
REMARK       I    between atoms: N_9  and  C_10 
REMARK    5  A    between atoms: C_10  and  C_11 
REMARK    6  A    between atoms: C_11  and  C_12 
REMARK    7  A    between atoms: N_13  and  C_14 
REMARK    8  A    between atoms: C_14  and  C_15 
REMARK    9  A    between atoms: N_23  and  C_24 
ROOT
HETATM    1  C   UNL     1       6.718  29.968  57.977  1.00  0.00     0.191 C 
HETATM    2  N   UNL     1       8.160  29.972  57.832  1.00  0.00    -0.315 N 
HETATM    3  C   UNL     1       8.542  29.141  56.774  1.00  0.00     0.333 C 
HETATM    4  O   UNL     1       9.617  29.256  56.206  1.00  0.00    -0.246 OA
HETATM    5  N   UNL     1       7.499  28.272  56.513  1.00  0.00    -0.232 N 
HETATM    6  C   UNL     1       6.418  28.634  57.293  1.00  0.00     0.256 C 
HETATM    7  O   UNL     1       5.338  28.075  57.434  1.00  0.00    -0.270 OA
ENDROOT
BRANCH   1   8
HETATM    8  C   UNL     1       6.081  31.117  57.201  1.00  0.00     0.138 C 
BRANCH   8   9
HETATM    9  C   UNL     1       5.556  32.216  58.098  1.00  0.00     0.224 C 
HETATM   10  N   UNL     1       5.094  31.756  59.321  1.00  0.00    -0.327 N 
HETATM   11  H   UNL     1       5.091  30.756  59.475  1.00  0.00     0.169 HD
HETATM   12  O   UNL     1       5.613  33.384  57.731  1.00  0.00    -0.273 OA
BRANCH  10  13
HETATM   13  C   UNL     1       4.712  32.541  60.433  1.00  0.00     0.034 A 
HETATM   14  C   UNL     1       4.168  33.824  60.336  1.00  0.00     0.030 A 
HETATM   15  C   UNL     1       3.854  34.559  61.489  1.00  0.00     0.020 A 
HETATM   16  C   UNL     1       4.077  34.017  62.758  1.00  0.00     0.039 A 
HETATM   17  C   UNL     1       4.615  32.729  62.859  1.00  0.00     0.020 A 
HETATM   18  C   UNL     1       4.928  31.998  61.706  1.00  0.00     0.030 A 
BRANCH  16  19
HETATM   19  C   UNL     1       3.762  34.753  64.014  1.00  0.00     0.293 C 
HETATM   20  O   UNL     1       3.621  35.965  64.062  1.00  0.00    -0.259 OA
BRANCH  19  21
HETATM   21  O   UNL     1       3.664  33.896  65.060  1.00  0.00    -0.318 OA
BRANCH  21  22
HETATM   22  C   UNL     1       4.355  34.285  66.257  1.00  0.00     0.174 C 
HETATM   23  C   UNL     1       5.849  34.078  66.100  1.00  0.00     0.034 C 
ENDBRANCH  21  22
ENDBRANCH  19  21
ENDBRANCH  16  19
ENDBRANCH  10  13
ENDBRANCH   8   9
ENDBRANCH   1   8
BRANCH   2  24
HETATM   24  C   UNL     1       8.991  31.062  58.311  1.00  0.00     0.168 C 
BRANCH  24  25
HETATM   25  C   UNL     1       8.822  31.331  59.779  1.00  0.00    -0.023 A 
HETATM   26  C   UNL     1       9.083  30.350  60.731  1.00  0.00     0.125 A 
HETATM   27  N   UNL     1       8.958  30.531  62.066  1.00  0.00    -0.273 NA
HETATM   28  C   UNL     1       8.575  31.759  62.478  1.00  0.00     0.116 A 
HETATM   29  C   UNL     1       8.301  32.808  61.619  1.00  0.00     0.020 A 
HETATM   30  C   UNL     1       8.425  32.586  60.251  1.00  0.00     0.012 A 
ENDBRANCH  24  25
ENDBRANCH   2  24
BRANCH   5  31
HETATM   31  C   UNL     1       7.548  27.168  55.601  1.00  0.00     0.047 A 
HETATM   32  C   UNL     1       7.451  27.354  54.211  1.00  0.00     0.031 A 
HETATM   33  C   UNL     1       7.504  26.278  53.312  1.00  0.00     0.009 A 
HETATM   34  C   UNL     1       7.658  24.974  53.775  1.00  0.00    -0.062 A 
HETATM   35  C   UNL     1       7.738  23.818  52.824  1.00  0.00     0.048 C 
HETATM   36  C   UNL     1       7.766  24.767  55.149  1.00  0.00     0.009 A 
HETATM   37  C   UNL     1       7.706  25.846  56.045  1.00  0.00     0.031 A 
ENDBRANCH   5  31
TORSDOF 9
ENDMDL
MODEL 7
REMARK VINA RESULT:      -9.0      3.352      9.518
REMARK  9 active torsions:
REMARK  status: ('A' for Active; 'I' for Inactive)
REMARK    1  A    between atoms: C_2  and  O_3 
REMARK    2  A    between atoms: O_3  and  C_4 
REMARK    3  A    between atoms: C_4  and  C_5 
REMARK    4  A    between atoms: C_8  and  N_9 
REMARK       I    between atoms: N_9  and  C_10 
REMARK    5  A    between atoms: C_10  and  C_11 
REMARK    6  A    between atoms: C_11  and  C_12 
REMARK    7  A    between atoms: N_13  and  C_14 
REMARK    8  A    between atoms: C_14  and  C_15 
REMARK    9  A    between atoms: N_23  and  C_24 
ROOT
HETATM    1  C   UNL     1       5.128  26.675  52.492  1.00  0.00     0.191 C 
HETATM    2  N   UNL     1       5.926  27.212  53.576  1.00  0.00    -0.315 N 
HETATM    3  C   UNL     1       6.850  26.259  54.014  1.00  0.00     0.333 C 
HETATM    4  O   UNL     1       7.864  26.561  54.625  1.00  0.00    -0.246 OA
HETATM    5  N   UNL     1       6.416  25.015  53.594  1.00  0.00    -0.232 N 
HETATM    6  C   UNL     1       5.311  25.186  52.781  1.00  0.00     0.256 C 
HETATM    7  O   UNL     1       4.575  24.345  52.282  1.00  0.00    -0.270 OA
ENDROOT
BRANCH   1   8
HETATM    8  C   UNL     1       5.729  27.030  51.135  1.00  0.00     0.138 C 
BRANCH   8   9
HETATM    9  C   UNL     1       4.740  27.702  50.208  1.00  0.00     0.224 C 
HETATM   10  N   UNL     1       4.027  26.811  49.423  1.00  0.00    -0.327 N 
HETATM   11  H   UNL     1       4.266  25.830  49.490  1.00  0.00     0.169 HD
HETATM   12  O   UNL     1       4.602  28.919  50.241  1.00  0.00    -0.273 OA
BRANCH  10  13
HETATM   13  C   UNL     1       2.919  27.107  48.596  1.00  0.00     0.034 A 
HETATM   14  C   UNL     1       1.927  28.037  48.918  1.00  0.00     0.030 A 
HETATM   15  C   UNL     1       0.833  28.245  48.066  1.00  0.00     0.020 A 
HETATM   16  C   UNL     1       0.718  27.525  46.872  1.00  0.00     0.039 A 
HETATM   17  C   UNL     1       1.713  26.597  46.542  1.00  0.00     0.020 A 
HETATM   18  C   UNL     1       2.804  26.392  47.397  1.00  0.00     0.030 A 
BRANCH  16  19
HETATM   19  C   UNL     1      -0.421  27.706  45.931  1.00  0.00     0.293 C 
HETATM   20  O   UNL     1      -0.710  26.895  45.065  1.00  0.00    -0.259 OA
BRANCH  19  21
HETATM   21  O   UNL     1      -1.063  28.875  46.175  1.00  0.00    -0.318 OA
BRANCH  21  22
HETATM   22  C   UNL     1      -0.596  30.014  45.436  1.00  0.00     0.174 C 
HETATM   23  C   UNL     1      -0.746  31.279  46.259  1.00  0.00     0.034 C 
ENDBRANCH  21  22
ENDBRANCH  19  21
ENDBRANCH  16  19
ENDBRANCH  10  13
ENDBRANCH   8   9
ENDBRANCH   1   8
BRANCH   2  24
HETATM   24  C   UNL     1       6.118  28.638  53.774  1.00  0.00     0.168 C 
BRANCH  24  25
HETATM   25  C   UNL     1       5.472  29.151  55.030  1.00  0.00    -0.023 A 
HETATM   26  C   UNL     1       4.153  29.595  55.038  1.00  0.00     0.125 A 
HETATM   27  N   UNL     1       3.513  30.060  56.135  1.00  0.00    -0.273 NA
HETATM   28  C   UNL     1       4.213  30.064  57.290  1.00  0.00     0.116 A 
HETATM   29  C   UNL     1       5.523  29.636  57.396  1.00  0.00     0.020 A 
HETATM   30  C   UNL     1       6.160  29.176  56.248  1.00  0.00     0.012 A 
ENDBRANCH  24  25
ENDBRANCH   2  24
BRANCH   5  31
HETATM   31  C   UNL     1       7.004  23.763  53.964  1.00  0.00     0.047 A 
HETATM   32  C   UNL     1       7.591  22.913  53.011  1.00  0.00     0.031 A 
HETATM   33  C   UNL     1       8.175  21.687  53.366  1.00  0.00     0.009 A 
HETATM   34  C   UNL     1       8.192  21.270  54.694  1.00  0.00    -0.062 A 
HETATM   35  C   UNL     1       8.831  19.973  55.091  1.00  0.00     0.048 C 
HETATM   36  C   UNL     1       7.623  22.101  55.659  1.00  0.00     0.009 A 
HETATM   37  C   UNL     1       7.035  23.323  55.296  1.00  0.00     0.031 A 
ENDBRANCH   5  31
TORSDOF 9
ENDMDL
MODEL 8
REMARK VINA RESULT:      -8.9      2.577      8.590
REMARK  9 active torsions:
REMARK  status: ('A' for Active; 'I' for Inactive)
REMARK    1  A    between atoms: C_2  and  O_3 
REMARK    2  A    between atoms: O_3  and  C_4 
REMARK    3  A    between atoms: C_4  and  C_5 
REMARK    4  A    between atoms: C_8  and  N_9 
REMARK       I    between atoms: N_9  and  C_10 
REMARK    5  A    between atoms: C_10  and  C_11 
REMARK    6  A    between atoms: C_11  and  C_12 
REMARK    7  A    between atoms: N_13  and  C_14 
REMARK    8  A    between atoms: C_14  and  C_15 
REMARK    9  A    between atoms: N_23  and  C_24 
ROOT
HETATM    1  C   UNL     1       5.456  27.769  56.898  1.00  0.00     0.191 C 
HETATM    2  N   UNL     1       6.697  28.310  56.381  1.00  0.00    -0.315 N 
HETATM    3  C   UNL     1       7.270  27.417  55.470  1.00  0.00     0.333 C 
HETATM    4  O   UNL     1       8.082  27.772  54.627  1.00  0.00    -0.246 OA
HETATM    5  N   UNL     1       6.723  26.167  55.692  1.00  0.00    -0.232 N 
HETATM    6  C   UNL     1       5.716  26.287  56.629  1.00  0.00     0.256 C 
HETATM    7  O   UNL     1       5.048  25.415  57.169  1.00  0.00    -0.270 OA
ENDROOT
BRANCH   1   8
HETATM    8  C   UNL     1       4.260  28.254  56.083  1.00  0.00     0.138 C 
BRANCH   8   9
HETATM    9  C   UNL     1       4.603  28.526  54.635  1.00  0.00     0.224 C 
HETATM   10  N   UNL     1       4.331  27.458  53.795  1.00  0.00    -0.327 N 
HETATM   11  H   UNL     1       3.998  26.601  54.217  1.00  0.00     0.169 HD
HETATM   12  O   UNL     1       5.029  29.626  54.304  1.00  0.00    -0.273 OA
BRANCH  10  13
HETATM   13  C   UNL     1       4.372  27.459  52.382  1.00  0.00     0.034 A 
HETATM   14  C   UNL     1       5.120  26.558  51.619  1.00  0.00     0.030 A 
HETATM   15  C   UNL     1       5.145  26.650  50.220  1.00  0.00     0.020 A 
HETATM   16  C   UNL     1       4.418  27.646  49.561  1.00  0.00     0.039 A 
HETATM   17  C   UNL     1       3.661  28.547  50.321  1.00  0.00     0.020 A 
HETATM   18  C   UNL     1       3.639  28.452  51.719  1.00  0.00     0.030 A 
BRANCH  16  19
HETATM   19  C   UNL     1       4.409  27.789  48.079  1.00  0.00     0.293 C 
HETATM   20  O   UNL     1       4.411  28.869  47.511  1.00  0.00    -0.259 OA
BRANCH  19  21
HETATM   21  O   UNL     1       4.394  26.573  47.481  1.00  0.00    -0.318 OA
BRANCH  21  22
HETATM   22  C   UNL     1       3.096  26.026  47.201  1.00  0.00     0.174 C 
HETATM   23  C   UNL     1       2.925  24.685  47.887  1.00  0.00     0.034 C 
ENDBRANCH  21  22
ENDBRANCH  19  21
ENDBRANCH  16  19
ENDBRANCH  10  13
ENDBRANCH   8   9
ENDBRANCH   1   8
BRANCH   2  24
HETATM   24  C   UNL     1       6.987  29.733  56.371  1.00  0.00     0.168 C 
BRANCH  24  25
HETATM   25  C   UNL     1       7.266  30.288  57.739  1.00  0.00    -0.023 A 
HETATM   26  C   UNL     1       6.478  31.295  58.288  1.00  0.00     0.125 A 
HETATM   27  N   UNL     1       6.671  31.830  59.515  1.00  0.00    -0.273 NA
HETATM   28  C   UNL     1       7.689  31.323  60.245  1.00  0.00     0.116 A 
HETATM   29  C   UNL     1       8.526  30.315  59.800  1.00  0.00     0.020 A 
HETATM   30  C   UNL     1       8.310  29.795  58.528  1.00  0.00     0.012 A 
ENDBRANCH  24  25
ENDBRANCH   2  24
BRANCH   5  31
HETATM   31  C   UNL     1       7.152  24.952  55.066  1.00  0.00     0.047 A 
HETATM   32  C   UNL     1       8.011  24.049  55.716  1.00  0.00     0.031 A 
HETATM   33  C   UNL     1       8.430  22.855  55.112  1.00  0.00     0.009 A 
HETATM   34  C   UNL     1       8.001  22.520  53.830  1.00  0.00    -0.062 A 
HETATM   35  C   UNL     1       8.424  21.237  53.181  1.00  0.00     0.048 C 
HETATM   36  C   UNL     1       7.142  23.396  53.169  1.00  0.00     0.009 A 
HETATM   37  C   UNL     1       6.730  24.594  53.776  1.00  0.00     0.031 A 
ENDBRANCH   5  31
TORSDOF 9
ENDMDL
MODEL 9
REMARK VINA RESULT:      -8.6      1.799      2.492
REMARK  9 active torsions:
REMARK  status: ('A' for Active; 'I' for Inactive)
REMARK    1  A    between atoms: C_2  and  O_3 
REMARK    2  A    between atoms: O_3  and  C_4 
REMARK    3  A    between atoms: C_4  and  C_5 
REMARK    4  A    between atoms: C_8  and  N_9 
REMARK       I    between atoms: N_9  and  C_10 
REMARK    5  A    between atoms: C_10  and  C_11 
REMARK    6  A    between atoms: C_11  and  C_12 
REMARK    7  A    between atoms: N_13  and  C_14 
REMARK    8  A    between atoms: C_14  and  C_15 
REMARK    9  A    between atoms: N_23  and  C_24 
ROOT
HETATM    1  C   UNL     1       5.567  28.535  53.054  1.00  0.00     0.191 C 
HETATM    2  N   UNL     1       5.256  27.901  51.788  1.00  0.00    -0.315 N 
HETATM    3  C   UNL     1       5.454  26.520  51.878  1.00  0.00     0.333 C 
HETATM    4  O   UNL     1       4.919  25.730  51.114  1.00  0.00    -0.246 OA
HETATM    5  N   UNL     1       6.278  26.274  52.960  1.00  0.00    -0.232 N 
HETATM    6  C   UNL     1       6.488  27.462  53.633  1.00  0.00     0.256 C 
HETATM    7  O   UNL     1       7.224  27.700  54.582  1.00  0.00    -0.270 OA
ENDROOT
BRANCH   1   8
HETATM    8  C   UNL     1       4.318  28.686  53.918  1.00  0.00     0.138 C 
BRANCH   8   9
HETATM    9  C   UNL     1       4.636  28.982  55.368  1.00  0.00     0.224 C 
HETATM   10  N   UNL     1       5.362  30.147  55.546  1.00  0.00    -0.327 N 
HETATM   11  H   UNL     1       5.660  30.647  54.718  1.00  0.00     0.169 HD
HETATM   12  O   UNL     1       4.213  28.241  56.248  1.00  0.00    -0.273 OA
BRANCH  10  13
HETATM   13  C   UNL     1       5.658  30.782  56.774  1.00  0.00     0.034 A 
HETATM   14  C   UNL     1       6.735  30.438  57.595  1.00  0.00     0.030 A 
HETATM   15  C   UNL     1       6.938  31.085  58.822  1.00  0.00     0.020 A 
HETATM   16  C   UNL     1       6.066  32.093  59.245  1.00  0.00     0.039 A 
HETATM   17  C   UNL     1       4.990  32.447  58.423  1.00  0.00     0.020 A 
HETATM   18  C   UNL     1       4.790  31.797  57.198  1.00  0.00     0.030 A 
BRANCH  16  19
HETATM   19  C   UNL     1       6.235  32.813  60.538  1.00  0.00     0.293 C 
HETATM   20  O   UNL     1       5.469  33.681  60.926  1.00  0.00    -0.259 OA
BRANCH  19  21
HETATM   21  O   UNL     1       7.338  32.372  61.191  1.00  0.00    -0.318 OA
BRANCH  21  22
HETATM   22  C   UNL     1       7.121  31.860  62.515  1.00  0.00     0.174 C 
HETATM   23  C   UNL     1       7.993  32.591  63.517  1.00  0.00     0.034 C 
ENDBRANCH  21  22
ENDBRANCH  19  21
ENDBRANCH  16  19
ENDBRANCH  10  13
ENDBRANCH   8   9
ENDBRANCH   1   8
BRANCH   2  24
HETATM   24  C   UNL     1       4.369  28.503  50.808  1.00  0.00     0.168 C 
BRANCH  24  25
HETATM   25  C   UNL     1       4.719  29.931  50.495  1.00  0.00    -0.023 A 
HETATM   26  C   UNL     1       3.913  30.984  50.917  1.00  0.00     0.125 A 
HETATM   27  N   UNL     1       4.176  32.289  50.675  1.00  0.00    -0.273 NA
HETATM   28  C   UNL     1       5.311  32.563  49.995  1.00  0.00     0.116 A 
HETATM   29  C   UNL     1       6.187  31.594  49.539  1.00  0.00     0.020 A 
HETATM   30  C   UNL     1       5.881  30.261  49.792  1.00  0.00     0.012 A 
ENDBRANCH  24  25
ENDBRANCH   2  24
BRANCH   5  31
HETATM   31  C   UNL     1       6.836  25.001  53.304  1.00  0.00     0.047 A 
HETATM   32  C   UNL     1       7.679  24.301  52.423  1.00  0.00     0.031 A 
HETATM   33  C   UNL     1       8.234  23.056  52.755  1.00  0.00     0.009 A 
HETATM   34  C   UNL     1       7.965  22.467  53.988  1.00  0.00    -0.062 A 
HETATM   35  C   UNL     1       8.568  21.147  54.364  1.00  0.00     0.048 C 
HETATM   36  C   UNL     1       7.138  23.146  54.881  1.00  0.00     0.009 A 
HETATM   37  C   UNL     1       6.581  24.389  54.541  1.00  0.00     0.031 A 
ENDBRANCH   5  31
TORSDOF 9
ENDMDL
MODEL 10
REMARK VINA RESULT:      -8.5      1.950      2.481
REMARK  9 active torsions:
REMARK  status: ('A' for Active; 'I' for Inactive)
REMARK    1  A    between atoms: C_2  and  O_3 
REMARK    2  A    between atoms: O_3  and  C_4 
REMARK    3  A    between atoms: C_4  and  C_5 
REMARK    4  A    between atoms: C_8  and  N_9 
REMARK       I    between atoms: N_9  and  C_10 
REMARK    5  A    between atoms: C_10  and  C_11 
REMARK    6  A    between atoms: C_11  and  C_12 
REMARK    7  A    between atoms: N_13  and  C_14 
REMARK    8  A    between atoms: C_14  and  C_15 
REMARK    9  A    between atoms: N_23  and  C_24 
ROOT
HETATM    1  C   UNL     1       5.662  27.948  54.559  1.00  0.00     0.191 C 
HETATM    2  N   UNL     1       5.087  27.512  53.302  1.00  0.00    -0.315 N 
HETATM    3  C   UNL     1       5.277  26.137  53.136  1.00  0.00     0.333 C 
HETATM    4  O   UNL     1       4.584  25.465  52.386  1.00  0.00    -0.246 OA
HETATM    5  N   UNL     1       6.304  25.741  53.973  1.00  0.00    -0.232 N 
HETATM    6  C   UNL     1       6.667  26.815  54.763  1.00  0.00     0.256 C 
HETATM    7  O   UNL     1       7.587  26.916  55.565  1.00  0.00    -0.270 OA
ENDROOT
BRANCH   1   8
HETATM    8  C   UNL     1       4.622  27.943  55.676  1.00  0.00     0.138 C 
BRANCH   8   9
HETATM    9  C   UNL     1       4.360  29.320  56.246  1.00  0.00     0.224 C 
HETATM   10  N   UNL     1       4.571  29.398  57.613  1.00  0.00    -0.327 N 
HETATM   11  H   UNL     1       4.811  28.545  58.101  1.00  0.00     0.169 HD
HETATM   12  O   UNL     1       4.045  30.240  55.501  1.00  0.00    -0.273 OA
BRANCH  10  13
HETATM   13  C   UNL     1       4.585  30.571  58.403  1.00  0.00     0.034 A 
HETATM   14  C   UNL     1       3.439  31.183  58.917  1.00  0.00     0.030 A 
HETATM   15  C   UNL     1       3.530  32.371  59.656  1.00  0.00     0.020 A 
HETATM   16  C   UNL     1       4.774  32.964  59.896  1.00  0.00     0.039 A 
HETATM   17  C   UNL     1       5.925  32.350  59.389  1.00  0.00     0.020 A 
HETATM   18  C   UNL     1       5.830  31.164  58.650  1.00  0.00     0.030 A 
BRANCH  16  19
HETATM   19  C   UNL     1       4.928  34.224  60.674  1.00  0.00     0.293 C 
HETATM   20  O   UNL     1       4.214  35.201  60.514  1.00  0.00    -0.259 OA
BRANCH  19  21
HETATM   21  O   UNL     1       5.953  34.121  61.555  1.00  0.00    -0.318 OA
BRANCH  21  22
HETATM   22  C   UNL     1       5.656  34.491  62.910  1.00  0.00     0.174 C 
HETATM   23  C   UNL     1       4.825  33.418  63.585  1.00  0.00     0.034 C 
ENDBRANCH  21  22
ENDBRANCH  19  21
ENDBRANCH  16  19
ENDBRANCH  10  13
ENDBRANCH   8   9
ENDBRANCH   1   8
BRANCH   2  24
HETATM   24  C   UNL     1       4.025  28.243  52.632  1.00  0.00     0.168 C 
BRANCH  24  25
HETATM   25  C   UNL     1       4.397  28.682  51.244  1.00  0.00    -0.023 A 
HETATM   26  C   UNL     1       3.637  28.312  50.139  1.00  0.00     0.125 A 
HETATM   27  N   UNL     1       3.913  28.681  48.867  1.00  0.00    -0.273 NA
HETATM   28  C   UNL     1       4.990  29.476  48.686  1.00  0.00     0.116 A 
HETATM   29  C   UNL     1       5.806  29.910  49.714  1.00  0.00     0.020 A 
HETATM   30  C   UNL     1       5.504  29.503  51.010  1.00  0.00     0.012 A 
ENDBRANCH  24  25
ENDBRANCH   2  24
BRANCH   5  31
HETATM   31  C   UNL     1       6.902  24.440  53.993  1.00  0.00     0.047 A 
HETATM   32  C   UNL     1       7.500  23.884  52.849  1.00  0.00     0.031 A 
HETATM   33  C   UNL     1       8.092  22.612  52.863  1.00  0.00     0.009 A 
HETATM   34  C   UNL     1       8.108  21.850  54.028  1.00  0.00    -0.062 A 
HETATM   35  C   UNL     1       8.757  20.499  54.063  1.00  0.00     0.048 C 
HETATM   36  C   UNL     1       7.529  22.385  55.178  1.00  0.00     0.009 A 
HETATM   37  C   UNL     1       6.932  23.656  55.157  1.00  0.00     0.031 A 
ENDBRANCH   5  31
TORSDOF 9
ENDMDL
