MODEL 1
REMARK VINA RESULT:     -10.4      0.000      0.000
REMARK  4 active torsions:
REMARK  status: ('A' for Active; 'I' for Inactive)
REMARK    1  A    between atoms: C_2  and  C_3 
REMARK    2  A    between atoms: C_7  and  C_8 
REMARK       I    between atoms: C_8  and  N_9 
REMARK    3  A    between atoms: N_9  and  C_10 
REMARK    4  A    between atoms: C_10  and  C_11 
ROOT
HETATM    1  C   UNL     1       7.994  28.277  55.718  1.00  0.00     0.270 C 
HETATM    2  N   UNL     1       7.323  27.121  56.025  1.00  0.00    -0.351 N 
HETATM    3  O   UNL     1       8.256  28.604  54.566  1.00  0.00    -0.266 OA
HETATM    4  H   UNL     1       7.047  26.934  56.978  1.00  0.00     0.163 HD
ENDROOT
BRANCH   1   5
HETATM    5  C   UNL     1       8.380  29.086  56.841  1.00  0.00     0.120 A 
HETATM    6  N   UNL     1       9.613  29.675  56.897  1.00  0.00    -0.272 N 
HETATM    7  N   UNL     1       9.826  30.405  57.999  1.00  0.00    -0.174 NA
HETATM    8  H   UNL     1      10.348  29.608  56.199  1.00  0.00     0.189 HD
HETATM    9  C   UNL     1       8.693  30.290  58.710  1.00  0.00     0.089 A 
HETATM   10  C   UNL     1       7.760  29.466  58.016  1.00  0.00     0.071 A 
BRANCH   9  11
HETATM   11  C   UNL     1       8.532  30.964  60.004  1.00  0.00    -0.005 A 
HETATM   12  C   UNL     1       9.188  30.469  61.146  1.00  0.00     0.017 A 
HETATM   13  C   UNL     1       9.052  31.103  62.383  1.00  0.00     0.043 A 
HETATM   14  C   UNL     1       8.256  32.235  62.486  1.00  0.00     0.116 A 
HETATM   15  C   UNL     1       7.591  32.742  61.376  1.00  0.00     0.043 A 
HETATM   16  F   UNL     1       8.123  32.845  63.671  1.00  0.00    -0.206 F 
HETATM   17  C   UNL     1       7.728  32.109  60.137  1.00  0.00     0.017 A 
ENDBRANCH   9  11
ENDBRANCH   1   5
BRANCH   2  18
HETATM   18  C   UNL     1       6.840  26.227  54.998  1.00  0.00     0.161 C 
BRANCH  18  19
HETATM   19  C   UNL     1       7.476  24.864  55.107  1.00  0.00    -0.040 A 
HETATM   20  C   UNL     1       7.376  23.942  54.053  1.00  0.00     0.018 A 
HETATM   21  C   UNL     1       7.931  22.658  54.158  1.00  0.00    -0.024 A 
HETATM   22  C   UNL     1       8.554  22.283  55.352  1.00  0.00     0.075 A 
HETATM   23  C   UNL     1       7.817  21.696  53.011  1.00  0.00     0.043 C 
HETATM   24  O   UNL     1       9.108  21.047  55.560  1.00  0.00    -0.351 OA
HETATM   25  C   UNL     1       8.664  23.190  56.404  1.00  0.00     0.038 A 
HETATM   26  C   UNL     1       8.678  20.043  54.636  1.00  0.00     0.176 C 
HETATM   27  C   UNL     1       8.769  20.523  53.198  1.00  0.00     0.031 C 
HETATM   28  C   UNL     1       8.125  24.473  56.286  1.00  0.00     0.011 A 
ENDBRANCH  18  19
ENDBRANCH   2  18
TORSDOF 4
ENDMDL
MODEL 2
REMARK VINA RESULT:     -10.1      1.031      1.698
REMARK  4 active torsions:
REMARK  status: ('A' for Active; 'I' for Inactive)
REMARK    1  A    between atoms: C_2  and  C_3 
REMARK    2  A    between atoms: C_7  and  C_8 
REMARK       I    between atoms: C_8  and  N_9 
REMARK    3  A    between atoms: N_9  and  C_10 
REMARK    4  A    between atoms: C_10  and  C_11 
ROOT
HETATM    1  C   UNL     1       6.953  28.424  55.436  1.00  0.00     0.270 C 
HETATM    2  N   UNL     1       7.555  27.257  55.038  1.00  0.00    -0.351 N 
HETATM    3  O   UNL     1       5.987  28.904  54.855  1.00  0.00    -0.266 OA
HETATM    4  H   UNL     1       8.288  26.849  55.598  1.00  0.00     0.163 HD
ENDROOT
BRANCH   1   5
HETATM    5  C   UNL     1       7.537  29.060  56.586  1.00  0.00     0.120 A 
HETATM    6  N   UNL     1       8.893  29.161  56.724  1.00  0.00    -0.272 N 
HETATM    7  N   UNL     1       9.289  29.787  57.840  1.00  0.00    -0.174 NA
HETATM    8  H   UNL     1       9.596  28.818  56.075  1.00  0.00     0.189 HD
HETATM    9  C   UNL     1       8.150  30.104  58.476  1.00  0.00     0.089 A 
HETATM   10  C   UNL     1       7.026  29.662  57.719  1.00  0.00     0.071 A 
BRANCH   9  11
HETATM   11  C   UNL     1       8.165  30.817  59.760  1.00  0.00    -0.005 A 
HETATM   12  C   UNL     1       9.188  30.571  60.693  1.00  0.00     0.017 A 
HETATM   13  C   UNL     1       9.223  31.246  61.915  1.00  0.00     0.043 A 
HETATM   14  C   UNL     1       8.230  32.169  62.212  1.00  0.00     0.116 A 
HETATM   15  C   UNL     1       7.204  32.427  61.312  1.00  0.00     0.043 A 
HETATM   16  F   UNL     1       8.259  32.818  63.384  1.00  0.00    -0.206 F 
HETATM   17  C   UNL     1       7.170  31.753  60.087  1.00  0.00     0.017 A 
ENDBRANCH   9  11
ENDBRANCH   1   5
BRANCH   2  18
HETATM   18  C   UNL     1       7.055  26.489  53.921  1.00  0.00     0.161 C 
BRANCH  18  19
HETATM   19  C   UNL     1       7.424  25.032  54.042  1.00  0.00    -0.040 A 
HETATM   20  C   UNL     1       7.691  24.464  55.298  1.00  0.00     0.018 A 
HETATM   21  C   UNL     1       8.072  23.120  55.420  1.00  0.00    -0.024 A 
HETATM   22  C   UNL     1       8.229  22.351  54.263  1.00  0.00     0.075 A 
HETATM   23  C   UNL     1       8.343  22.537  56.776  1.00  0.00     0.043 C 
HETATM   24  O   UNL     1       8.617  21.037  54.274  1.00  0.00    -0.351 OA
HETATM   25  C   UNL     1       7.963  22.901  53.010  1.00  0.00     0.038 A 
HETATM   26  C   UNL     1       9.219  20.609  55.500  1.00  0.00     0.176 C 
HETATM   27  C   UNL     1       8.393  21.017  56.707  1.00  0.00     0.031 C 
HETATM   28  C   UNL     1       7.566  24.236  52.898  1.00  0.00     0.011 A 
ENDBRANCH  18  19
ENDBRANCH   2  18
TORSDOF 4
ENDMDL
MODEL 3
REMARK VINA RESULT:      -9.7      5.822      8.803
REMARK  4 active torsions:
REMARK  status: ('A' for Active; 'I' for Inactive)
REMARK    1  A    between atoms: C_2  and  C_3 
REMARK    2  A    between atoms: C_7  and  C_8 
REMARK       I    between atoms: C_8  and  N_9 
REMARK    3  A    between atoms: N_9  and  C_10 
REMARK    4  A    between atoms: C_10  and  C_11 
ROOT
HETATM    1  C   UNL     1       6.848  27.677  53.550  1.00  0.00     0.270 C 
HETATM    2  N   UNL     1       6.362  26.785  54.472  1.00  0.00    -0.351 N 
HETATM    3  O   UNL     1       7.912  28.268  53.697  1.00  0.00    -0.266 OA
HETATM    4  H   UNL     1       5.529  26.252  54.269  1.00  0.00     0.163 HD
ENDROOT
BRANCH   1   5
HETATM    5  C   UNL     1       6.021  27.883  52.392  1.00  0.00     0.120 A 
HETATM    6  N   UNL     1       5.824  29.135  51.879  1.00  0.00    -0.272 N 
HETATM    7  N   UNL     1       5.039  29.169  50.794  1.00  0.00    -0.174 NA
HETATM    8  H   UNL     1       6.210  30.004  52.236  1.00  0.00     0.189 HD
HETATM    9  C   UNL     1       4.690  27.890  50.584  1.00  0.00     0.089 A 
HETATM   10  C   UNL     1       5.287  27.051  51.570  1.00  0.00     0.071 A 
BRANCH   9  11
HETATM   11  C   UNL     1       3.821  27.509  49.464  1.00  0.00    -0.005 A 
HETATM   12  C   UNL     1       2.648  28.239  49.198  1.00  0.00     0.017 A 
HETATM   13  C   UNL     1       1.815  27.896  48.131  1.00  0.00     0.043 A 
HETATM   14  C   UNL     1       2.149  26.817  47.325  1.00  0.00     0.116 A 
HETATM   15  C   UNL     1       3.298  26.075  47.568  1.00  0.00     0.043 A 
HETATM   16  F   UNL     1       1.351  26.484  46.301  1.00  0.00    -0.206 F 
HETATM   17  C   UNL     1       4.134  26.419  48.635  1.00  0.00     0.017 A 
ENDBRANCH   9  11
ENDBRANCH   1   5
BRANCH   2  18
HETATM   18  C   UNL     1       7.101  26.450  55.667  1.00  0.00     0.161 C 
BRANCH  18  19
HETATM   19  C   UNL     1       7.604  25.029  55.626  1.00  0.00    -0.040 A 
HETATM   20  C   UNL     1       7.495  24.266  54.453  1.00  0.00     0.018 A 
HETATM   21  C   UNL     1       7.924  22.931  54.414  1.00  0.00    -0.024 A 
HETATM   22  C   UNL     1       8.427  22.345  55.580  1.00  0.00     0.075 A 
HETATM   23  C   UNL     1       7.805  22.141  53.143  1.00  0.00     0.043 C 
HETATM   24  O   UNL     1       8.852  21.044  55.650  1.00  0.00    -0.351 OA
HETATM   25  C   UNL     1       8.544  23.093  56.750  1.00  0.00     0.038 A 
HETATM   26  C   UNL     1       8.400  20.215  54.576  1.00  0.00     0.176 C 
HETATM   27  C   UNL     1       8.633  20.867  53.223  1.00  0.00     0.031 C 
HETATM   28  C   UNL     1       8.131  24.427  56.776  1.00  0.00     0.011 A 
ENDBRANCH  18  19
ENDBRANCH   2  18
TORSDOF 4
ENDMDL
MODEL 4
REMARK VINA RESULT:      -9.7      3.152      4.803
REMARK  4 active torsions:
REMARK  status: ('A' for Active; 'I' for Inactive)
REMARK    1  A    between atoms: C_2  and  C_3 
REMARK    2  A    between atoms: C_7  and  C_8 
REMARK       I    between atoms: C_8  and  N_9 
REMARK    3  A    between atoms: N_9  and  C_10 
REMARK    4  A    between atoms: C_10  and  C_11 
ROOT
HETATM    1  C   UNL     1       9.346  31.276  59.088  1.00  0.00     0.270 C 
HETATM    2  N   UNL     1       9.050  30.092  58.460  1.00  0.00    -0.351 N 
HETATM    3  O   UNL     1      10.043  32.143  58.574  1.00  0.00    -0.266 OA
HETATM    4  H   UNL     1       8.398  29.446  58.879  1.00  0.00     0.163 HD
ENDROOT
BRANCH   1   5
HETATM    5  C   UNL     1       8.787  31.435  60.403  1.00  0.00     0.120 A 
HETATM    6  N   UNL     1       8.961  30.480  61.365  1.00  0.00    -0.272 N 
HETATM    7  N   UNL     1       8.392  30.771  62.541  1.00  0.00    -0.174 NA
HETATM    8  H   UNL     1       9.468  29.605  61.265  1.00  0.00     0.189 HD
HETATM    9  C   UNL     1       7.805  31.963  62.351  1.00  0.00     0.089 A 
HETATM   10  C   UNL     1       8.030  32.413  61.018  1.00  0.00     0.071 A 
BRANCH   9  11
HETATM   11  C   UNL     1       7.068  32.633  63.431  1.00  0.00    -0.005 A 
HETATM   12  C   UNL     1       5.662  32.665  63.412  1.00  0.00     0.017 A 
HETATM   13  C   UNL     1       4.945  33.290  64.436  1.00  0.00     0.043 A 
HETATM   14  C   UNL     1       5.632  33.889  65.482  1.00  0.00     0.116 A 
HETATM   15  C   UNL     1       7.021  33.877  65.523  1.00  0.00     0.043 A 
HETATM   16  F   UNL     1       4.948  34.490  66.465  1.00  0.00    -0.206 F 
HETATM   17  C   UNL     1       7.739  33.250  64.500  1.00  0.00     0.017 A 
ENDBRANCH   9  11
ENDBRANCH   1   5
BRANCH   2  18
HETATM   18  C   UNL     1       9.512  29.808  57.121  1.00  0.00     0.161 C 
BRANCH  18  19
HETATM   19  C   UNL     1       8.749  28.663  56.504  1.00  0.00    -0.040 A 
HETATM   20  C   UNL     1       8.183  28.789  55.225  1.00  0.00     0.018 A 
HETATM   21  C   UNL     1       7.439  27.744  54.657  1.00  0.00    -0.024 A 
HETATM   22  C   UNL     1       7.225  26.580  55.400  1.00  0.00     0.075 A 
HETATM   23  C   UNL     1       6.853  27.902  53.284  1.00  0.00     0.043 C 
HETATM   24  O   UNL     1       6.497  25.513  54.942  1.00  0.00    -0.351 OA
HETATM   25  C   UNL     1       7.785  26.441  56.668  1.00  0.00     0.038 A 
HETATM   26  C   UNL     1       5.653  25.809  53.825  1.00  0.00     0.176 C 
HETATM   27  C   UNL     1       6.401  26.556  52.735  1.00  0.00     0.031 C 
HETATM   28  C   UNL     1       8.541  27.478  57.221  1.00  0.00     0.011 A 
ENDBRANCH  18  19
ENDBRANCH   2  18
TORSDOF 4
ENDMDL
MODEL 5
REMARK VINA RESULT:      -9.6      3.934     10.180
REMARK  4 active torsions:
REMARK  status: ('A' for Active; 'I' for Inactive)
REMARK    1  A    between atoms: C_2  and  C_3 
REMARK    2  A    between atoms: C_7  and  C_8 
REMARK       I    between atoms: C_8  and  N_9 
REMARK    3  A    between atoms: N_9  and  C_10 
REMARK    4  A    between atoms: C_10  and  C_11 
ROOT
HETATM    1  C   UNL     1       7.142  28.750  56.532  1.00  0.00     0.270 C 
HETATM    2  N   UNL     1       7.749  29.335  57.615  1.00  0.00    -0.351 N 
HETATM    3  O   UNL     1       6.411  29.369  55.767  1.00  0.00    -0.266 OA
HETATM    4  H   UNL     1       8.414  28.814  58.165  1.00  0.00     0.163 HD
ENDROOT
BRANCH   1   5
HETATM    5  C   UNL     1       7.414  27.349  56.353  1.00  0.00     0.120 A 
HETATM    6  N   UNL     1       7.922  26.593  57.372  1.00  0.00    -0.272 N 
HETATM    7  N   UNL     1       8.114  25.305  57.059  1.00  0.00    -0.174 NA
HETATM    8  H   UNL     1       8.155  26.914  58.307  1.00  0.00     0.189 HD
HETATM    9  C   UNL     1       7.727  25.202  55.779  1.00  0.00     0.089 A 
HETATM   10  C   UNL     1       7.282  26.468  55.298  1.00  0.00     0.071 A 
BRANCH   9  11
HETATM   11  C   UNL     1       7.783  23.921  55.064  1.00  0.00    -0.005 A 
HETATM   12  C   UNL     1       7.793  22.711  55.781  1.00  0.00     0.017 A 
HETATM   13  C   UNL     1       7.837  21.483  55.116  1.00  0.00     0.043 A 
HETATM   14  C   UNL     1       7.875  21.459  53.729  1.00  0.00     0.116 A 
HETATM   15  C   UNL     1       7.871  22.639  52.996  1.00  0.00     0.043 A 
HETATM   16  F   UNL     1       7.917  20.284  53.089  1.00  0.00    -0.206 F 
HETATM   17  C   UNL     1       7.825  23.869  53.660  1.00  0.00     0.017 A 
ENDBRANCH   9  11
ENDBRANCH   1   5
BRANCH   2  18
HETATM   18  C   UNL     1       7.597  30.744  57.900  1.00  0.00     0.161 C 
BRANCH  18  19
HETATM   19  C   UNL     1       7.740  31.028  59.374  1.00  0.00    -0.040 A 
HETATM   20  C   UNL     1       6.889  31.946  60.010  1.00  0.00     0.018 A 
HETATM   21  C   UNL     1       7.036  32.247  61.372  1.00  0.00    -0.024 A 
HETATM   22  C   UNL     1       8.078  31.652  62.090  1.00  0.00     0.075 A 
HETATM   23  C   UNL     1       6.107  33.225  62.029  1.00  0.00     0.043 C 
HETATM   24  O   UNL     1       8.318  31.895  63.417  1.00  0.00    -0.351 OA
HETATM   25  C   UNL     1       8.926  30.736  61.472  1.00  0.00     0.038 A 
HETATM   26  C   UNL     1       7.686  33.074  63.926  1.00  0.00     0.176 C 
HETATM   27  C   UNL     1       6.217  33.136  63.544  1.00  0.00     0.031 C 
HETATM   28  C   UNL     1       8.762  30.427  60.119  1.00  0.00     0.011 A 
ENDBRANCH  18  19
ENDBRANCH   2  18
TORSDOF 4
ENDMDL
MODEL 6
REMARK VINA RESULT:      -9.6      4.098      9.871
REMARK  4 active torsions:
REMARK  status: ('A' for Active; 'I' for Inactive)
REMARK    1  A    between atoms: C_2  and  C_3 
REMARK    2  A    between atoms: C_7  and  C_8 
REMARK       I    between atoms: C_8  and  N_9 
REMARK    3  A    between atoms: N_9  and  C_10 
REMARK    4  A    between atoms: C_10  and  C_11 
ROOT
HETATM    1  C   UNL     1       5.422  28.009  56.242  1.00  0.00     0.270 C 
HETATM    2  N   UNL     1       6.311  29.019  56.510  1.00  0.00    -0.351 N 
HETATM    3  O   UNL     1       4.217  28.202  56.122  1.00  0.00    -0.266 OA
HETATM    4  H   UNL     1       7.303  28.833  56.510  1.00  0.00     0.163 HD
ENDROOT
BRANCH   1   5
HETATM    5  C   UNL     1       5.995  26.697  56.117  1.00  0.00     0.120 A 
HETATM    6  N   UNL     1       6.425  26.007  57.216  1.00  0.00    -0.272 N 
HETATM    7  N   UNL     1       6.926  24.795  56.944  1.00  0.00    -0.174 NA
HETATM    8  H   UNL     1       6.394  26.324  58.181  1.00  0.00     0.189 HD
HETATM    9  C   UNL     1       6.836  24.678  55.610  1.00  0.00     0.089 A 
HETATM   10  C   UNL     1       6.257  25.856  55.053  1.00  0.00     0.071 A 
BRANCH   9  11
HETATM   11  C   UNL     1       7.288  23.466  54.917  1.00  0.00    -0.005 A 
HETATM   12  C   UNL     1       7.531  22.285  55.642  1.00  0.00     0.017 A 
HETATM   13  C   UNL     1       7.953  21.120  54.997  1.00  0.00     0.043 A 
HETATM   14  C   UNL     1       8.137  21.131  53.622  1.00  0.00     0.116 A 
HETATM   15  C   UNL     1       7.910  22.284  52.881  1.00  0.00     0.043 A 
HETATM   16  F   UNL     1       8.542  20.016  53.000  1.00  0.00    -0.206 F 
HETATM   17  C   UNL     1       7.486  23.450  53.526  1.00  0.00     0.017 A 
ENDBRANCH   9  11
ENDBRANCH   1   5
BRANCH   2  18
HETATM   18  C   UNL     1       5.885  30.395  56.625  1.00  0.00     0.161 C 
BRANCH  18  19
HETATM   19  C   UNL     1       6.313  30.998  57.940  1.00  0.00    -0.040 A 
HETATM   20  C   UNL     1       7.507  30.593  58.556  1.00  0.00     0.018 A 
HETATM   21  C   UNL     1       7.896  31.120  59.797  1.00  0.00    -0.024 A 
HETATM   22  C   UNL     1       7.054  32.028  60.444  1.00  0.00     0.075 A 
HETATM   23  C   UNL     1       9.184  30.676  60.429  1.00  0.00     0.043 C 
HETATM   24  O   UNL     1       7.334  32.583  61.665  1.00  0.00    -0.351 OA
HETATM   25  C   UNL     1       5.867  32.441  59.841  1.00  0.00     0.038 A 
HETATM   26  C   UNL     1       8.342  31.893  62.410  1.00  0.00     0.176 C 
HETATM   27  C   UNL     1       9.573  31.610  61.566  1.00  0.00     0.031 C 
HETATM   28  C   UNL     1       5.495  31.927  58.596  1.00  0.00     0.011 A 
ENDBRANCH  18  19
ENDBRANCH   2  18
TORSDOF 4
ENDMDL
MODEL 7
REMARK VINA RESULT:      -9.6      7.487     10.697
REMARK  4 active torsions:
REMARK  status: ('A' for Active; 'I' for Inactive)
REMARK    1  A    between atoms: C_2  and  C_3 
REMARK    2  A    between atoms: C_7  and  C_8 
REMARK       I    between atoms: C_8  and  N_9 
REMARK    3  A    between atoms: N_9  and  C_10 
REMARK    4  A    between atoms: C_10  and  C_11 
ROOT
HETATM    1  C   UNL     1       5.487  27.418  50.844  1.00  0.00     0.270 C 
HETATM    2  N   UNL     1       5.424  27.104  49.510  1.00  0.00    -0.351 N 
HETATM    3  O   UNL     1       5.363  28.564  51.262  1.00  0.00    -0.266 OA
HETATM    4  H   UNL     1       5.439  26.139  49.216  1.00  0.00     0.163 HD
ENDROOT
BRANCH   1   5
HETATM    5  C   UNL     1       5.718  26.310  51.731  1.00  0.00     0.120 A 
HETATM    6  N   UNL     1       4.704  25.784  52.481  1.00  0.00    -0.272 N 
HETATM    7  N   UNL     1       5.067  24.750  53.251  1.00  0.00    -0.174 NA
HETATM    8  H   UNL     1       3.738  26.098  52.500  1.00  0.00     0.189 HD
HETATM    9  C   UNL     1       6.378  24.588  53.011  1.00  0.00     0.089 A 
HETATM   10  C   UNL     1       6.825  25.553  52.061  1.00  0.00     0.071 A 
BRANCH   9  11
HETATM   11  C   UNL     1       7.152  23.532  53.675  1.00  0.00    -0.005 A 
HETATM   12  C   UNL     1       7.838  22.571  52.910  1.00  0.00     0.017 A 
HETATM   13  C   UNL     1       8.587  21.565  53.526  1.00  0.00     0.043 A 
HETATM   14  C   UNL     1       8.650  21.513  54.911  1.00  0.00     0.116 A 
HETATM   15  C   UNL     1       7.977  22.445  55.691  1.00  0.00     0.043 A 
HETATM   16  F   UNL     1       9.366  20.549  55.505  1.00  0.00    -0.206 F 
HETATM   17  C   UNL     1       7.229  23.454  55.076  1.00  0.00     0.017 A 
ENDBRANCH   9  11
ENDBRANCH   1   5
BRANCH   2  18
HETATM   18  C   UNL     1       5.161  28.109  48.506  1.00  0.00     0.161 C 
BRANCH  18  19
HETATM   19  C   UNL     1       3.838  27.875  47.822  1.00  0.00    -0.040 A 
HETATM   20  C   UNL     1       2.979  28.950  47.541  1.00  0.00     0.018 A 
HETATM   21  C   UNL     1       1.729  28.740  46.939  1.00  0.00    -0.024 A 
HETATM   22  C   UNL     1       1.321  27.432  46.660  1.00  0.00     0.075 A 
HETATM   23  C   UNL     1       0.835  29.908  46.641  1.00  0.00     0.043 C 
HETATM   24  O   UNL     1       0.112  27.122  46.093  1.00  0.00    -0.351 OA
HETATM   25  C   UNL     1       2.165  26.358  46.930  1.00  0.00     0.038 A 
HETATM   26  C   UNL     1      -0.858  28.172  46.157  1.00  0.00     0.176 C 
HETATM   27  C   UNL     1      -0.284  29.500  45.693  1.00  0.00     0.031 C 
HETATM   28  C   UNL     1       3.416  26.576  47.512  1.00  0.00     0.011 A 
ENDBRANCH  18  19
ENDBRANCH   2  18
TORSDOF 4
ENDMDL
MODEL 8
REMARK VINA RESULT:      -9.5      3.507      5.535
REMARK  4 active torsions:
REMARK  status: ('A' for Active; 'I' for Inactive)
REMARK    1  A    between atoms: C_2  and  C_3 
REMARK    2  A    between atoms: C_7  and  C_8 
REMARK       I    between atoms: C_8  and  N_9 
REMARK    3  A    between atoms: N_9  and  C_10 
REMARK    4  A    between atoms: C_10  and  C_11 
ROOT
HETATM    1  C   UNL     1       7.983  31.610  60.019  1.00  0.00     0.270 C 
HETATM    2  N   UNL     1       7.815  30.305  59.630  1.00  0.00    -0.351 N 
HETATM    3  O   UNL     1       8.742  32.381  59.443  1.00  0.00    -0.266 OA
HETATM    4  H   UNL     1       7.114  29.731  60.073  1.00  0.00     0.163 HD
ENDROOT
BRANCH   1   5
HETATM    5  C   UNL     1       7.211  32.019  61.161  1.00  0.00     0.120 A 
HETATM    6  N   UNL     1       5.854  31.859  61.189  1.00  0.00    -0.272 N 
HETATM    7  N   UNL     1       5.273  32.277  62.321  1.00  0.00    -0.174 NA
HETATM    8  H   UNL     1       5.275  31.462  60.455  1.00  0.00     0.189 HD
HETATM    9  C   UNL     1       6.283  32.745  63.071  1.00  0.00     0.089 A 
HETATM   10  C   UNL     1       7.518  32.602  62.374  1.00  0.00     0.071 A 
BRANCH   9  11
HETATM   11  C   UNL     1       6.047  33.297  64.411  1.00  0.00    -0.005 A 
HETATM   12  C   UNL     1       4.734  33.498  64.872  1.00  0.00     0.017 A 
HETATM   13  C   UNL     1       4.492  34.014  66.148  1.00  0.00     0.043 A 
HETATM   14  C   UNL     1       5.564  34.335  66.968  1.00  0.00     0.116 A 
HETATM   15  C   UNL     1       6.871  34.151  66.537  1.00  0.00     0.043 A 
HETATM   16  F   UNL     1       5.335  34.830  68.192  1.00  0.00    -0.206 F 
HETATM   17  C   UNL     1       7.115  33.633  65.261  1.00  0.00     0.017 A 
ENDBRANCH   9  11
ENDBRANCH   1   5
BRANCH   2  18
HETATM   18  C   UNL     1       8.498  29.763  58.477  1.00  0.00     0.161 C 
BRANCH  18  19
HETATM   19  C   UNL     1       7.666  28.714  57.784  1.00  0.00    -0.040 A 
HETATM   20  C   UNL     1       8.224  27.474  57.437  1.00  0.00     0.018 A 
HETATM   21  C   UNL     1       7.470  26.504  56.759  1.00  0.00    -0.024 A 
HETATM   22  C   UNL     1       6.156  26.803  56.387  1.00  0.00     0.075 A 
HETATM   23  C   UNL     1       8.090  25.183  56.408  1.00  0.00     0.043 C 
HETATM   24  O   UNL     1       5.346  25.932  55.706  1.00  0.00    -0.351 OA
HETATM   25  C   UNL     1       5.589  28.028  56.730  1.00  0.00     0.038 A 
HETATM   26  C   UNL     1       6.040  24.858  55.065  1.00  0.00     0.176 C 
HETATM   27  C   UNL     1       7.020  24.178  56.005  1.00  0.00     0.031 C 
HETATM   28  C   UNL     1       6.339  28.982  57.421  1.00  0.00     0.011 A 
ENDBRANCH  18  19
ENDBRANCH   2  18
TORSDOF 4
ENDMDL
MODEL 9
REMARK VINA RESULT:      -9.4      2.053      2.900
REMARK  4 active torsions:
REMARK  status: ('A' for Active; 'I' for Inactive)
REMARK    1  A    between atoms: C_2  and  C_3 
REMARK    2  A    between atoms: C_7  and  C_8 
REMARK       I    between atoms: C_8  and  N_9 
REMARK    3  A    between atoms: N_9  and  C_10 
REMARK    4  A    between atoms: C_10  and  C_11 
ROOT
HETATM    1  C   UNL     1       6.059  26.970  54.352  1.00  0.00     0.270 C 
HETATM    2  N   UNL     1       7.303  26.604  53.904  1.00  0.00    -0.351 N 
HETATM    3  O   UNL     1       5.023  26.529  53.867  1.00  0.00    -0.266 OA
HETATM    4  H   UNL     1       8.129  26.918  54.390  1.00  0.00     0.163 HD
ENDROOT
BRANCH   1   5
HETATM    5  C   UNL     1       6.045  27.917  55.434  1.00  0.00     0.120 A 
HETATM    6  N   UNL     1       4.871  28.439  55.900  1.00  0.00    -0.272 N 
HETATM    7  N   UNL     1       5.016  29.301  56.915  1.00  0.00    -0.174 NA
HETATM    8  H   UNL     1       3.938  28.235  55.555  1.00  0.00     0.189 HD
HETATM    9  C   UNL     1       6.340  29.362  57.126  1.00  0.00     0.089 A 
HETATM   10  C   UNL     1       7.022  28.507  56.212  1.00  0.00     0.071 A 
BRANCH   9  11
HETATM   11  C   UNL     1       6.907  30.212  58.180  1.00  0.00    -0.005 A 
HETATM   12  C   UNL     1       8.062  29.805  58.872  1.00  0.00     0.017 A 
HETATM   13  C   UNL     1       8.619  30.606  59.872  1.00  0.00     0.043 A 
HETATM   14  C   UNL     1       8.022  31.818  60.187  1.00  0.00     0.116 A 
HETATM   15  C   UNL     1       6.877  32.242  59.524  1.00  0.00     0.043 A 
HETATM   16  F   UNL     1       8.553  32.588  61.146  1.00  0.00    -0.206 F 
HETATM   17  C   UNL     1       6.319  31.442  58.522  1.00  0.00     0.017 A 
ENDBRANCH   9  11
ENDBRANCH   1   5
BRANCH   2  18
HETATM   18  C   UNL     1       7.473  25.632  52.847  1.00  0.00     0.161 C 
BRANCH  18  19
HETATM   19  C   UNL     1       7.683  24.245  53.400  1.00  0.00    -0.040 A 
HETATM   20  C   UNL     1       7.952  24.053  54.765  1.00  0.00     0.018 A 
HETATM   21  C   UNL     1       8.186  22.771  55.283  1.00  0.00    -0.024 A 
HETATM   22  C   UNL     1       8.194  21.677  54.413  1.00  0.00     0.075 A 
HETATM   23  C   UNL     1       8.462  22.593  56.748  1.00  0.00     0.043 C 
HETATM   24  O   UNL     1       8.433  20.390  54.817  1.00  0.00    -0.351 OA
HETATM   25  C   UNL     1       7.925  21.854  53.057  1.00  0.00     0.038 A 
HETATM   26  C   UNL     1       9.047  20.279  56.104  1.00  0.00     0.176 C 
HETATM   27  C   UNL     1       8.338  21.129  57.144  1.00  0.00     0.031 C 
HETATM   28  C   UNL     1       7.674  23.131  52.551  1.00  0.00     0.011 A 
ENDBRANCH  18  19
ENDBRANCH   2  18
TORSDOF 4
ENDMDL
MODEL 10
REMARK VINA RESULT:      -9.2      6.433      9.639
REMARK  4 active torsions:
REMARK  status: ('A' for Active; 'I' for Inactive)
REMARK    1  A    between atoms: C_2  and  C_3 
REMARK    2  A    between atoms: C_7  and  C_8 
REMARK       I    between atoms: C_8  and  N_9 
REMARK    3  A    between atoms: N_9  and  C_10 
REMARK    4  A    between atoms: C_10  and  C_11 
ROOT
HETATM    1  C   UNL     1       5.185  27.563  53.342  1.00  0.00     0.270 C 
HETATM    2  N   UNL     1       5.679  28.147  52.202  1.00  0.00    -0.351 N 
HETATM    3  O   UNL     1       4.176  27.967  53.909  1.00  0.00    -0.266 OA
HETATM    4  H   UNL     1       6.458  27.728  51.717  1.00  0.00     0.163 HD
ENDROOT
BRANCH   1   5
HETATM    5  C   UNL     1       5.936  26.443  53.839  1.00  0.00     0.120 A 
HETATM    6  N   UNL     1       6.677  26.541  54.983  1.00  0.00    -0.272 N 
HETATM    7  N   UNL     1       7.314  25.414  55.327  1.00  0.00    -0.174 NA
HETATM    8  H   UNL     1       6.778  27.364  55.571  1.00  0.00     0.189 HD
HETATM    9  C   UNL     1       6.992  24.533  54.367  1.00  0.00     0.089 A 
HETATM   10  C   UNL     1       6.129  25.144  53.411  1.00  0.00     0.071 A 
BRANCH   9  11
HETATM   11  C   UNL     1       7.501  23.156  54.391  1.00  0.00    -0.005 A 
HETATM   12  C   UNL     1       7.633  22.473  55.614  1.00  0.00     0.017 A 
HETATM   13  C   UNL     1       8.107  21.159  55.654  1.00  0.00     0.043 A 
HETATM   14  C   UNL     1       8.455  20.523  54.471  1.00  0.00     0.116 A 
HETATM   15  C   UNL     1       8.340  21.176  53.250  1.00  0.00     0.043 A 
HETATM   16  F   UNL     1       8.911  19.264  54.506  1.00  0.00    -0.206 F 
HETATM   17  C   UNL     1       7.864  22.491  53.209  1.00  0.00     0.017 A 
ENDBRANCH   9  11
ENDBRANCH   1   5
BRANCH   2  18
HETATM   18  C   UNL     1       5.009  29.258  51.567  1.00  0.00     0.161 C 
BRANCH  18  19
HETATM   19  C   UNL     1       3.921  28.789  50.636  1.00  0.00    -0.040 A 
HETATM   20  C   UNL     1       4.213  27.911  49.581  1.00  0.00     0.018 A 
HETATM   21  C   UNL     1       3.215  27.497  48.685  1.00  0.00    -0.024 A 
HETATM   22  C   UNL     1       1.921  28.008  48.826  1.00  0.00     0.075 A 
HETATM   23  C   UNL     1       3.554  26.550  47.571  1.00  0.00     0.043 C 
HETATM   24  O   UNL     1       0.884  27.682  47.992  1.00  0.00    -0.351 OA
HETATM   25  C   UNL     1       1.618  28.877  49.872  1.00  0.00     0.038 A 
HETATM   26  C   UNL     1       1.286  27.096  46.750  1.00  0.00     0.176 C 
HETATM   27  C   UNL     1       2.287  25.972  46.954  1.00  0.00     0.031 C 
HETATM   28  C   UNL     1       2.612  29.270  50.771  1.00  0.00     0.011 A 
ENDBRANCH  18  19
ENDBRANCH   2  18
TORSDOF 4
ENDMDL
