MODEL 1
REMARK VINA RESULT:      -8.6      0.000      0.000
REMARK  4 active torsions:
REMARK  status: ('A' for Active; 'I' for Inactive)
REMARK    1  A    between atoms: O_2  and  C_3 
REMARK    2  A    between atoms: C_4  and  C_5 
REMARK    3  A    between atoms: C_9  and  N_10 
REMARK    4  A    between atoms: C_13  and  C_14 
ROOT
HETATM    1  C   UNL     1       6.898  28.099  53.677  1.00  0.00     0.167 C 
HETATM    2  N   UNL     1       6.138  28.079  52.434  1.00  0.00    -0.074 N 
HETATM    3  C   UNL     1       5.648  26.947  51.842  1.00  0.00     0.736 A 
HETATM    4  N   UNL     1       4.982  27.285  50.770  1.00  0.00     0.131 NA
HETATM    5  C   UNL     1       5.138  28.640  50.725  1.00  0.00     0.753 A 
HETATM    6  N   UNL     1       5.824  29.180  51.729  1.00  0.00     0.037 NA
HETATM    7  N   UNL     1       5.876  25.726  52.367  1.00  0.00    -0.214 N 
HETATM    8  C   UNL     1       6.393  25.606  53.726  1.00  0.00     0.135 C 
HETATM    9  C   UNL     1       7.452  26.694  53.987  1.00  0.00     0.063 C 
HETATM   10  H   UNL     1       5.297  24.960  52.033  1.00  0.00     0.178 HD
ENDROOT
BRANCH   1  11
HETATM   11  C   UNL     1       6.093  28.667  54.842  1.00  0.00     0.001 A 
HETATM   12  C   UNL     1       6.756  29.314  55.900  1.00  0.00     0.076 A 
HETATM   13  C   UNL     1       6.052  29.784  57.014  1.00  0.00     0.037 A 
HETATM   14  C   UNL     1       4.667  29.648  57.072  1.00  0.00     0.003 A 
HETATM   15  C   UNL     1       3.988  29.034  56.023  1.00  0.00     0.001 A 
HETATM   16  C   UNL     1       4.693  28.545  54.921  1.00  0.00     0.012 A 
BRANCH  12  17
HETATM   17  O   UNL     1       8.122  29.417  55.852  1.00  0.00    -0.355 OA
HETATM   18  C   UNL     1       8.732  28.780  56.979  1.00  0.00     0.210 C 
ENDBRANCH  12  17
ENDBRANCH   1  11
BRANCH   8  19
HETATM   19  C   UNL     1       6.972  24.218  53.948  1.00  0.00    -0.035 A 
HETATM   20  C   UNL     1       7.447  23.435  52.880  1.00  0.00     0.010 A 
HETATM   21  C   UNL     1       7.979  22.164  53.109  1.00  0.00     0.019 A 
HETATM   22  C   UNL     1       8.053  21.669  54.409  1.00  0.00     0.011 A 
HETATM   23 BR   UNL     1       8.771  19.948  54.718  1.00  0.00    -0.051 Br
HETATM   24  C   UNL     1       7.604  22.434  55.481  1.00  0.00     0.019 A 
HETATM   25  C   UNL     1       7.067  23.705  55.252  1.00  0.00     0.010 A 
ENDBRANCH   8  19
BRANCH   5  26
HETATM   26  N   UNL     1       4.576  29.313  49.726  1.00  0.00    -0.229 N 
HETATM   27  H   UNL     1       5.128  30.045  49.302  1.00  0.00     0.174 HD
HETATM   28  H   UNL     1       4.001  28.783  49.086  1.00  0.00     0.174 HD
ENDBRANCH   5  26
TORSDOF 4
ENDMDL
MODEL 2
REMARK VINA RESULT:      -8.4      3.136      5.980
REMARK  4 active torsions:
REMARK  status: ('A' for Active; 'I' for Inactive)
REMARK    1  A    between atoms: O_2  and  C_3 
REMARK    2  A    between atoms: C_4  and  C_5 
REMARK    3  A    between atoms: C_9  and  N_10 
REMARK    4  A    between atoms: C_13  and  C_14 
ROOT
HETATM    1  C   UNL     1       6.039  25.858  54.852  1.00  0.00     0.167 C 
HETATM    2  N   UNL     1       5.689  26.655  53.683  1.00  0.00    -0.074 N 
HETATM    3  C   UNL     1       6.176  27.908  53.424  1.00  0.00     0.736 A 
HETATM    4  N   UNL     1       5.695  28.319  52.280  1.00  0.00     0.131 NA
HETATM    5  C   UNL     1       4.876  27.294  51.904  1.00  0.00     0.753 A 
HETATM    6  N   UNL     1       4.847  26.243  52.719  1.00  0.00     0.037 NA
HETATM    7  N   UNL     1       7.012  28.526  54.281  1.00  0.00    -0.214 N 
HETATM    8  C   UNL     1       7.649  27.765  55.351  1.00  0.00     0.135 C 
HETATM    9  C   UNL     1       6.649  26.756  55.947  1.00  0.00     0.063 C 
HETATM   10  H   UNL     1       7.525  29.331  53.931  1.00  0.00     0.178 HD
ENDROOT
BRANCH   1  11
HETATM   11  C   UNL     1       6.947  24.683  54.503  1.00  0.00     0.001 A 
HETATM   12  C   UNL     1       7.611  23.985  55.526  1.00  0.00     0.076 A 
HETATM   13  C   UNL     1       8.503  22.948  55.233  1.00  0.00     0.037 A 
HETATM   14  C   UNL     1       8.719  22.567  53.911  1.00  0.00     0.003 A 
HETATM   15  C   UNL     1       8.052  23.227  52.883  1.00  0.00     0.001 A 
HETATM   16  C   UNL     1       7.178  24.278  53.175  1.00  0.00     0.012 A 
BRANCH  12  17
HETATM   17  O   UNL     1       7.420  24.385  56.824  1.00  0.00    -0.355 OA
HETATM   18  C   UNL     1       8.647  24.379  57.558  1.00  0.00     0.210 C 
ENDBRANCH  12  17
ENDBRANCH   1  11
BRANCH   8  19
HETATM   19  C   UNL     1       8.178  28.704  56.421  1.00  0.00    -0.035 A 
HETATM   20  C   UNL     1       9.416  29.359  56.286  1.00  0.00     0.010 A 
HETATM   21  C   UNL     1       9.880  30.221  57.282  1.00  0.00     0.019 A 
HETATM   22  C   UNL     1       9.105  30.448  58.417  1.00  0.00     0.011 A 
HETATM   23 BR   UNL     1       9.733  31.614  59.766  1.00  0.00    -0.051 Br
HETATM   24  C   UNL     1       7.870  29.823  58.563  1.00  0.00     0.019 A 
HETATM   25  C   UNL     1       7.407  28.956  57.568  1.00  0.00     0.010 A 
ENDBRANCH   8  19
BRANCH   5  26
HETATM   26  N   UNL     1       4.210  27.400  50.758  1.00  0.00    -0.229 N 
HETATM   27  H   UNL     1       4.189  26.582  50.166  1.00  0.00     0.174 HD
HETATM   28  H   UNL     1       3.356  27.940  50.775  1.00  0.00     0.174 HD
ENDBRANCH   5  26
TORSDOF 4
ENDMDL
MODEL 3
REMARK VINA RESULT:      -8.4      2.984      4.413
REMARK  4 active torsions:
REMARK  status: ('A' for Active; 'I' for Inactive)
REMARK    1  A    between atoms: O_2  and  C_3 
REMARK    2  A    between atoms: C_4  and  C_5 
REMARK    3  A    between atoms: C_9  and  N_10 
REMARK    4  A    between atoms: C_13  and  C_14 
ROOT
HETATM    1  C   UNL     1       5.296  27.660  56.158  1.00  0.00     0.167 C 
HETATM    2  N   UNL     1       6.438  28.152  56.919  1.00  0.00    -0.074 N 
HETATM    3  C   UNL     1       7.707  27.645  56.829  1.00  0.00     0.736 A 
HETATM    4  N   UNL     1       8.494  28.338  57.609  1.00  0.00     0.131 NA
HETATM    5  C   UNL     1       7.642  29.230  58.193  1.00  0.00     0.753 A 
HETATM    6  N   UNL     1       6.374  29.171  57.794  1.00  0.00     0.037 NA
HETATM    7  N   UNL     1       7.987  26.595  56.033  1.00  0.00    -0.214 N 
HETATM    8  C   UNL     1       7.018  26.165  55.030  1.00  0.00     0.135 C 
HETATM    9  C   UNL     1       5.591  26.253  55.603  1.00  0.00     0.063 C 
HETATM   10  H   UNL     1       8.966  26.420  55.821  1.00  0.00     0.178 HD
ENDROOT
BRANCH   1  11
HETATM   11  C   UNL     1       4.867  28.630  55.062  1.00  0.00     0.001 A 
HETATM   12  C   UNL     1       3.925  29.634  55.346  1.00  0.00     0.076 A 
HETATM   13  C   UNL     1       3.461  30.494  54.346  1.00  0.00     0.037 A 
HETATM   14  C   UNL     1       3.959  30.388  53.049  1.00  0.00     0.003 A 
HETATM   15  C   UNL     1       4.912  29.419  52.751  1.00  0.00     0.001 A 
HETATM   16  C   UNL     1       5.359  28.545  53.746  1.00  0.00     0.012 A 
BRANCH  12  17
HETATM   17  O   UNL     1       3.414  29.713  56.616  1.00  0.00    -0.355 OA
HETATM   18  C   UNL     1       3.353  31.068  57.069  1.00  0.00     0.210 C 
ENDBRANCH  12  17
ENDBRANCH   1  11
BRANCH   8  19
HETATM   19  C   UNL     1       7.333  24.752  54.566  1.00  0.00    -0.035 A 
HETATM   20  C   UNL     1       7.328  23.663  55.454  1.00  0.00     0.010 A 
HETATM   21  C   UNL     1       7.617  22.372  55.004  1.00  0.00     0.019 A 
HETATM   22  C   UNL     1       7.901  22.158  53.657  1.00  0.00     0.011 A 
HETATM   23 BR   UNL     1       8.293  20.412  53.047  1.00  0.00    -0.051 Br
HETATM   24  C   UNL     1       7.895  23.220  52.758  1.00  0.00     0.019 A 
HETATM   25  C   UNL     1       7.611  24.512  53.210  1.00  0.00     0.010 A 
ENDBRANCH   8  19
BRANCH   5  26
HETATM   26  N   UNL     1       8.135  30.100  59.070  1.00  0.00    -0.229 N 
HETATM   27  H   UNL     1       8.709  29.724  59.810  1.00  0.00     0.174 HD
HETATM   28  H   UNL     1       8.432  30.995  58.706  1.00  0.00     0.174 HD
ENDBRANCH   5  26
TORSDOF 4
ENDMDL
MODEL 4
REMARK VINA RESULT:      -7.9      3.890      6.444
REMARK  4 active torsions:
REMARK  status: ('A' for Active; 'I' for Inactive)
REMARK    1  A    between atoms: O_2  and  C_3 
REMARK    2  A    between atoms: C_4  and  C_5 
REMARK    3  A    between atoms: C_9  and  N_10 
REMARK    4  A    between atoms: C_13  and  C_14 
ROOT
HETATM    1  C   UNL     1       7.180  28.238  57.427  1.00  0.00     0.167 C 
HETATM    2  N   UNL     1       7.471  26.832  57.176  1.00  0.00    -0.074 N 
HETATM    3  C   UNL     1       7.234  26.190  55.990  1.00  0.00     0.736 A 
HETATM    4  N   UNL     1       7.646  24.954  56.089  1.00  0.00     0.131 NA
HETATM    5  C   UNL     1       8.083  24.878  57.380  1.00  0.00     0.753 A 
HETATM    6  N   UNL     1       8.013  26.003  58.085  1.00  0.00     0.037 NA
HETATM    7  N   UNL     1       6.661  26.828  54.950  1.00  0.00    -0.214 N 
HETATM    8  C   UNL     1       6.553  28.284  54.962  1.00  0.00     0.135 C 
HETATM    9  C   UNL     1       6.188  28.774  56.376  1.00  0.00     0.063 C 
HETATM   10  H   UNL     1       6.732  26.387  54.037  1.00  0.00     0.178 HD
ENDROOT
BRANCH   1  11
HETATM   11  C   UNL     1       8.445  29.087  57.507  1.00  0.00     0.001 A 
HETATM   12  C   UNL     1       8.503  30.173  58.397  1.00  0.00     0.076 A 
HETATM   13  C   UNL     1       9.621  31.011  58.443  1.00  0.00     0.037 A 
HETATM   14  C   UNL     1      10.720  30.754  57.625  1.00  0.00     0.003 A 
HETATM   15  C   UNL     1      10.695  29.668  56.756  1.00  0.00     0.001 A 
HETATM   16  C   UNL     1       9.568  28.844  56.693  1.00  0.00     0.012 A 
BRANCH  12  17
HETATM   17  O   UNL     1       7.407  30.440  59.177  1.00  0.00    -0.355 OA
HETATM   18  C   UNL     1       6.869  31.735  58.894  1.00  0.00     0.210 C 
ENDBRANCH  12  17
ENDBRANCH   1  11
BRANCH   8  19
HETATM   19  C   UNL     1       5.521  28.742  53.944  1.00  0.00    -0.035 A 
HETATM   20  C   UNL     1       4.441  29.567  54.304  1.00  0.00     0.010 A 
HETATM   21  C   UNL     1       3.508  29.979  53.350  1.00  0.00     0.019 A 
HETATM   22  C   UNL     1       3.653  29.580  52.024  1.00  0.00     0.011 A 
HETATM   23 BR   UNL     1       2.389  30.136  50.732  1.00  0.00    -0.051 Br
HETATM   24  C   UNL     1       4.724  28.777  51.643  1.00  0.00     0.019 A 
HETATM   25  C   UNL     1       5.655  28.361  52.599  1.00  0.00     0.010 A 
ENDBRANCH   8  19
BRANCH   5  26
HETATM   26  N   UNL     1       8.571  23.722  57.819  1.00  0.00    -0.229 N 
HETATM   27  H   UNL     1       9.256  23.768  58.560  1.00  0.00     0.174 HD
HETATM   28  H   UNL     1       7.925  22.947  57.878  1.00  0.00     0.174 HD
ENDBRANCH   5  26
TORSDOF 4
ENDMDL
MODEL 5
REMARK VINA RESULT:      -7.9      3.181      4.569
REMARK  4 active torsions:
REMARK  status: ('A' for Active; 'I' for Inactive)
REMARK    1  A    between atoms: O_2  and  C_3 
REMARK    2  A    between atoms: C_4  and  C_5 
REMARK    3  A    between atoms: C_9  and  N_10 
REMARK    4  A    between atoms: C_13  and  C_14 
ROOT
HETATM    1  C   UNL     1       5.595  28.521  57.053  1.00  0.00     0.167 C 
HETATM    2  N   UNL     1       6.888  29.106  57.387  1.00  0.00    -0.074 N 
HETATM    3  C   UNL     1       8.086  28.683  56.877  1.00  0.00     0.736 A 
HETATM    4  N   UNL     1       9.037  29.445  57.349  1.00  0.00     0.131 NA
HETATM    5  C   UNL     1       8.368  30.291  58.185  1.00  0.00     0.753 A 
HETATM    6  N   UNL     1       7.048  30.137  58.234  1.00  0.00     0.037 NA
HETATM    7  N   UNL     1       8.158  27.636  56.032  1.00  0.00    -0.214 N 
HETATM    8  C   UNL     1       6.943  27.120  55.411  1.00  0.00     0.135 C 
HETATM    9  C   UNL     1       5.787  27.124  56.429  1.00  0.00     0.063 C 
HETATM   10  H   UNL     1       9.020  27.523  55.504  1.00  0.00     0.178 HD
ENDROOT
BRANCH   1  11
HETATM   11  C   UNL     1       4.756  29.434  56.164  1.00  0.00     0.001 A 
HETATM   12  C   UNL     1       3.858  30.343  56.748  1.00  0.00     0.076 A 
HETATM   13  C   UNL     1       3.026  31.145  55.960  1.00  0.00     0.037 A 
HETATM   14  C   UNL     1       3.105  31.077  54.571  1.00  0.00     0.003 A 
HETATM   15  C   UNL     1       4.007  30.203  53.971  1.00  0.00     0.001 A 
HETATM   16  C   UNL     1       4.822  29.386  54.759  1.00  0.00     0.012 A 
BRANCH  12  17
HETATM   17  O   UNL     1       3.761  30.383  58.116  1.00  0.00    -0.355 OA
HETATM   18  C   UNL     1       3.708  31.730  58.595  1.00  0.00     0.210 C 
ENDBRANCH  12  17
ENDBRANCH   1  11
BRANCH   8  19
HETATM   19  C   UNL     1       7.184  25.721  54.866  1.00  0.00    -0.035 A 
HETATM   20  C   UNL     1       7.687  25.507  53.571  1.00  0.00     0.010 A 
HETATM   21  C   UNL     1       7.905  24.213  53.094  1.00  0.00     0.019 A 
HETATM   22  C   UNL     1       7.633  23.119  53.913  1.00  0.00     0.011 A 
HETATM   23 BR   UNL     1       7.926  21.367  53.268  1.00  0.00    -0.051 Br
HETATM   24  C   UNL     1       7.150  23.310  55.205  1.00  0.00     0.019 A 
HETATM   25  C   UNL     1       6.928  24.605  55.680  1.00  0.00     0.010 A 
ENDBRANCH   8  19
BRANCH   5  26
HETATM   26  N   UNL     1       9.063  31.212  58.847  1.00  0.00    -0.229 N 
HETATM   27  H   UNL     1       8.632  32.120  58.950  1.00  0.00     0.174 HD
HETATM   28  H   UNL     1       9.595  30.895  59.645  1.00  0.00     0.174 HD
ENDBRANCH   5  26
TORSDOF 4
ENDMDL
MODEL 6
REMARK VINA RESULT:      -7.8      2.894      5.240
REMARK  4 active torsions:
REMARK  status: ('A' for Active; 'I' for Inactive)
REMARK    1  A    between atoms: O_2  and  C_3 
REMARK    2  A    between atoms: C_4  and  C_5 
REMARK    3  A    between atoms: C_9  and  N_10 
REMARK    4  A    between atoms: C_13  and  C_14 
ROOT
HETATM    1  C   UNL     1       4.073  26.843  51.381  1.00  0.00     0.167 C 
HETATM    2  N   UNL     1       4.051  27.921  52.362  1.00  0.00    -0.074 N 
HETATM    3  C   UNL     1       4.911  28.023  53.422  1.00  0.00     0.736 A 
HETATM    4  N   UNL     1       4.646  29.123  54.076  1.00  0.00     0.131 NA
HETATM    5  C   UNL     1       3.578  29.634  53.398  1.00  0.00     0.753 A 
HETATM    6  N   UNL     1       3.182  28.946  52.331  1.00  0.00     0.037 NA
HETATM    7  N   UNL     1       5.844  27.080  53.661  1.00  0.00    -0.214 N 
HETATM    8  C   UNL     1       6.155  26.089  52.635  1.00  0.00     0.135 C 
HETATM    9  C   UNL     1       4.862  25.637  51.930  1.00  0.00     0.063 C 
HETATM   10  H   UNL     1       6.598  27.323  54.299  1.00  0.00     0.178 HD
ENDROOT
BRANCH   1  11
HETATM   11  C   UNL     1       4.599  27.302  50.024  1.00  0.00     0.001 A 
HETATM   12  C   UNL     1       4.306  26.554  48.872  1.00  0.00     0.076 A 
HETATM   13  C   UNL     1       4.831  26.911  47.625  1.00  0.00     0.037 A 
HETATM   14  C   UNL     1       5.630  28.046  47.504  1.00  0.00     0.003 A 
HETATM   15  C   UNL     1       5.911  28.816  48.629  1.00  0.00     0.001 A 
HETATM   16  C   UNL     1       5.405  28.447  49.878  1.00  0.00     0.012 A 
BRANCH  12  17
HETATM   17  O   UNL     1       3.546  25.420  49.001  1.00  0.00    -0.355 OA
HETATM   18  C   UNL     1       3.018  25.000  47.740  1.00  0.00     0.210 C 
ENDBRANCH  12  17
ENDBRANCH   1  11
BRANCH   8  19
HETATM   19  C   UNL     1       6.881  24.905  53.251  1.00  0.00    -0.035 A 
HETATM   20  C   UNL     1       7.690  24.051  52.481  1.00  0.00     0.010 A 
HETATM   21  C   UNL     1       8.352  22.971  53.071  1.00  0.00     0.019 A 
HETATM   22  C   UNL     1       8.221  22.743  54.439  1.00  0.00     0.011 A 
HETATM   23 BR   UNL     1       9.115  21.281  55.236  1.00  0.00    -0.051 Br
HETATM   24  C   UNL     1       7.439  23.586  55.222  1.00  0.00     0.019 A 
HETATM   25  C   UNL     1       6.773  24.664  54.631  1.00  0.00     0.010 A 
ENDBRANCH   8  19
BRANCH   5  26
HETATM   26  N   UNL     1       3.044  30.776  53.820  1.00  0.00    -0.229 N 
HETATM   27  H   UNL     1       2.811  30.835  54.801  1.00  0.00     0.174 HD
HETATM   28  H   UNL     1       3.406  31.627  53.413  1.00  0.00     0.174 HD
ENDBRANCH   5  26
TORSDOF 4
ENDMDL
MODEL 7
REMARK VINA RESULT:      -7.8      3.187      4.083
REMARK  4 active torsions:
REMARK  status: ('A' for Active; 'I' for Inactive)
REMARK    1  A    between atoms: O_2  and  C_3 
REMARK    2  A    between atoms: C_4  and  C_5 
REMARK    3  A    between atoms: C_9  and  N_10 
REMARK    4  A    between atoms: C_13  and  C_14 
ROOT
HETATM    1  C   UNL     1       7.431  29.592  56.293  1.00  0.00     0.167 C 
HETATM    2  N   UNL     1       5.982  29.697  56.172  1.00  0.00    -0.074 N 
HETATM    3  C   UNL     1       5.113  28.650  56.322  1.00  0.00     0.736 A 
HETATM    4  N   UNL     1       3.891  29.094  56.192  1.00  0.00     0.131 NA
HETATM    5  C   UNL     1       4.072  30.418  55.914  1.00  0.00     0.753 A 
HETATM    6  N   UNL     1       5.332  30.843  55.905  1.00  0.00     0.037 NA
HETATM    7  N   UNL     1       5.556  27.400  56.561  1.00  0.00    -0.214 N 
HETATM    8  C   UNL     1       6.944  27.185  56.960  1.00  0.00     0.135 C 
HETATM    9  C   UNL     1       7.873  28.121  56.163  1.00  0.00     0.063 C 
HETATM   10  H   UNL     1       4.878  26.722  56.900  1.00  0.00     0.178 HD
ENDROOT
BRANCH   1  11
HETATM   11  C   UNL     1       7.955  30.236  57.574  1.00  0.00     0.001 A 
HETATM   12  C   UNL     1       9.320  30.547  57.691  1.00  0.00     0.076 A 
HETATM   13  C   UNL     1       9.842  31.074  58.876  1.00  0.00     0.037 A 
HETATM   14  C   UNL     1       9.000  31.334  59.955  1.00  0.00     0.003 A 
HETATM   15  C   UNL     1       7.639  31.058  59.851  1.00  0.00     0.001 A 
HETATM   16  C   UNL     1       7.122  30.510  58.674  1.00  0.00     0.012 A 
BRANCH  12  17
HETATM   17  O   UNL     1      10.151  30.261  56.638  1.00  0.00    -0.355 OA
HETATM   18  C   UNL     1      11.365  29.649  57.083  1.00  0.00     0.210 C 
ENDBRANCH  12  17
ENDBRANCH   1  11
BRANCH   8  19
HETATM   19  C   UNL     1       7.331  25.730  56.755  1.00  0.00    -0.035 A 
HETATM   20  C   UNL     1       6.673  24.914  55.817  1.00  0.00     0.010 A 
HETATM   21  C   UNL     1       7.049  23.580  55.643  1.00  0.00     0.019 A 
HETATM   22  C   UNL     1       8.096  23.053  56.396  1.00  0.00     0.011 A 
HETATM   23 BR   UNL     1       8.604  21.247  56.163  1.00  0.00    -0.051 Br
HETATM   24  C   UNL     1       8.771  23.848  57.318  1.00  0.00     0.019 A 
HETATM   25  C   UNL     1       8.391  25.182  57.495  1.00  0.00     0.010 A 
ENDBRANCH   8  19
BRANCH   5  26
HETATM   26  N   UNL     1       3.000  31.178  55.713  1.00  0.00    -0.229 N 
HETATM   27  H   UNL     1       2.664  31.708  56.504  1.00  0.00     0.174 HD
HETATM   28  H   UNL     1       2.935  31.648  54.820  1.00  0.00     0.174 HD
ENDBRANCH   5  26
TORSDOF 4
ENDMDL
MODEL 8
REMARK VINA RESULT:      -7.7      9.275     12.065
REMARK  4 active torsions:
REMARK  status: ('A' for Active; 'I' for Inactive)
REMARK    1  A    between atoms: O_2  and  C_3 
REMARK    2  A    between atoms: C_4  and  C_5 
REMARK    3  A    between atoms: C_9  and  N_10 
REMARK    4  A    between atoms: C_13  and  C_14 
ROOT
HETATM    1  C   UNL     1       4.793  34.162  63.055  1.00  0.00     0.167 C 
HETATM    2  N   UNL     1       5.559  33.963  64.279  1.00  0.00    -0.074 N 
HETATM    3  C   UNL     1       6.830  33.457  64.326  1.00  0.00     0.736 A 
HETATM    4  N   UNL     1       7.236  33.450  65.569  1.00  0.00     0.131 NA
HETATM    5  C   UNL     1       6.150  33.919  66.250  1.00  0.00     0.753 A 
HETATM    6  N   UNL     1       5.101  34.263  65.507  1.00  0.00     0.037 NA
HETATM    7  N   UNL     1       7.468  33.059  63.208  1.00  0.00    -0.214 N 
HETATM    8  C   UNL     1       6.939  33.430  61.899  1.00  0.00     0.135 C 
HETATM    9  C   UNL     1       5.401  33.334  61.905  1.00  0.00     0.063 C 
HETATM   10  H   UNL     1       8.474  32.925  63.269  1.00  0.00     0.178 HD
ENDROOT
BRANCH   1  11
HETATM   11  C   UNL     1       4.655  35.636  62.689  1.00  0.00     0.001 A 
HETATM   12  C   UNL     1       3.422  36.130  62.232  1.00  0.00     0.076 A 
HETATM   13  C   UNL     1       3.282  37.460  61.823  1.00  0.00     0.037 A 
HETATM   14  C   UNL     1       4.367  38.331  61.901  1.00  0.00     0.003 A 
HETATM   15  C   UNL     1       5.591  37.870  62.376  1.00  0.00     0.001 A 
HETATM   16  C   UNL     1       5.736  36.535  62.763  1.00  0.00     0.012 A 
BRANCH  12  17
HETATM   17  O   UNL     1       2.365  35.261  62.127  1.00  0.00    -0.355 OA
HETATM   18  C   UNL     1       1.927  35.136  60.772  1.00  0.00     0.210 C 
ENDBRANCH  12  17
ENDBRANCH   1  11
BRANCH   8  19
HETATM   19  C   UNL     1       7.536  32.542  60.820  1.00  0.00    -0.035 A 
HETATM   20  C   UNL     1       6.739  31.950  59.824  1.00  0.00     0.010 A 
HETATM   21  C   UNL     1       7.311  31.141  58.839  1.00  0.00     0.019 A 
HETATM   22  C   UNL     1       8.688  30.927  58.834  1.00  0.00     0.011 A 
HETATM   23 BR   UNL     1       9.462  29.830  57.503  1.00  0.00    -0.051 Br
HETATM   24  C   UNL     1       9.496  31.517  59.801  1.00  0.00     0.019 A 
HETATM   25  C   UNL     1       8.923  32.323  60.789  1.00  0.00     0.010 A 
ENDBRANCH   8  19
BRANCH   5  26
HETATM   26  N   UNL     1       6.229  34.031  67.572  1.00  0.00    -0.229 N 
HETATM   27  H   UNL     1       6.895  34.698  67.934  1.00  0.00     0.174 HD
HETATM   28  H   UNL     1       5.362  33.967  68.088  1.00  0.00     0.174 HD
ENDBRANCH   5  26
TORSDOF 4
ENDMDL
MODEL 9
REMARK VINA RESULT:      -7.6      3.357      5.651
REMARK  4 active torsions:
REMARK  status: ('A' for Active; 'I' for Inactive)
REMARK    1  A    between atoms: O_2  and  C_3 
REMARK    2  A    between atoms: C_4  and  C_5 
REMARK    3  A    between atoms: C_9  and  N_10 
REMARK    4  A    between atoms: C_13  and  C_14 
ROOT
HETATM    1  C   UNL     1       6.113  26.804  56.270  1.00  0.00     0.167 C 
HETATM    2  N   UNL     1       6.830  25.536  56.202  1.00  0.00    -0.074 N 
HETATM    3  C   UNL     1       7.270  24.955  55.044  1.00  0.00     0.736 A 
HETATM    4  N   UNL     1       7.907  23.853  55.341  1.00  0.00     0.131 NA
HETATM    5  C   UNL     1       7.784  23.782  56.698  1.00  0.00     0.753 A 
HETATM    6  N   UNL     1       7.147  24.795  57.278  1.00  0.00     0.037 NA
HETATM    7  N   UNL     1       7.029  25.515  53.842  1.00  0.00    -0.214 N 
HETATM    8  C   UNL     1       6.556  26.894  53.766  1.00  0.00     0.135 C 
HETATM    9  C   UNL     1       5.535  27.165  54.887  1.00  0.00     0.063 C 
HETATM   10  H   UNL     1       7.576  25.180  53.054  1.00  0.00     0.178 HD
ENDROOT
BRANCH   1  11
HETATM   11  C   UNL     1       6.972  27.927  56.843  1.00  0.00     0.001 A 
HETATM   12  C   UNL     1       6.360  29.014  57.489  1.00  0.00     0.076 A 
HETATM   13  C   UNL     1       7.115  30.092  57.963  1.00  0.00     0.037 A 
HETATM   14  C   UNL     1       8.502  30.083  57.832  1.00  0.00     0.003 A 
HETATM   15  C   UNL     1       9.131  29.004  57.218  1.00  0.00     0.001 A 
HETATM   16  C   UNL     1       8.374  27.938  56.724  1.00  0.00     0.012 A 
BRANCH  12  17
HETATM   17  O   UNL     1       4.992  29.033  57.589  1.00  0.00    -0.355 OA
HETATM   18  C   UNL     1       4.470  30.342  57.345  1.00  0.00     0.210 C 
ENDBRANCH  12  17
ENDBRANCH   1  11
BRANCH   8  19
HETATM   19  C   UNL     1       5.950  27.167  52.400  1.00  0.00    -0.035 A 
HETATM   20  C   UNL     1       5.770  28.475  51.917  1.00  0.00     0.010 A 
HETATM   21  C   UNL     1       5.214  28.701  50.656  1.00  0.00     0.019 A 
HETATM   22  C   UNL     1       4.845  27.620  49.859  1.00  0.00     0.011 A 
HETATM   23 BR   UNL     1       4.091  27.925  48.153  1.00  0.00    -0.051 Br
HETATM   24  C   UNL     1       5.029  26.317  50.311  1.00  0.00     0.019 A 
HETATM   25  C   UNL     1       5.581  26.091  51.575  1.00  0.00     0.010 A 
ENDBRANCH   8  19
BRANCH   5  26
HETATM   26  N   UNL     1       8.329  22.749  57.333  1.00  0.00    -0.229 N 
HETATM   27  H   UNL     1       9.102  22.289  56.874  1.00  0.00     0.174 HD
HETATM   28  H   UNL     1       8.405  22.820  58.338  1.00  0.00     0.174 HD
ENDBRANCH   5  26
TORSDOF 4
ENDMDL
MODEL 10
REMARK VINA RESULT:      -7.6      3.472      4.759
REMARK  4 active torsions:
REMARK  status: ('A' for Active; 'I' for Inactive)
REMARK    1  A    between atoms: O_2  and  C_3 
REMARK    2  A    between atoms: C_4  and  C_5 
REMARK    3  A    between atoms: C_9  and  N_10 
REMARK    4  A    between atoms: C_13  and  C_14 
ROOT
HETATM    1  C   UNL     1       4.938  28.207  49.434  1.00  0.00     0.167 C 
HETATM    2  N   UNL     1       4.138  27.230  48.706  1.00  0.00    -0.074 N 
HETATM    3  C   UNL     1       3.869  25.963  49.149  1.00  0.00     0.736 A 
HETATM    4  N   UNL     1       3.094  25.368  48.281  1.00  0.00     0.131 NA
HETATM    5  C   UNL     1       2.959  26.304  47.297  1.00  0.00     0.753 A 
HETATM    6  N   UNL     1       3.564  27.468  47.514  1.00  0.00     0.037 NA
HETATM    7  N   UNL     1       4.375  25.504  50.311  1.00  0.00    -0.214 N 
HETATM    8  C   UNL     1       4.973  26.437  51.261  1.00  0.00     0.135 C 
HETATM    9  C   UNL     1       5.790  27.505  50.510  1.00  0.00     0.063 C 
HETATM   10  H   UNL     1       3.955  24.665  50.703  1.00  0.00     0.178 HD
ENDROOT
BRANCH   1  11
HETATM   11  C   UNL     1       4.090  29.332  50.019  1.00  0.00     0.001 A 
HETATM   12  C   UNL     1       4.683  30.571  50.317  1.00  0.00     0.076 A 
HETATM   13  C   UNL     1       3.948  31.598  50.918  1.00  0.00     0.037 A 
HETATM   14  C   UNL     1       2.596  31.417  51.197  1.00  0.00     0.003 A 
HETATM   15  C   UNL     1       1.982  30.207  50.886  1.00  0.00     0.001 A 
HETATM   16  C   UNL     1       2.722  29.173  50.306  1.00  0.00     0.012 A 
BRANCH  12  17
HETATM   17  O   UNL     1       6.022  30.734  50.069  1.00  0.00    -0.355 OA
HETATM   18  C   UNL     1       6.276  31.947  49.355  1.00  0.00     0.210 C 
ENDBRANCH  12  17
ENDBRANCH   1  11
BRANCH   8  19
HETATM   19  C   UNL     1       5.842  25.687  52.258  1.00  0.00    -0.035 A 
HETATM   20  C   UNL     1       5.381  25.366  53.547  1.00  0.00     0.010 A 
HETATM   21  C   UNL     1       6.197  24.672  54.444  1.00  0.00     0.019 A 
HETATM   22  C   UNL     1       7.476  24.283  54.056  1.00  0.00     0.011 A 
HETATM   23 BR   UNL     1       8.581  23.346  55.271  1.00  0.00    -0.051 Br
HETATM   24  C   UNL     1       7.945  24.576  52.779  1.00  0.00     0.019 A 
HETATM   25  C   UNL     1       7.131  25.275  51.883  1.00  0.00     0.010 A 
ENDBRANCH   8  19
BRANCH   5  26
HETATM   26  N   UNL     1       2.218  26.006  46.234  1.00  0.00    -0.229 N 
HETATM   27  H   UNL     1       2.442  25.149  45.748  1.00  0.00     0.174 HD
HETATM   28  H   UNL     1       1.233  26.224  46.289  1.00  0.00     0.174 HD
ENDBRANCH   5  26
TORSDOF 4
ENDMDL
