MODEL 1
REMARK VINA RESULT:      -9.6      0.000      0.000
REMARK  9 active torsions:
REMARK  status: ('A' for Active; 'I' for Inactive)
REMARK    1  A    between atoms: C_2  and  C_3 
REMARK    2  A    between atoms: C_3  and  O_4 
REMARK    3  A    between atoms: O_4  and  C_5 
REMARK    4  A    between atoms: C_8  and  C_9 
REMARK    5  A    between atoms: C_13  and  C_14 
REMARK       I    between atoms: C_14  and  N_15 
REMARK    6  A    between atoms: N_15  and  N_16 
REMARK    7  A    between atoms: C_17  and  C_18 
REMARK    8  A    between atoms: C_21  and  C_22 
REMARK    9  A    between atoms: C_22  and  O_23 
ROOT
HETATM    1  C   UNL     1       8.366  28.447  57.189  1.00  0.00     0.089 A 
HETATM    2  N   UNL     1       9.606  28.939  57.039  1.00  0.00    -0.174 NA
HETATM    3  N   UNL     1       9.652  29.997  57.862  1.00  0.00    -0.272 N 
HETATM    4  H   UNL     1      10.509  30.538  57.925  1.00  0.00     0.189 HD
HETATM    5  C   UNL     1       8.503  30.205  58.574  1.00  0.00     0.121 A 
HETATM    6  C   UNL     1       7.636  29.225  58.131  1.00  0.00     0.071 A 
ENDROOT
BRANCH   5   7
HETATM    7  C   UNL     1       8.414  31.258  59.556  1.00  0.00     0.289 C 
HETATM    8  N   UNL     1       7.614  30.961  60.649  1.00  0.00    -0.242 N 
HETATM    9  H   UNL     1       7.148  30.066  60.713  1.00  0.00     0.192 HD
HETATM   10  O   UNL     1       9.029  32.311  59.413  1.00  0.00    -0.264 OA
BRANCH   8  11
HETATM   11  N   UNL     1       7.567  31.811  61.716  1.00  0.00    -0.184 NA
HETATM   12  C   UNL     1       6.480  31.772  62.416  1.00  0.00     0.150 C 
BRANCH  12  13
HETATM   13  C   UNL     1       6.310  32.595  63.630  1.00  0.00    -0.017 A 
HETATM   14  C   UNL     1       7.420  33.042  64.353  1.00  0.00     0.014 A 
HETATM   15  C   UNL     1       7.236  33.788  65.520  1.00  0.00     0.018 A 
HETATM   16  C   UNL     1       5.943  34.091  65.972  1.00  0.00     0.039 A 
HETATM   17  C   UNL     1       4.835  33.646  65.235  1.00  0.00     0.018 A 
HETATM   18  C   UNL     1       5.018  32.899  64.066  1.00  0.00     0.014 A 
BRANCH  16  19
HETATM   19  C   UNL     1       5.804  34.872  67.232  1.00  0.00     0.292 C 
HETATM   20  O   UNL     1       4.946  35.724  67.406  1.00  0.00    -0.259 OA
BRANCH  19  21
HETATM   21  O   UNL     1       6.758  34.511  68.127  1.00  0.00    -0.323 OA
HETATM   22  C   UNL     1       6.239  34.129  69.402  1.00  0.00     0.213 C 
ENDBRANCH  19  21
ENDBRANCH  16  19
ENDBRANCH  12  13
ENDBRANCH   8  11
ENDBRANCH   5   7
BRANCH   1  23
HETATM   23  C   UNL     1       7.922  27.246  56.478  1.00  0.00    -0.005 A 
HETATM   24  C   UNL     1       7.330  27.351  55.212  1.00  0.00     0.016 A 
HETATM   25  C   UNL     1       6.951  26.209  54.495  1.00  0.00     0.037 A 
HETATM   26  C   UNL     1       7.158  24.942  55.038  1.00  0.00     0.068 A 
HETATM   27  C   UNL     1       7.716  24.831  56.314  1.00  0.00     0.037 A 
HETATM   28  C   UNL     1       8.100  25.970  57.028  1.00  0.00     0.016 A 
BRANCH  26  29
HETATM   29  O   UNL     1       6.852  23.753  54.439  1.00  0.00    -0.351 OA
BRANCH  29  30
HETATM   30  C   UNL     1       7.719  22.653  54.718  1.00  0.00     0.175 C 
BRANCH  30  31
HETATM   31  C   UNL     1       8.315  22.180  53.396  1.00  0.00     0.022 C 
HETATM   32  C   UNL     1       8.120  20.689  53.189  1.00  0.00     0.007 C 
ENDBRANCH  30  31
ENDBRANCH  29  30
ENDBRANCH  26  29
ENDBRANCH   1  23
TORSDOF 9
ENDMDL
MODEL 2
REMARK VINA RESULT:      -9.4      1.697     12.561
REMARK  9 active torsions:
REMARK  status: ('A' for Active; 'I' for Inactive)
REMARK    1  A    between atoms: C_2  and  C_3 
REMARK    2  A    between atoms: C_3  and  O_4 
REMARK    3  A    between atoms: O_4  and  C_5 
REMARK    4  A    between atoms: C_8  and  C_9 
REMARK    5  A    between atoms: C_13  and  C_14 
REMARK       I    between atoms: C_14  and  N_15 
REMARK    6  A    between atoms: N_15  and  N_16 
REMARK    7  A    between atoms: C_17  and  C_18 
REMARK    8  A    between atoms: C_21  and  C_22 
REMARK    9  A    between atoms: C_22  and  O_23 
ROOT
HETATM    1  C   UNL     1       8.226  32.126  60.772  1.00  0.00     0.089 A 
HETATM    2  N   UNL     1       9.038  32.812  59.954  1.00  0.00    -0.174 NA
HETATM    3  N   UNL     1       9.359  31.941  58.986  1.00  0.00    -0.272 N 
HETATM    4  H   UNL     1       9.974  32.239  58.235  1.00  0.00     0.189 HD
HETATM    5  C   UNL     1       8.765  30.715  59.115  1.00  0.00     0.121 A 
HETATM    6  C   UNL     1       8.043  30.799  60.289  1.00  0.00     0.071 A 
ENDROOT
BRANCH   5   7
HETATM    7  C   UNL     1       8.949  29.689  58.118  1.00  0.00     0.289 C 
HETATM    8  N   UNL     1       8.001  28.677  58.150  1.00  0.00    -0.242 N 
HETATM    9  H   UNL     1       7.257  28.697  58.834  1.00  0.00     0.192 HD
HETATM   10  O   UNL     1       9.871  29.750  57.309  1.00  0.00    -0.264 OA
BRANCH   8  11
HETATM   11  N   UNL     1       7.976  27.729  57.169  1.00  0.00    -0.184 NA
HETATM   12  C   UNL     1       8.001  26.501  57.575  1.00  0.00     0.150 C 
BRANCH  12  13
HETATM   13  C   UNL     1       7.923  25.370  56.629  1.00  0.00    -0.017 A 
HETATM   14  C   UNL     1       8.647  24.196  56.856  1.00  0.00     0.014 A 
HETATM   15  C   UNL     1       8.588  23.152  55.929  1.00  0.00     0.018 A 
HETATM   16  C   UNL     1       7.807  23.275  54.771  1.00  0.00     0.039 A 
HETATM   17  C   UNL     1       7.076  24.453  54.557  1.00  0.00     0.018 A 
HETATM   18  C   UNL     1       7.134  25.500  55.484  1.00  0.00     0.014 A 
BRANCH  16  19
HETATM   19  C   UNL     1       7.795  22.140  53.808  1.00  0.00     0.292 C 
HETATM   20  O   UNL     1       7.806  22.284  52.595  1.00  0.00    -0.259 OA
BRANCH  19  21
HETATM   21  O   UNL     1       7.758  20.954  54.466  1.00  0.00    -0.323 OA
HETATM   22  C   UNL     1       8.740  20.016  54.023  1.00  0.00     0.213 C 
ENDBRANCH  19  21
ENDBRANCH  16  19
ENDBRANCH  12  13
ENDBRANCH   8  11
ENDBRANCH   5   7
BRANCH   1  23
HETATM   23  C   UNL     1       7.617  32.745  61.952  1.00  0.00    -0.005 A 
HETATM   24  C   UNL     1       8.137  32.496  63.230  1.00  0.00     0.016 A 
HETATM   25  C   UNL     1       7.603  33.124  64.361  1.00  0.00     0.037 A 
HETATM   26  C   UNL     1       6.536  34.011  64.230  1.00  0.00     0.068 A 
HETATM   27  C   UNL     1       5.991  34.239  62.964  1.00  0.00     0.037 A 
HETATM   28  C   UNL     1       6.528  33.617  61.833  1.00  0.00     0.016 A 
BRANCH  26  29
HETATM   29  O   UNL     1       5.936  34.701  65.246  1.00  0.00    -0.351 OA
BRANCH  29  30
HETATM   30  C   UNL     1       4.855  34.048  65.914  1.00  0.00     0.175 C 
BRANCH  30  31
HETATM   31  C   UNL     1       4.879  34.481  67.376  1.00  0.00     0.022 C 
HETATM   32  C   UNL     1       6.281  34.437  67.956  1.00  0.00     0.007 C 
ENDBRANCH  30  31
ENDBRANCH  29  30
ENDBRANCH  26  29
ENDBRANCH   1  23
TORSDOF 9
ENDMDL
MODEL 3
REMARK VINA RESULT:      -8.9      1.270     12.735
REMARK  9 active torsions:
REMARK  status: ('A' for Active; 'I' for Inactive)
REMARK    1  A    between atoms: C_2  and  C_3 
REMARK    2  A    between atoms: C_3  and  O_4 
REMARK    3  A    between atoms: O_4  and  C_5 
REMARK    4  A    between atoms: C_8  and  C_9 
REMARK    5  A    between atoms: C_13  and  C_14 
REMARK       I    between atoms: C_14  and  N_15 
REMARK    6  A    between atoms: N_15  and  N_16 
REMARK    7  A    between atoms: C_17  and  C_18 
REMARK    8  A    between atoms: C_21  and  C_22 
REMARK    9  A    between atoms: C_22  and  O_23 
ROOT
HETATM    1  C   UNL     1       6.976  32.477  61.996  1.00  0.00     0.089 A 
HETATM    2  N   UNL     1       6.503  33.026  60.867  1.00  0.00    -0.174 NA
HETATM    3  N   UNL     1       7.042  32.294  59.881  1.00  0.00    -0.272 N 
HETATM    4  H   UNL     1       6.820  32.523  58.916  1.00  0.00     0.189 HD
HETATM    5  C   UNL     1       7.828  31.262  60.314  1.00  0.00     0.121 A 
HETATM    6  C   UNL     1       7.827  31.377  61.690  1.00  0.00     0.071 A 
ENDROOT
BRANCH   5   7
HETATM    7  C   UNL     1       8.423  30.336  59.382  1.00  0.00     0.289 C 
HETATM    8  N   UNL     1       7.630  29.242  59.070  1.00  0.00    -0.242 N 
HETATM    9  H   UNL     1       6.714  29.141  59.485  1.00  0.00     0.192 HD
HETATM   10  O   UNL     1       9.537  30.543  58.907  1.00  0.00    -0.264 OA
BRANCH   8  11
HETATM   11  N   UNL     1       8.014  28.373  58.090  1.00  0.00    -0.184 NA
HETATM   12  C   UNL     1       7.171  27.431  57.814  1.00  0.00     0.150 C 
BRANCH  12  13
HETATM   13  C   UNL     1       7.427  26.452  56.739  1.00  0.00    -0.017 A 
HETATM   14  C   UNL     1       7.102  26.746  55.412  1.00  0.00     0.014 A 
HETATM   15  C   UNL     1       7.318  25.790  54.415  1.00  0.00     0.018 A 
HETATM   16  C   UNL     1       7.859  24.538  54.739  1.00  0.00     0.039 A 
HETATM   17  C   UNL     1       8.191  24.256  56.072  1.00  0.00     0.018 A 
HETATM   18  C   UNL     1       7.975  25.211  57.071  1.00  0.00     0.014 A 
BRANCH  16  19
HETATM   19  C   UNL     1       8.051  23.550  53.641  1.00  0.00     0.292 C 
HETATM   20  O   UNL     1       8.153  23.860  52.464  1.00  0.00    -0.259 OA
BRANCH  19  21
HETATM   21  O   UNL     1       8.083  22.286  54.135  1.00  0.00    -0.323 OA
HETATM   22  C   UNL     1       8.114  21.273  53.128  1.00  0.00     0.213 C 
ENDBRANCH  19  21
ENDBRANCH  16  19
ENDBRANCH  12  13
ENDBRANCH   8  11
ENDBRANCH   5   7
BRANCH   1  23
HETATM   23  C   UNL     1       6.587  32.973  63.318  1.00  0.00    -0.005 A 
HETATM   24  C   UNL     1       5.234  33.151  63.637  1.00  0.00     0.016 A 
HETATM   25  C   UNL     1       4.843  33.570  64.914  1.00  0.00     0.037 A 
HETATM   26  C   UNL     1       5.804  33.819  65.893  1.00  0.00     0.068 A 
HETATM   27  C   UNL     1       7.156  33.675  65.572  1.00  0.00     0.037 A 
HETATM   28  C   UNL     1       7.547  33.252  64.299  1.00  0.00     0.016 A 
BRANCH  26  29
HETATM   29  O   UNL     1       5.557  34.213  67.178  1.00  0.00    -0.351 OA
BRANCH  29  30
HETATM   30  C   UNL     1       6.695  34.408  68.019  1.00  0.00     0.175 C 
BRANCH  30  31
HETATM   31  C   UNL     1       6.202  34.496  69.460  1.00  0.00     0.022 C 
HETATM   32  C   UNL     1       6.545  33.247  70.251  1.00  0.00     0.007 C 
ENDBRANCH  30  31
ENDBRANCH  29  30
ENDBRANCH  26  29
ENDBRANCH   1  23
TORSDOF 9
ENDMDL
MODEL 4
REMARK VINA RESULT:      -8.3      2.235      3.047
REMARK  9 active torsions:
REMARK  status: ('A' for Active; 'I' for Inactive)
REMARK    1  A    between atoms: C_2  and  C_3 
REMARK    2  A    between atoms: C_3  and  O_4 
REMARK    3  A    between atoms: O_4  and  C_5 
REMARK    4  A    between atoms: C_8  and  C_9 
REMARK    5  A    between atoms: C_13  and  C_14 
REMARK       I    between atoms: C_14  and  N_15 
REMARK    6  A    between atoms: N_15  and  N_16 
REMARK    7  A    between atoms: C_17  and  C_18 
REMARK    8  A    between atoms: C_21  and  C_22 
REMARK    9  A    between atoms: C_22  and  O_23 
ROOT
HETATM    1  C   UNL     1       7.561  27.163  55.451  1.00  0.00     0.089 A 
HETATM    2  N   UNL     1       7.587  28.277  54.704  1.00  0.00    -0.174 NA
HETATM    3  N   UNL     1       7.671  29.279  55.591  1.00  0.00    -0.272 N 
HETATM    4  H   UNL     1       7.710  30.237  55.254  1.00  0.00     0.189 HD
HETATM    5  C   UNL     1       7.735  28.870  56.895  1.00  0.00     0.121 A 
HETATM    6  C   UNL     1       7.634  27.494  56.834  1.00  0.00     0.071 A 
ENDROOT
BRANCH   5   7
HETATM    7  C   UNL     1       7.902  29.821  57.967  1.00  0.00     0.289 C 
HETATM    8  N   UNL     1       7.265  31.036  57.764  1.00  0.00    -0.242 N 
HETATM    9  H   UNL     1       6.735  31.200  56.919  1.00  0.00     0.192 HD
HETATM   10  O   UNL     1       8.546  29.535  58.972  1.00  0.00    -0.264 OA
BRANCH   8  11
HETATM   11  N   UNL     1       7.221  31.963  58.765  1.00  0.00    -0.184 NA
HETATM   12  C   UNL     1       6.117  32.012  59.437  1.00  0.00     0.150 C 
BRANCH  12  13
HETATM   13  C   UNL     1       5.947  32.927  60.583  1.00  0.00    -0.017 A 
HETATM   14  C   UNL     1       6.805  32.862  61.684  1.00  0.00     0.014 A 
HETATM   15  C   UNL     1       6.603  33.712  62.775  1.00  0.00     0.018 A 
HETATM   16  C   UNL     1       5.543  34.630  62.772  1.00  0.00     0.039 A 
HETATM   17  C   UNL     1       4.693  34.695  61.658  1.00  0.00     0.018 A 
HETATM   18  C   UNL     1       4.893  33.844  60.565  1.00  0.00     0.014 A 
BRANCH  16  19
HETATM   19  C   UNL     1       5.362  35.499  63.967  1.00  0.00     0.292 C 
HETATM   20  O   UNL     1       4.743  35.157  64.963  1.00  0.00    -0.259 OA
BRANCH  19  21
HETATM   21  O   UNL     1       5.964  36.701  63.781  1.00  0.00    -0.323 OA
HETATM   22  C   UNL     1       5.056  37.804  63.749  1.00  0.00     0.213 C 
ENDBRANCH  19  21
ENDBRANCH  16  19
ENDBRANCH  12  13
ENDBRANCH   8  11
ENDBRANCH   5   7
BRANCH   1  23
HETATM   23  C   UNL     1       7.508  25.829  54.848  1.00  0.00    -0.005 A 
HETATM   24  C   UNL     1       7.615  25.676  53.459  1.00  0.00     0.016 A 
HETATM   25  C   UNL     1       7.624  24.405  52.872  1.00  0.00     0.037 A 
HETATM   26  C   UNL     1       7.524  23.266  53.668  1.00  0.00     0.068 A 
HETATM   27  C   UNL     1       7.384  23.412  55.051  1.00  0.00     0.037 A 
HETATM   28  C   UNL     1       7.380  24.681  55.639  1.00  0.00     0.016 A 
BRANCH  26  29
HETATM   29  O   UNL     1       7.538  21.973  53.226  1.00  0.00    -0.351 OA
BRANCH  29  30
HETATM   30  C   UNL     1       8.721  21.218  53.489  1.00  0.00     0.175 C 
BRANCH  30  31
HETATM   31  C   UNL     1       8.362  20.117  54.482  1.00  0.00     0.022 C 
HETATM   32  C   UNL     1       9.017  20.337  55.833  1.00  0.00     0.007 C 
ENDBRANCH  30  31
ENDBRANCH  29  30
ENDBRANCH  26  29
ENDBRANCH   1  23
TORSDOF 9
ENDMDL
MODEL 5
REMARK VINA RESULT:      -8.3      2.084     12.814
REMARK  9 active torsions:
REMARK  status: ('A' for Active; 'I' for Inactive)
REMARK    1  A    between atoms: C_2  and  C_3 
REMARK    2  A    between atoms: C_3  and  O_4 
REMARK    3  A    between atoms: O_4  and  C_5 
REMARK    4  A    between atoms: C_8  and  C_9 
REMARK    5  A    between atoms: C_13  and  C_14 
REMARK       I    between atoms: C_14  and  N_15 
REMARK    6  A    between atoms: N_15  and  N_16 
REMARK    7  A    between atoms: C_17  and  C_18 
REMARK    8  A    between atoms: C_21  and  C_22 
REMARK    9  A    between atoms: C_22  and  O_23 
ROOT
HETATM    1  C   UNL     1       5.672  32.783  62.048  1.00  0.00     0.089 A 
HETATM    2  N   UNL     1       4.427  32.505  61.632  1.00  0.00    -0.174 NA
HETATM    3  N   UNL     1       4.575  32.117  60.357  1.00  0.00    -0.272 N 
HETATM    4  H   UNL     1       3.753  31.847  59.823  1.00  0.00     0.189 HD
HETATM    5  C   UNL     1       5.872  32.097  59.923  1.00  0.00     0.121 A 
HETATM    6  C   UNL     1       6.606  32.557  60.998  1.00  0.00     0.071 A 
ENDROOT
BRANCH   5   7
HETATM    7  C   UNL     1       6.207  31.634  58.598  1.00  0.00     0.289 C 
HETATM    8  N   UNL     1       6.715  30.345  58.550  1.00  0.00    -0.242 N 
HETATM    9  H   UNL     1       6.824  29.807  59.399  1.00  0.00     0.192 HD
HETATM   10  O   UNL     1       6.025  32.345  57.613  1.00  0.00    -0.264 OA
BRANCH   8  11
HETATM   11  N   UNL     1       6.931  29.736  57.347  1.00  0.00    -0.184 NA
HETATM   12  C   UNL     1       6.944  28.443  57.367  1.00  0.00     0.150 C 
BRANCH  12  13
HETATM   13  C   UNL     1       7.111  27.651  56.132  1.00  0.00    -0.017 A 
HETATM   14  C   UNL     1       7.491  28.263  54.935  1.00  0.00     0.014 A 
HETATM   15  C   UNL     1       7.607  27.501  53.769  1.00  0.00     0.018 A 
HETATM   16  C   UNL     1       7.343  26.124  53.793  1.00  0.00     0.039 A 
HETATM   17  C   UNL     1       6.971  25.516  55.002  1.00  0.00     0.018 A 
HETATM   18  C   UNL     1       6.854  26.278  56.170  1.00  0.00     0.014 A 
BRANCH  16  19
HETATM   19  C   UNL     1       7.464  25.363  52.520  1.00  0.00     0.292 C 
HETATM   20  O   UNL     1       8.256  24.448  52.352  1.00  0.00    -0.259 OA
BRANCH  19  21
HETATM   21  O   UNL     1       6.590  25.836  51.595  1.00  0.00    -0.323 OA
HETATM   22  C   UNL     1       5.240  25.423  51.811  1.00  0.00     0.213 C 
ENDBRANCH  19  21
ENDBRANCH  16  19
ENDBRANCH  12  13
ENDBRANCH   8  11
ENDBRANCH   5   7
BRANCH   1  23
HETATM   23  C   UNL     1       5.950  33.212  63.421  1.00  0.00    -0.005 A 
HETATM   24  C   UNL     1       4.897  33.454  64.313  1.00  0.00     0.016 A 
HETATM   25  C   UNL     1       5.147  33.809  65.645  1.00  0.00     0.037 A 
HETATM   26  C   UNL     1       6.458  33.930  66.102  1.00  0.00     0.068 A 
HETATM   27  C   UNL     1       7.512  33.723  65.209  1.00  0.00     0.037 A 
HETATM   28  C   UNL     1       7.264  33.362  63.881  1.00  0.00     0.016 A 
BRANCH  26  29
HETATM   29  O   UNL     1       6.837  34.251  67.375  1.00  0.00    -0.351 OA
BRANCH  29  30
HETATM   30  C   UNL     1       5.793  34.578  68.292  1.00  0.00     0.175 C 
BRANCH  30  31
HETATM   31  C   UNL     1       6.398  34.623  69.692  1.00  0.00     0.022 C 
HETATM   32  C   UNL     1       7.728  35.354  69.711  1.00  0.00     0.007 C 
ENDBRANCH  30  31
ENDBRANCH  29  30
ENDBRANCH  26  29
ENDBRANCH   1  23
TORSDOF 9
ENDMDL
MODEL 6
REMARK VINA RESULT:      -8.3      2.332      2.856
REMARK  9 active torsions:
REMARK  status: ('A' for Active; 'I' for Inactive)
REMARK    1  A    between atoms: C_2  and  C_3 
REMARK    2  A    between atoms: C_3  and  O_4 
REMARK    3  A    between atoms: O_4  and  C_5 
REMARK    4  A    between atoms: C_8  and  C_9 
REMARK    5  A    between atoms: C_13  and  C_14 
REMARK       I    between atoms: C_14  and  N_15 
REMARK    6  A    between atoms: N_15  and  N_16 
REMARK    7  A    between atoms: C_17  and  C_18 
REMARK    8  A    between atoms: C_21  and  C_22 
REMARK    9  A    between atoms: C_22  and  O_23 
ROOT
HETATM    1  C   UNL     1       7.263  27.576  56.288  1.00  0.00     0.089 A 
HETATM    2  N   UNL     1       7.149  28.338  55.189  1.00  0.00    -0.174 NA
HETATM    3  N   UNL     1       6.749  29.533  55.646  1.00  0.00    -0.272 N 
HETATM    4  H   UNL     1       6.596  30.290  54.985  1.00  0.00     0.189 HD
HETATM    5  C   UNL     1       6.624  29.601  57.006  1.00  0.00     0.121 A 
HETATM    6  C   UNL     1       6.924  28.328  57.448  1.00  0.00     0.071 A 
ENDROOT
BRANCH   5   7
HETATM    7  C   UNL     1       6.272  30.837  57.662  1.00  0.00     0.289 C 
HETATM    8  N   UNL     1       6.809  30.990  58.931  1.00  0.00    -0.242 N 
HETATM    9  H   UNL     1       7.395  30.268  59.328  1.00  0.00     0.192 HD
HETATM   10  O   UNL     1       5.568  31.674  57.102  1.00  0.00    -0.264 OA
BRANCH   8  11
HETATM   11  N   UNL     1       6.675  32.175  59.596  1.00  0.00    -0.184 NA
HETATM   12  C   UNL     1       5.965  32.135  60.676  1.00  0.00     0.150 C 
BRANCH  12  13
HETATM   13  C   UNL     1       5.780  33.327  61.527  1.00  0.00    -0.017 A 
HETATM   14  C   UNL     1       6.458  33.451  62.743  1.00  0.00     0.014 A 
HETATM   15  C   UNL     1       6.240  34.570  63.550  1.00  0.00     0.018 A 
HETATM   16  C   UNL     1       5.344  35.571  63.149  1.00  0.00     0.039 A 
HETATM   17  C   UNL     1       4.675  35.443  61.922  1.00  0.00     0.018 A 
HETATM   18  C   UNL     1       4.891  34.322  61.113  1.00  0.00     0.014 A 
BRANCH  16  19
HETATM   19  C   UNL     1       5.135  36.733  64.056  1.00  0.00     0.292 C 
HETATM   20  O   UNL     1       5.779  37.768  63.986  1.00  0.00    -0.259 OA
BRANCH  19  21
HETATM   21  O   UNL     1       4.154  36.467  64.955  1.00  0.00    -0.323 OA
HETATM   22  C   UNL     1       4.611  36.398  66.307  1.00  0.00     0.213 C 
ENDBRANCH  19  21
ENDBRANCH  16  19
ENDBRANCH  12  13
ENDBRANCH   8  11
ENDBRANCH   5   7
BRANCH   1  23
HETATM   23  C   UNL     1       7.721  26.186  56.219  1.00  0.00    -0.005 A 
HETATM   24  C   UNL     1       8.399  25.610  57.302  1.00  0.00     0.016 A 
HETATM   25  C   UNL     1       8.793  24.267  57.275  1.00  0.00     0.037 A 
HETATM   26  C   UNL     1       8.516  23.479  56.159  1.00  0.00     0.068 A 
HETATM   27  C   UNL     1       7.870  24.056  55.062  1.00  0.00     0.037 A 
HETATM   28  C   UNL     1       7.471  25.395  55.091  1.00  0.00     0.016 A 
BRANCH  26  29
HETATM   29  O   UNL     1       8.828  22.157  56.012  1.00  0.00    -0.351 OA
BRANCH  29  30
HETATM   30  C   UNL     1       7.762  21.284  55.637  1.00  0.00     0.175 C 
BRANCH  30  31
HETATM   31  C   UNL     1       8.316  20.269  54.643  1.00  0.00     0.022 C 
HETATM   32  C   UNL     1       8.050  20.681  53.206  1.00  0.00     0.007 C 
ENDBRANCH  30  31
ENDBRANCH  29  30
ENDBRANCH  26  29
ENDBRANCH   1  23
TORSDOF 9
ENDMDL
MODEL 7
REMARK VINA RESULT:      -8.2      1.952      2.630
REMARK  9 active torsions:
REMARK  status: ('A' for Active; 'I' for Inactive)
REMARK    1  A    between atoms: C_2  and  C_3 
REMARK    2  A    between atoms: C_3  and  O_4 
REMARK    3  A    between atoms: O_4  and  C_5 
REMARK    4  A    between atoms: C_8  and  C_9 
REMARK    5  A    between atoms: C_13  and  C_14 
REMARK       I    between atoms: C_14  and  N_15 
REMARK    6  A    between atoms: N_15  and  N_16 
REMARK    7  A    between atoms: C_17  and  C_18 
REMARK    8  A    between atoms: C_21  and  C_22 
REMARK    9  A    between atoms: C_22  and  O_23 
ROOT
HETATM    1  C   UNL     1       7.718  28.903  56.666  1.00  0.00     0.089 A 
HETATM    2  N   UNL     1       9.055  28.819  56.728  1.00  0.00    -0.174 NA
HETATM    3  N   UNL     1       9.385  29.483  57.845  1.00  0.00    -0.272 N 
HETATM    4  H   UNL     1      10.364  29.552  58.109  1.00  0.00     0.189 HD
HETATM    5  C   UNL     1       8.317  29.976  58.541  1.00  0.00     0.121 A 
HETATM    6  C   UNL     1       7.217  29.638  57.778  1.00  0.00     0.071 A 
ENDROOT
BRANCH   5   7
HETATM    7  C   UNL     1       8.497  30.653  59.803  1.00  0.00     0.289 C 
HETATM    8  N   UNL     1       7.318  31.030  60.428  1.00  0.00    -0.242 N 
HETATM    9  H   UNL     1       6.425  30.827  59.999  1.00  0.00     0.192 HD
HETATM   10  O   UNL     1       9.618  30.844  60.265  1.00  0.00    -0.264 OA
BRANCH   8  11
HETATM   11  N   UNL     1       7.345  31.543  61.693  1.00  0.00    -0.184 NA
HETATM   12  C   UNL     1       6.376  32.344  61.994  1.00  0.00     0.150 C 
BRANCH  12  13
HETATM   13  C   UNL     1       6.245  32.930  63.343  1.00  0.00    -0.017 A 
HETATM   14  C   UNL     1       7.378  33.259  64.093  1.00  0.00     0.014 A 
HETATM   15  C   UNL     1       7.232  33.778  65.382  1.00  0.00     0.018 A 
HETATM   16  C   UNL     1       5.956  33.970  65.930  1.00  0.00     0.039 A 
HETATM   17  C   UNL     1       4.824  33.645  65.166  1.00  0.00     0.018 A 
HETATM   18  C   UNL     1       4.968  33.125  63.875  1.00  0.00     0.014 A 
BRANCH  16  19
HETATM   19  C   UNL     1       5.858  34.508  67.314  1.00  0.00     0.292 C 
HETATM   20  O   UNL     1       4.863  35.062  67.755  1.00  0.00    -0.259 OA
BRANCH  19  21
HETATM   21  O   UNL     1       7.017  34.303  67.990  1.00  0.00    -0.323 OA
HETATM   22  C   UNL     1       7.201  35.180  69.103  1.00  0.00     0.213 C 
ENDBRANCH  19  21
ENDBRANCH  16  19
ENDBRANCH  12  13
ENDBRANCH   8  11
ENDBRANCH   5   7
BRANCH   1  23
HETATM   23  C   UNL     1       6.952  28.262  55.594  1.00  0.00    -0.005 A 
HETATM   24  C   UNL     1       7.364  27.028  55.071  1.00  0.00     0.016 A 
HETATM   25  C   UNL     1       6.612  26.376  54.086  1.00  0.00     0.037 A 
HETATM   26  C   UNL     1       5.436  26.951  53.608  1.00  0.00     0.068 A 
HETATM   27  C   UNL     1       5.038  28.196  54.100  1.00  0.00     0.037 A 
HETATM   28  C   UNL     1       5.785  28.846  55.088  1.00  0.00     0.016 A 
BRANCH  26  29
HETATM   29  O   UNL     1       4.605  26.414  52.666  1.00  0.00    -0.351 OA
BRANCH  29  30
HETATM   30  C   UNL     1       5.206  25.562  51.690  1.00  0.00     0.175 C 
BRANCH  30  31
HETATM   31  C   UNL     1       5.128  26.269  50.340  1.00  0.00     0.022 C 
HETATM   32  C   UNL     1       4.449  27.622  50.449  1.00  0.00     0.007 C 
ENDBRANCH  30  31
ENDBRANCH  29  30
ENDBRANCH  26  29
ENDBRANCH   1  23
TORSDOF 9
ENDMDL
MODEL 8
REMARK VINA RESULT:      -8.0      2.363     12.648
REMARK  9 active torsions:
REMARK  status: ('A' for Active; 'I' for Inactive)
REMARK    1  A    between atoms: C_2  and  C_3 
REMARK    2  A    between atoms: C_3  and  O_4 
REMARK    3  A    between atoms: O_4  and  C_5 
REMARK    4  A    between atoms: C_8  and  C_9 
REMARK    5  A    between atoms: C_13  and  C_14 
REMARK       I    between atoms: C_14  and  N_15 
REMARK    6  A    between atoms: N_15  and  N_16 
REMARK    7  A    between atoms: C_17  and  C_18 
REMARK    8  A    between atoms: C_21  and  C_22 
REMARK    9  A    between atoms: C_22  and  O_23 
ROOT
HETATM    1  C   UNL     1       7.452  32.213  61.145  1.00  0.00     0.089 A 
HETATM    2  N   UNL     1       8.741  31.993  61.443  1.00  0.00    -0.174 NA
HETATM    3  N   UNL     1       9.136  31.058  60.567  1.00  0.00    -0.272 N 
HETATM    4  H   UNL     1      10.097  30.726  60.595  1.00  0.00     0.189 HD
HETATM    5  C   UNL     1       8.168  30.673  59.681  1.00  0.00     0.121 A 
HETATM    6  C   UNL     1       7.049  31.390  60.055  1.00  0.00     0.071 A 
ENDROOT
BRANCH   5   7
HETATM    7  C   UNL     1       8.453  29.729  58.628  1.00  0.00     0.289 C 
HETATM    8  N   UNL     1       7.552  28.678  58.536  1.00  0.00    -0.242 N 
HETATM    9  H   UNL     1       6.771  28.618  59.176  1.00  0.00     0.192 HD
HETATM   10  O   UNL     1       9.413  29.886  57.879  1.00  0.00    -0.264 OA
BRANCH   8  11
HETATM   11  N   UNL     1       7.624  27.801  57.493  1.00  0.00    -0.184 NA
HETATM   12  C   UNL     1       7.721  26.553  57.815  1.00  0.00     0.150 C 
BRANCH  12  13
HETATM   13  C   UNL     1       7.751  25.488  56.793  1.00  0.00    -0.017 A 
HETATM   14  C   UNL     1       6.829  25.478  55.743  1.00  0.00     0.014 A 
HETATM   15  C   UNL     1       6.851  24.441  54.807  1.00  0.00     0.018 A 
HETATM   16  C   UNL     1       7.794  23.408  54.915  1.00  0.00     0.039 A 
HETATM   17  C   UNL     1       8.722  23.432  55.967  1.00  0.00     0.018 A 
HETATM   18  C   UNL     1       8.700  24.469  56.905  1.00  0.00     0.014 A 
BRANCH  16  19
HETATM   19  C   UNL     1       7.761  22.317  53.902  1.00  0.00     0.292 C 
HETATM   20  O   UNL     1       7.824  22.512  52.698  1.00  0.00    -0.259 OA
BRANCH  19  21
HETATM   21  O   UNL     1       7.642  21.107  54.505  1.00  0.00    -0.323 OA
HETATM   22  C   UNL     1       8.714  20.209  54.216  1.00  0.00     0.213 C 
ENDBRANCH  19  21
ENDBRANCH  16  19
ENDBRANCH  12  13
ENDBRANCH   8  11
ENDBRANCH   5   7
BRANCH   1  23
HETATM   23  C   UNL     1       6.653  33.211  61.861  1.00  0.00    -0.005 A 
HETATM   24  C   UNL     1       6.973  33.558  63.181  1.00  0.00     0.016 A 
HETATM   25  C   UNL     1       6.255  34.550  63.860  1.00  0.00     0.037 A 
HETATM   26  C   UNL     1       5.203  35.209  63.226  1.00  0.00     0.068 A 
HETATM   27  C   UNL     1       4.857  34.844  61.923  1.00  0.00     0.037 A 
HETATM   28  C   UNL     1       5.577  33.857  61.242  1.00  0.00     0.016 A 
BRANCH  26  29
HETATM   29  O   UNL     1       4.436  36.203  63.767  1.00  0.00    -0.351 OA
BRANCH  29  30
HETATM   30  C   UNL     1       5.133  37.312  64.337  1.00  0.00     0.175 C 
BRANCH  30  31
HETATM   31  C   UNL     1       5.729  38.128  63.194  1.00  0.00     0.022 C 
HETATM   32  C   UNL     1       4.656  38.677  62.272  1.00  0.00     0.007 C 
ENDBRANCH  30  31
ENDBRANCH  29  30
ENDBRANCH  26  29
ENDBRANCH   1  23
TORSDOF 9
ENDMDL
MODEL 9
REMARK VINA RESULT:      -7.9      9.823     15.024
REMARK  9 active torsions:
REMARK  status: ('A' for Active; 'I' for Inactive)
REMARK    1  A    between atoms: C_2  and  C_3 
REMARK    2  A    between atoms: C_3  and  O_4 
REMARK    3  A    between atoms: O_4  and  C_5 
REMARK    4  A    between atoms: C_8  and  C_9 
REMARK    5  A    between atoms: C_13  and  C_14 
REMARK       I    between atoms: C_14  and  N_15 
REMARK    6  A    between atoms: N_15  and  N_16 
REMARK    7  A    between atoms: C_17  and  C_18 
REMARK    8  A    between atoms: C_21  and  C_22 
REMARK    9  A    between atoms: C_22  and  O_23 
ROOT
HETATM    1  C   UNL     1       5.798  25.880  52.493  1.00  0.00     0.089 A 
HETATM    2  N   UNL     1       4.866  26.693  53.013  1.00  0.00    -0.174 NA
HETATM    3  N   UNL     1       4.265  27.244  51.949  1.00  0.00    -0.272 N 
HETATM    4  H   UNL     1       3.507  27.905  52.095  1.00  0.00     0.189 HD
HETATM    5  C   UNL     1       4.741  26.804  50.745  1.00  0.00     0.121 A 
HETATM    6  C   UNL     1       5.763  25.935  51.071  1.00  0.00     0.071 A 
ENDROOT
BRANCH   5   7
HETATM    7  C   UNL     1       4.152  27.244  49.504  1.00  0.00     0.289 C 
HETATM    8  N   UNL     1       2.857  27.728  49.620  1.00  0.00    -0.242 N 
HETATM    9  H   UNL     1       2.400  27.752  50.522  1.00  0.00     0.192 HD
HETATM   10  O   UNL     1       4.783  27.199  48.451  1.00  0.00    -0.264 OA
BRANCH   8  11
HETATM   11  N   UNL     1       2.243  28.312  48.549  1.00  0.00    -0.184 NA
HETATM   12  C   UNL     1       1.289  27.627  48.008  1.00  0.00     0.150 C 
BRANCH  12  13
HETATM   13  C   UNL     1       0.500  28.156  46.878  1.00  0.00    -0.017 A 
HETATM   14  C   UNL     1       0.185  29.515  46.800  1.00  0.00     0.014 A 
HETATM   15  C   UNL     1      -0.596  29.989  45.742  1.00  0.00     0.018 A 
HETATM   16  C   UNL     1      -1.066  29.108  44.757  1.00  0.00     0.039 A 
HETATM   17  C   UNL     1      -0.736  27.747  44.839  1.00  0.00     0.018 A 
HETATM   18  C   UNL     1       0.044  27.271  45.898  1.00  0.00     0.014 A 
BRANCH  16  19
HETATM   19  C   UNL     1      -1.908  29.663  43.662  1.00  0.00     0.292 C 
HETATM   20  O   UNL     1      -2.640  30.631  43.798  1.00  0.00    -0.259 OA
BRANCH  19  21
HETATM   21  O   UNL     1      -1.752  28.939  42.525  1.00  0.00    -0.323 OA
HETATM   22  C   UNL     1      -1.049  29.630  41.491  1.00  0.00     0.213 C 
ENDBRANCH  19  21
ENDBRANCH  16  19
ENDBRANCH  12  13
ENDBRANCH   8  11
ENDBRANCH   5   7
BRANCH   1  23
HETATM   23  C   UNL     1       6.660  25.052  53.340  1.00  0.00    -0.005 A 
HETATM   24  C   UNL     1       6.566  25.130  54.736  1.00  0.00     0.016 A 
HETATM   25  C   UNL     1       7.342  24.305  55.559  1.00  0.00     0.037 A 
HETATM   26  C   UNL     1       8.228  23.389  54.994  1.00  0.00     0.068 A 
HETATM   27  C   UNL     1       8.351  23.329  53.604  1.00  0.00     0.037 A 
HETATM   28  C   UNL     1       7.572  24.148  52.782  1.00  0.00     0.016 A 
BRANCH  26  29
HETATM   29  O   UNL     1       9.026  22.517  55.680  1.00  0.00    -0.351 OA
BRANCH  29  30
HETATM   30  C   UNL     1       8.403  21.751  56.711  1.00  0.00     0.175 C 
BRANCH  30  31
HETATM   31  C   UNL     1       7.765  20.526  56.064  1.00  0.00     0.022 C 
HETATM   32  C   UNL     1       8.675  19.899  55.022  1.00  0.00     0.007 C 
ENDBRANCH  30  31
ENDBRANCH  29  30
ENDBRANCH  26  29
ENDBRANCH   1  23
TORSDOF 9
ENDMDL
MODEL 10
REMARK VINA RESULT:      -7.8      3.032     12.694
REMARK  9 active torsions:
REMARK  status: ('A' for Active; 'I' for Inactive)
REMARK    1  A    between atoms: C_2  and  C_3 
REMARK    2  A    between atoms: C_3  and  O_4 
REMARK    3  A    between atoms: O_4  and  C_5 
REMARK    4  A    between atoms: C_8  and  C_9 
REMARK    5  A    between atoms: C_13  and  C_14 
REMARK       I    between atoms: C_14  and  N_15 
REMARK    6  A    between atoms: N_15  and  N_16 
REMARK    7  A    between atoms: C_17  and  C_18 
REMARK    8  A    between atoms: C_21  and  C_22 
REMARK    9  A    between atoms: C_22  and  O_23 
ROOT
HETATM    1  C   UNL     1       4.613  32.419  59.591  1.00  0.00     0.089 A 
HETATM    2  N   UNL     1       3.351  32.005  59.402  1.00  0.00    -0.174 NA
HETATM    3  N   UNL     1       3.450  31.015  58.503  1.00  0.00    -0.272 N 
HETATM    4  H   UNL     1       2.607  30.535  58.200  1.00  0.00     0.189 HD
HETATM    5  C   UNL     1       4.731  30.735  58.115  1.00  0.00     0.121 A 
HETATM    6  C   UNL     1       5.508  31.658  58.787  1.00  0.00     0.071 A 
ENDROOT
BRANCH   5   7
HETATM    7  C   UNL     1       5.015  29.649  57.209  1.00  0.00     0.289 C 
HETATM    8  N   UNL     1       5.930  28.724  57.688  1.00  0.00    -0.242 N 
HETATM    9  H   UNL     1       6.341  28.839  58.605  1.00  0.00     0.192 HD
HETATM   10  O   UNL     1       4.457  29.571  56.118  1.00  0.00    -0.264 OA
BRANCH   8  11
HETATM   11  N   UNL     1       6.172  27.574  56.992  1.00  0.00    -0.184 NA
HETATM   12  C   UNL     1       7.241  26.928  57.330  1.00  0.00     0.150 C 
BRANCH  12  13
HETATM   13  C   UNL     1       7.599  25.641  56.703  1.00  0.00    -0.017 A 
HETATM   14  C   UNL     1       8.660  24.876  57.195  1.00  0.00     0.014 A 
HETATM   15  C   UNL     1       9.007  23.679  56.564  1.00  0.00     0.018 A 
HETATM   16  C   UNL     1       8.297  23.239  55.437  1.00  0.00     0.039 A 
HETATM   17  C   UNL     1       7.227  24.009  54.956  1.00  0.00     0.018 A 
HETATM   18  C   UNL     1       6.879  25.208  55.587  1.00  0.00     0.014 A 
BRANCH  16  19
HETATM   19  C   UNL     1       8.720  21.966  54.791  1.00  0.00     0.292 C 
HETATM   20  O   UNL     1       9.310  21.074  55.381  1.00  0.00    -0.259 OA
BRANCH  19  21
HETATM   21  O   UNL     1       8.369  21.955  53.481  1.00  0.00    -0.323 OA
HETATM   22  C   UNL     1       8.030  20.659  52.983  1.00  0.00     0.213 C 
ENDBRANCH  19  21
ENDBRANCH  16  19
ENDBRANCH  12  13
ENDBRANCH   8  11
ENDBRANCH   5   7
BRANCH   1  23
HETATM   23  C   UNL     1       4.943  33.482  60.544  1.00  0.00    -0.005 A 
HETATM   24  C   UNL     1       4.203  34.672  60.561  1.00  0.00     0.016 A 
HETATM   25  C   UNL     1       4.469  35.673  61.503  1.00  0.00     0.037 A 
HETATM   26  C   UNL     1       5.484  35.498  62.442  1.00  0.00     0.068 A 
HETATM   27  C   UNL     1       6.247  34.329  62.409  1.00  0.00     0.037 A 
HETATM   28  C   UNL     1       5.979  33.326  61.473  1.00  0.00     0.016 A 
BRANCH  26  29
HETATM   29  O   UNL     1       5.833  36.385  63.422  1.00  0.00    -0.351 OA
BRANCH  29  30
HETATM   30  C   UNL     1       4.769  36.928  64.204  1.00  0.00     0.175 C 
BRANCH  30  31
HETATM   31  C   UNL     1       4.273  35.834  65.144  1.00  0.00     0.022 C 
HETATM   32  C   UNL     1       4.390  36.244  66.600  1.00  0.00     0.007 C 
ENDBRANCH  30  31
ENDBRANCH  29  30
ENDBRANCH  26  29
ENDBRANCH   1  23
TORSDOF 9
ENDMDL
