MODEL 1
REMARK VINA RESULT:     -10.4      0.000      0.000
REMARK  8 active torsions:
REMARK  status: ('A' for Active; 'I' for Inactive)
REMARK    1  A    between atoms: C_6  and  N_7 
REMARK       I    between atoms: N_7  and  C_8 
REMARK    2  A    between atoms: C_8  and  C_9 
REMARK    3  A    between atoms: C_9  and  N_10 
REMARK       I    between atoms: N_10  and  C_11 
REMARK    4  A    between atoms: C_11  and  C_12 
REMARK    5  A    between atoms: C_12  and  S_13 
REMARK    6  A    between atoms: S_13  and  C_14 
REMARK    7  A    between atoms: C_16  and  C_17 
REMARK    8  A    between atoms: C_20  and  O_21 
ROOT
HETATM    1  N   UNL     1       7.323  28.277  56.258  1.00  0.00    -0.352 N 
HETATM    2  C   UNL     1       6.929  29.008  57.350  1.00  0.00     0.227 C 
HETATM    3  O   UNL     1       5.808  29.512  57.420  1.00  0.00    -0.273 OA
HETATM    4  H   UNL     1       8.220  27.795  56.302  1.00  0.00     0.162 HD
ENDROOT
BRANCH   2   5
HETATM    5  C   UNL     1       7.981  29.188  58.435  1.00  0.00     0.185 C 
BRANCH   5   6
HETATM    6  S   UNL     1       8.413  30.937  58.704  1.00  0.00    -0.081 SA
BRANCH   6   7
HETATM    7  C   UNL     1       8.143  31.099  60.394  1.00  0.00     0.185 A 
HETATM    8  N   UNL     1       7.380  31.976  60.993  1.00  0.00    -0.201 NA
HETATM    9  C   UNL     1       7.573  31.706  62.335  1.00  0.00     0.182 A 
HETATM   10  N   UNL     1       8.419  30.685  62.564  1.00  0.00    -0.152 NA
HETATM   11  N   UNL     1       8.771  30.326  61.316  1.00  0.00    -0.253 N 
HETATM   12  H   UNL     1       9.432  29.572  61.170  1.00  0.00     0.191 HD
BRANCH   9  13
HETATM   13  C   UNL     1       6.928  32.506  63.372  1.00  0.00     0.014 A 
HETATM   14  C   UNL     1       7.701  33.128  64.362  1.00  0.00     0.018 A 
HETATM   15  C   UNL     1       7.094  33.870  65.379  1.00  0.00     0.037 A 
HETATM   16  C   UNL     1       5.706  34.008  65.426  1.00  0.00     0.068 A 
HETATM   17  C   UNL     1       4.928  33.402  64.439  1.00  0.00     0.037 A 
HETATM   18  C   UNL     1       5.536  32.656  63.419  1.00  0.00     0.018 A 
BRANCH  16  19
HETATM   19  O   UNL     1       5.246  34.753  66.475  1.00  0.00    -0.356 OA
HETATM   20  C   UNL     1       4.640  34.047  67.551  1.00  0.00     0.210 C 
ENDBRANCH  16  19
ENDBRANCH   9  13
ENDBRANCH   6   7
ENDBRANCH   5   6
ENDBRANCH   2   5
BRANCH   1  21
HETATM   21  C   UNL     1       6.474  28.015  55.114  1.00  0.00     0.225 C 
BRANCH  21  22
HETATM   22  C   UNL     1       6.382  26.525  54.756  1.00  0.00     0.239 C 
HETATM   23  N   UNL     1       7.620  25.967  54.471  1.00  0.00    -0.325 N 
HETATM   24  H   UNL     1       8.413  26.547  54.745  1.00  0.00     0.169 HD
HETATM   25  O   UNL     1       5.318  25.918  54.855  1.00  0.00    -0.271 OA
BRANCH  23  26
HETATM   26  C   UNL     1       7.864  24.584  54.329  1.00  0.00     0.046 A 
HETATM   27  C   UNL     1       8.138  23.746  55.428  1.00  0.00    -0.034 A 
HETATM   28  C   UNL     1       8.402  22.382  55.200  1.00  0.00     0.015 A 
HETATM   29  C   UNL     1       8.117  24.212  56.859  1.00  0.00     0.050 C 
HETATM   30  C   UNL     1       8.359  21.835  53.916  1.00  0.00    -0.061 A 
HETATM   31  C   UNL     1       8.616  20.376  53.688  1.00  0.00     0.048 C 
HETATM   32  C   UNL     1       8.023  22.663  52.842  1.00  0.00     0.015 A 
HETATM   33  C   UNL     1       7.775  24.033  53.031  1.00  0.00    -0.034 A 
HETATM   34  C   UNL     1       7.466  24.876  51.823  1.00  0.00     0.050 C 
ENDBRANCH  23  26
ENDBRANCH  21  22
ENDBRANCH   1  21
TORSDOF 8
ENDMDL
MODEL 2
REMARK VINA RESULT:     -10.3      1.690      2.719
REMARK  8 active torsions:
REMARK  status: ('A' for Active; 'I' for Inactive)
REMARK    1  A    between atoms: C_6  and  N_7 
REMARK       I    between atoms: N_7  and  C_8 
REMARK    2  A    between atoms: C_8  and  C_9 
REMARK    3  A    between atoms: C_9  and  N_10 
REMARK       I    between atoms: N_10  and  C_11 
REMARK    4  A    between atoms: C_11  and  C_12 
REMARK    5  A    between atoms: C_12  and  S_13 
REMARK    6  A    between atoms: S_13  and  C_14 
REMARK    7  A    between atoms: C_16  and  C_17 
REMARK    8  A    between atoms: C_20  and  O_21 
ROOT
HETATM    1  N   UNL     1       7.332  27.679  56.823  1.00  0.00    -0.352 N 
HETATM    2  C   UNL     1       7.345  28.638  55.843  1.00  0.00     0.227 C 
HETATM    3  O   UNL     1       6.421  28.752  55.037  1.00  0.00    -0.273 OA
HETATM    4  H   UNL     1       8.069  27.701  57.526  1.00  0.00     0.162 HD
ENDROOT
BRANCH   2   5
HETATM    5  C   UNL     1       8.591  29.511  55.795  1.00  0.00     0.185 C 
BRANCH   5   6
HETATM    6  S   UNL     1       9.807  29.062  57.074  1.00  0.00    -0.081 SA
BRANCH   6   7
HETATM    7  C   UNL     1       9.567  30.313  58.227  1.00  0.00     0.185 A 
HETATM    8  N   UNL     1       8.760  30.298  59.256  1.00  0.00    -0.201 NA
HETATM    9  C   UNL     1       8.910  31.559  59.800  1.00  0.00     0.182 A 
HETATM   10  N   UNL     1       9.790  32.332  59.139  1.00  0.00    -0.152 NA
HETATM   11  N   UNL     1      10.184  31.519  58.142  1.00  0.00    -0.253 N 
HETATM   12  H   UNL     1      10.851  31.846  57.453  1.00  0.00     0.191 HD
BRANCH   9  13
HETATM   13  C   UNL     1       8.133  31.982  60.963  1.00  0.00     0.014 A 
HETATM   14  C   UNL     1       8.701  31.933  62.243  1.00  0.00     0.018 A 
HETATM   15  C   UNL     1       7.959  32.305  63.367  1.00  0.00     0.037 A 
HETATM   16  C   UNL     1       6.638  32.734  63.235  1.00  0.00     0.068 A 
HETATM   17  C   UNL     1       6.066  32.797  61.964  1.00  0.00     0.037 A 
HETATM   18  C   UNL     1       6.810  32.423  60.836  1.00  0.00     0.018 A 
BRANCH  16  19
HETATM   19  O   UNL     1       6.027  33.060  64.414  1.00  0.00    -0.356 OA
HETATM   20  C   UNL     1       6.804  33.774  65.367  1.00  0.00     0.210 C 
ENDBRANCH  16  19
ENDBRANCH   9  13
ENDBRANCH   6   7
ENDBRANCH   5   6
ENDBRANCH   2   5
BRANCH   1  21
HETATM   21  C   UNL     1       6.247  26.738  57.016  1.00  0.00     0.225 C 
BRANCH  21  22
HETATM   22  C   UNL     1       6.214  25.625  55.960  1.00  0.00     0.239 C 
HETATM   23  N   UNL     1       7.478  25.141  55.655  1.00  0.00    -0.325 N 
HETATM   24  H   UNL     1       8.204  25.427  56.311  1.00  0.00     0.169 HD
HETATM   25  O   UNL     1       5.146  25.165  55.561  1.00  0.00    -0.271 OA
BRANCH  23  26
HETATM   26  C   UNL     1       7.732  23.981  54.892  1.00  0.00     0.046 A 
HETATM   27  C   UNL     1       7.679  23.972  53.485  1.00  0.00    -0.034 A 
HETATM   28  C   UNL     1       7.914  22.766  52.798  1.00  0.00     0.015 A 
HETATM   29  C   UNL     1       7.429  25.200  52.650  1.00  0.00     0.050 C 
HETATM   30  C   UNL     1       8.240  21.590  53.478  1.00  0.00    -0.061 A 
HETATM   31  C   UNL     1       8.515  20.318  52.734  1.00  0.00     0.048 C 
HETATM   32  C   UNL     1       8.354  21.626  54.870  1.00  0.00     0.015 A 
HETATM   33  C   UNL     1       8.104  22.808  55.588  1.00  0.00    -0.034 A 
HETATM   34  C   UNL     1       8.198  22.764  57.090  1.00  0.00     0.050 C 
ENDBRANCH  23  26
ENDBRANCH  21  22
ENDBRANCH   1  21
TORSDOF 8
ENDMDL
MODEL 3
REMARK VINA RESULT:     -10.3      2.540     11.738
REMARK  8 active torsions:
REMARK  status: ('A' for Active; 'I' for Inactive)
REMARK    1  A    between atoms: C_6  and  N_7 
REMARK       I    between atoms: N_7  and  C_8 
REMARK    2  A    between atoms: C_8  and  C_9 
REMARK    3  A    between atoms: C_9  and  N_10 
REMARK       I    between atoms: N_10  and  C_11 
REMARK    4  A    between atoms: C_11  and  C_12 
REMARK    5  A    between atoms: C_12  and  S_13 
REMARK    6  A    between atoms: S_13  and  C_14 
REMARK    7  A    between atoms: C_16  and  C_17 
REMARK    8  A    between atoms: C_20  and  O_21 
ROOT
HETATM    1  N   UNL     1       6.920  29.692  57.913  1.00  0.00    -0.352 N 
HETATM    2  C   UNL     1       6.488  29.274  56.681  1.00  0.00     0.227 C 
HETATM    3  O   UNL     1       7.180  29.411  55.671  1.00  0.00    -0.273 OA
HETATM    4  H   UNL     1       6.353  29.456  58.726  1.00  0.00     0.162 HD
ENDROOT
BRANCH   2   5
HETATM    5  C   UNL     1       5.088  28.677  56.643  1.00  0.00     0.185 C 
BRANCH   5   6
HETATM    6  S   UNL     1       4.360  28.711  54.974  1.00  0.00    -0.081 SA
BRANCH   6   7
HETATM    7  C   UNL     1       4.775  27.150  54.389  1.00  0.00     0.185 A 
HETATM    8  N   UNL     1       5.689  26.343  54.863  1.00  0.00    -0.201 NA
HETATM    9  C   UNL     1       5.650  25.268  53.995  1.00  0.00     0.182 A 
HETATM   10  N   UNL     1       4.734  25.396  53.019  1.00  0.00    -0.152 NA
HETATM   11  N   UNL     1       4.201  26.601  53.288  1.00  0.00    -0.253 N 
HETATM   12  H   UNL     1       3.476  26.982  52.692  1.00  0.00     0.191 HD
BRANCH   9  13
HETATM   13  C   UNL     1       6.566  24.140  54.141  1.00  0.00     0.014 A 
HETATM   14  C   UNL     1       6.897  23.665  55.417  1.00  0.00     0.018 A 
HETATM   15  C   UNL     1       7.797  22.607  55.573  1.00  0.00     0.037 A 
HETATM   16  C   UNL     1       8.381  22.003  54.459  1.00  0.00     0.068 A 
HETATM   17  C   UNL     1       8.050  22.461  53.184  1.00  0.00     0.037 A 
HETATM   18  C   UNL     1       7.149  23.524  53.027  1.00  0.00     0.018 A 
BRANCH  16  19
HETATM   19  O   UNL     1       9.246  20.986  54.755  1.00  0.00    -0.356 OA
HETATM   20  C   UNL     1       9.181  20.444  56.068  1.00  0.00     0.210 C 
ENDBRANCH  16  19
ENDBRANCH   9  13
ENDBRANCH   6   7
ENDBRANCH   5   6
ENDBRANCH   2   5
BRANCH   1  21
HETATM   21  C   UNL     1       8.212  30.305  58.149  1.00  0.00     0.225 C 
BRANCH  21  22
HETATM   22  C   UNL     1       8.165  31.437  59.184  1.00  0.00     0.239 C 
HETATM   23  N   UNL     1       7.287  31.173  60.225  1.00  0.00    -0.325 N 
HETATM   24  H   UNL     1       6.973  30.203  60.271  1.00  0.00     0.169 HD
HETATM   25  O   UNL     1       8.940  32.389  59.113  1.00  0.00    -0.271 OA
BRANCH  23  26
HETATM   26  C   UNL     1       7.204  31.924  61.418  1.00  0.00     0.046 A 
HETATM   27  C   UNL     1       6.278  32.972  61.590  1.00  0.00    -0.034 A 
HETATM   28  C   UNL     1       6.280  33.694  62.799  1.00  0.00     0.015 A 
HETATM   29  C   UNL     1       5.238  33.344  60.568  1.00  0.00     0.050 C 
HETATM   30  C   UNL     1       7.148  33.369  63.843  1.00  0.00    -0.061 A 
HETATM   31  C   UNL     1       7.121  34.128  65.135  1.00  0.00     0.048 C 
HETATM   32  C   UNL     1       8.016  32.286  63.685  1.00  0.00     0.015 A 
HETATM   33  C   UNL     1       8.057  31.558  62.484  1.00  0.00    -0.034 A 
HETATM   34  C   UNL     1       9.051  30.433  62.363  1.00  0.00     0.050 C 
ENDBRANCH  23  26
ENDBRANCH  21  22
ENDBRANCH   1  21
TORSDOF 8
ENDMDL
MODEL 4
REMARK VINA RESULT:     -10.3      0.816      1.759
REMARK  8 active torsions:
REMARK  status: ('A' for Active; 'I' for Inactive)
REMARK    1  A    between atoms: C_6  and  N_7 
REMARK       I    between atoms: N_7  and  C_8 
REMARK    2  A    between atoms: C_8  and  C_9 
REMARK    3  A    between atoms: C_9  and  N_10 
REMARK       I    between atoms: N_10  and  C_11 
REMARK    4  A    between atoms: C_11  and  C_12 
REMARK    5  A    between atoms: C_12  and  S_13 
REMARK    6  A    between atoms: S_13  and  C_14 
REMARK    7  A    between atoms: C_16  and  C_17 
REMARK    8  A    between atoms: C_20  and  O_21 
ROOT
HETATM    1  N   UNL     1       6.825  28.609  56.208  1.00  0.00    -0.352 N 
HETATM    2  C   UNL     1       7.964  29.206  56.685  1.00  0.00     0.227 C 
HETATM    3  O   UNL     1       8.852  29.600  55.929  1.00  0.00    -0.273 OA
HETATM    4  H   UNL     1       6.079  28.402  56.871  1.00  0.00     0.162 HD
ENDROOT
BRANCH   2   5
HETATM    5  C   UNL     1       8.071  29.301  58.200  1.00  0.00     0.185 C 
BRANCH   5   6
HETATM    6  S   UNL     1       9.122  30.687  58.739  1.00  0.00    -0.081 SA
BRANCH   6   7
HETATM    7  C   UNL     1       8.643  30.861  60.380  1.00  0.00     0.185 A 
HETATM    8  N   UNL     1       7.833  31.760  60.878  1.00  0.00    -0.201 NA
HETATM    9  C   UNL     1       7.847  31.489  62.233  1.00  0.00     0.182 A 
HETATM   10  N   UNL     1       8.630  30.447  62.568  1.00  0.00    -0.152 NA
HETATM   11  N   UNL     1       9.128  30.075  61.375  1.00  0.00    -0.253 N 
HETATM   12  H   UNL     1       9.783  29.304  61.315  1.00  0.00     0.191 HD
BRANCH   9  13
HETATM   13  C   UNL     1       7.095  32.309  63.179  1.00  0.00     0.014 A 
HETATM   14  C   UNL     1       7.773  33.062  64.148  1.00  0.00     0.018 A 
HETATM   15  C   UNL     1       7.065  33.826  65.080  1.00  0.00     0.037 A 
HETATM   16  C   UNL     1       5.670  33.854  65.063  1.00  0.00     0.068 A 
HETATM   17  C   UNL     1       4.987  33.116  64.096  1.00  0.00     0.037 A 
HETATM   18  C   UNL     1       5.695  32.348  63.162  1.00  0.00     0.018 A 
BRANCH  16  19
HETATM   19  O   UNL     1       5.107  34.635  66.033  1.00  0.00    -0.356 OA
HETATM   20  C   UNL     1       5.485  34.367  67.377  1.00  0.00     0.210 C 
ENDBRANCH  16  19
ENDBRANCH   9  13
ENDBRANCH   6   7
ENDBRANCH   5   6
ENDBRANCH   2   5
BRANCH   1  21
HETATM   21  C   UNL     1       6.549  28.406  54.800  1.00  0.00     0.225 C 
BRANCH  21  22
HETATM   22  C   UNL     1       6.369  26.928  54.426  1.00  0.00     0.239 C 
HETATM   23  N   UNL     1       7.565  26.226  54.431  1.00  0.00    -0.325 N 
HETATM   24  H   UNL     1       8.336  26.718  54.882  1.00  0.00     0.169 HD
HETATM   25  O   UNL     1       5.247  26.449  54.275  1.00  0.00    -0.271 OA
BRANCH  23  26
HETATM   26  C   UNL     1       7.673  24.821  54.343  1.00  0.00     0.046 A 
HETATM   27  C   UNL     1       7.659  24.136  53.113  1.00  0.00    -0.034 A 
HETATM   28  C   UNL     1       7.740  22.730  53.111  1.00  0.00     0.015 A 
HETATM   29  C   UNL     1       7.613  24.822  51.774  1.00  0.00     0.050 C 
HETATM   30  C   UNL     1       7.874  22.005  54.297  1.00  0.00    -0.061 A 
HETATM   31  C   UNL     1       7.987  20.511  54.281  1.00  0.00     0.048 C 
HETATM   32  C   UNL     1       7.952  22.700  55.507  1.00  0.00     0.015 A 
HETATM   33  C   UNL     1       7.852  24.101  55.546  1.00  0.00    -0.034 A 
HETATM   34  C   UNL     1       7.895  24.783  56.888  1.00  0.00     0.050 C 
ENDBRANCH  23  26
ENDBRANCH  21  22
ENDBRANCH   1  21
TORSDOF 8
ENDMDL
MODEL 5
REMARK VINA RESULT:      -9.9      2.539     11.685
REMARK  8 active torsions:
REMARK  status: ('A' for Active; 'I' for Inactive)
REMARK    1  A    between atoms: C_6  and  N_7 
REMARK       I    between atoms: N_7  and  C_8 
REMARK    2  A    between atoms: C_8  and  C_9 
REMARK    3  A    between atoms: C_9  and  N_10 
REMARK       I    between atoms: N_10  and  C_11 
REMARK    4  A    between atoms: C_11  and  C_12 
REMARK    5  A    between atoms: C_12  and  S_13 
REMARK    6  A    between atoms: S_13  and  C_14 
REMARK    7  A    between atoms: C_16  and  C_17 
REMARK    8  A    between atoms: C_20  and  O_21 
ROOT
HETATM    1  N   UNL     1       6.771  30.468  57.266  1.00  0.00    -0.352 N 
HETATM    2  C   UNL     1       6.581  29.897  56.034  1.00  0.00     0.227 C 
HETATM    3  O   UNL     1       7.489  29.309  55.446  1.00  0.00    -0.273 OA
HETATM    4  H   UNL     1       5.958  30.846  57.750  1.00  0.00     0.162 HD
ENDROOT
BRANCH   2   5
HETATM    5  C   UNL     1       5.196  30.083  55.430  1.00  0.00     0.185 C 
BRANCH   5   6
HETATM    6  S   UNL     1       4.035  28.773  55.932  1.00  0.00    -0.081 SA
BRANCH   6   7
HETATM    7  C   UNL     1       4.603  27.440  55.009  1.00  0.00     0.185 A 
HETATM    8  N   UNL     1       5.431  26.504  55.396  1.00  0.00    -0.201 NA
HETATM    9  C   UNL     1       5.595  25.732  54.262  1.00  0.00     0.182 A 
HETATM   10  N   UNL     1       4.884  26.165  53.205  1.00  0.00    -0.152 NA
HETATM   11  N   UNL     1       4.272  27.254  53.706  1.00  0.00    -0.253 N 
HETATM   12  H   UNL     1       3.666  27.813  53.117  1.00  0.00     0.191 HD
BRANCH   9  13
HETATM   13  C   UNL     1       6.498  24.584  54.248  1.00  0.00     0.014 A 
HETATM   14  C   UNL     1       6.802  23.944  53.039  1.00  0.00     0.018 A 
HETATM   15  C   UNL     1       7.639  22.825  53.016  1.00  0.00     0.037 A 
HETATM   16  C   UNL     1       8.191  22.326  54.196  1.00  0.00     0.068 A 
HETATM   17  C   UNL     1       7.904  22.963  55.403  1.00  0.00     0.037 A 
HETATM   18  C   UNL     1       7.063  24.085  55.428  1.00  0.00     0.018 A 
BRANCH  16  19
HETATM   19  O   UNL     1       8.985  21.226  54.030  1.00  0.00    -0.356 OA
HETATM   20  C   UNL     1       8.624  20.321  52.995  1.00  0.00     0.210 C 
ENDBRANCH  16  19
ENDBRANCH   9  13
ENDBRANCH   6   7
ENDBRANCH   5   6
ENDBRANCH   2   5
BRANCH   1  21
HETATM   21  C   UNL     1       8.024  30.419  57.993  1.00  0.00     0.225 C 
BRANCH  21  22
HETATM   22  C   UNL     1       8.116  31.465  59.112  1.00  0.00     0.239 C 
HETATM   23  N   UNL     1       7.252  31.199  60.164  1.00  0.00    -0.325 N 
HETATM   24  H   UNL     1       6.852  30.261  60.149  1.00  0.00     0.169 HD
HETATM   25  O   UNL     1       8.971  32.347  59.082  1.00  0.00    -0.271 OA
BRANCH  23  26
HETATM   26  C   UNL     1       7.278  31.858  61.412  1.00  0.00     0.046 A 
HETATM   27  C   UNL     1       8.179  31.505  62.436  1.00  0.00    -0.034 A 
HETATM   28  C   UNL     1       8.121  32.190  63.665  1.00  0.00     0.015 A 
HETATM   29  C   UNL     1       9.251  30.460  62.283  1.00  0.00     0.050 C 
HETATM   30  C   UNL     1       7.220  33.236  63.876  1.00  0.00    -0.061 A 
HETATM   31  C   UNL     1       7.187  33.976  65.179  1.00  0.00     0.048 C 
HETATM   32  C   UNL     1       6.376  33.620  62.831  1.00  0.00     0.015 A 
HETATM   33  C   UNL     1       6.392  32.943  61.600  1.00  0.00    -0.034 A 
HETATM   34  C   UNL     1       5.422  33.377  60.533  1.00  0.00     0.050 C 
ENDBRANCH  23  26
ENDBRANCH  21  22
ENDBRANCH   1  21
TORSDOF 8
ENDMDL
MODEL 6
REMARK VINA RESULT:      -9.6      1.383      2.385
REMARK  8 active torsions:
REMARK  status: ('A' for Active; 'I' for Inactive)
REMARK    1  A    between atoms: C_6  and  N_7 
REMARK       I    between atoms: N_7  and  C_8 
REMARK    2  A    between atoms: C_8  and  C_9 
REMARK    3  A    between atoms: C_9  and  N_10 
REMARK       I    between atoms: N_10  and  C_11 
REMARK    4  A    between atoms: C_11  and  C_12 
REMARK    5  A    between atoms: C_12  and  S_13 
REMARK    6  A    between atoms: S_13  and  C_14 
REMARK    7  A    between atoms: C_16  and  C_17 
REMARK    8  A    between atoms: C_20  and  O_21 
ROOT
HETATM    1  N   UNL     1       5.809  28.912  55.260  1.00  0.00    -0.352 N 
HETATM    2  C   UNL     1       6.118  29.293  56.541  1.00  0.00     0.227 C 
HETATM    3  O   UNL     1       7.187  28.985  57.068  1.00  0.00    -0.273 OA
HETATM    4  H   UNL     1       4.959  29.285  54.840  1.00  0.00     0.162 HD
ENDROOT
BRANCH   2   5
HETATM    5  C   UNL     1       5.036  30.075  57.272  1.00  0.00     0.185 C 
BRANCH   5   6
HETATM    6  S   UNL     1       5.428  31.849  57.407  1.00  0.00    -0.081 SA
BRANCH   6   7
HETATM    7  C   UNL     1       6.186  31.915  58.948  1.00  0.00     0.185 A 
HETATM    8  N   UNL     1       5.690  32.407  60.054  1.00  0.00    -0.201 NA
HETATM    9  C   UNL     1       6.723  32.266  60.960  1.00  0.00     0.182 A 
HETATM   10  N   UNL     1       7.824  31.694  60.439  1.00  0.00    -0.152 NA
HETATM   11  N   UNL     1       7.457  31.490  59.161  1.00  0.00    -0.253 N 
HETATM   12  H   UNL     1       8.108  31.077  58.504  1.00  0.00     0.191 HD
BRANCH   9  13
HETATM   13  C   UNL     1       6.600  32.745  62.334  1.00  0.00     0.014 A 
HETATM   14  C   UNL     1       5.394  33.302  62.778  1.00  0.00     0.018 A 
HETATM   15  C   UNL     1       5.272  33.794  64.081  1.00  0.00     0.037 A 
HETATM   16  C   UNL     1       6.350  33.736  64.965  1.00  0.00     0.068 A 
HETATM   17  C   UNL     1       7.552  33.173  64.536  1.00  0.00     0.037 A 
HETATM   18  C   UNL     1       7.676  32.681  63.229  1.00  0.00     0.018 A 
BRANCH  16  19
HETATM   19  O   UNL     1       6.097  34.257  66.203  1.00  0.00    -0.356 OA
HETATM   20  C   UNL     1       4.804  34.024  66.748  1.00  0.00     0.210 C 
ENDBRANCH  16  19
ENDBRANCH   9  13
ENDBRANCH   6   7
ENDBRANCH   5   6
ENDBRANCH   2   5
BRANCH   1  21
HETATM   21  C   UNL     1       6.697  28.143  54.412  1.00  0.00     0.225 C 
BRANCH  21  22
HETATM   22  C   UNL     1       6.496  26.627  54.540  1.00  0.00     0.239 C 
HETATM   23  N   UNL     1       7.696  25.935  54.634  1.00  0.00    -0.325 N 
HETATM   24  H   UNL     1       8.505  26.527  54.820  1.00  0.00     0.169 HD
HETATM   25  O   UNL     1       5.372  26.149  54.671  1.00  0.00    -0.271 OA
BRANCH  23  26
HETATM   26  C   UNL     1       7.813  24.572  54.979  1.00  0.00     0.046 A 
HETATM   27  C   UNL     1       7.726  23.538  54.025  1.00  0.00    -0.034 A 
HETATM   28  C   UNL     1       7.822  22.201  54.454  1.00  0.00     0.015 A 
HETATM   29  C   UNL     1       7.585  23.777  52.545  1.00  0.00     0.050 C 
HETATM   30  C   UNL     1       8.041  21.878  55.794  1.00  0.00    -0.061 A 
HETATM   31  C   UNL     1       8.168  20.451  56.235  1.00  0.00     0.048 C 
HETATM   32  C   UNL     1       8.190  22.913  56.721  1.00  0.00     0.015 A 
HETATM   33  C   UNL     1       8.078  24.258  56.331  1.00  0.00    -0.034 A 
HETATM   34  C   UNL     1       8.201  25.321  57.390  1.00  0.00     0.050 C 
ENDBRANCH  23  26
ENDBRANCH  21  22
ENDBRANCH   1  21
TORSDOF 8
ENDMDL
MODEL 7
REMARK VINA RESULT:      -9.4      1.783      2.245
REMARK  8 active torsions:
REMARK  status: ('A' for Active; 'I' for Inactive)
REMARK    1  A    between atoms: C_6  and  N_7 
REMARK       I    between atoms: N_7  and  C_8 
REMARK    2  A    between atoms: C_8  and  C_9 
REMARK    3  A    between atoms: C_9  and  N_10 
REMARK       I    between atoms: N_10  and  C_11 
REMARK    4  A    between atoms: C_11  and  C_12 
REMARK    5  A    between atoms: C_12  and  S_13 
REMARK    6  A    between atoms: S_13  and  C_14 
REMARK    7  A    between atoms: C_16  and  C_17 
REMARK    8  A    between atoms: C_20  and  O_21 
ROOT
HETATM    1  N   UNL     1       6.141  29.667  55.602  1.00  0.00    -0.352 N 
HETATM    2  C   UNL     1       6.313  29.369  56.929  1.00  0.00     0.227 C 
HETATM    3  O   UNL     1       6.132  28.232  57.366  1.00  0.00    -0.273 OA
HETATM    4  H   UNL     1       6.408  30.597  55.281  1.00  0.00     0.162 HD
ENDROOT
BRANCH   2   5
HETATM    5  C   UNL     1       6.692  30.541  57.823  1.00  0.00     0.185 C 
BRANCH   5   6
HETATM    6  S   UNL     1       5.535  31.939  57.668  1.00  0.00    -0.081 SA
BRANCH   6   7
HETATM    7  C   UNL     1       5.146  32.245  59.313  1.00  0.00     0.185 A 
HETATM    8  N   UNL     1       5.970  32.570  60.275  1.00  0.00    -0.201 NA
HETATM    9  C   UNL     1       5.155  32.633  61.389  1.00  0.00     0.182 A 
HETATM   10  N   UNL     1       3.863  32.367  61.128  1.00  0.00    -0.152 NA
HETATM   11  N   UNL     1       3.888  32.116  59.807  1.00  0.00    -0.253 N 
HETATM   12  H   UNL     1       3.037  31.861  59.321  1.00  0.00     0.191 HD
BRANCH   9  13
HETATM   13  C   UNL     1       5.698  32.926  62.713  1.00  0.00     0.014 A 
HETATM   14  C   UNL     1       4.835  33.218  63.777  1.00  0.00     0.018 A 
HETATM   15  C   UNL     1       5.343  33.532  65.041  1.00  0.00     0.037 A 
HETATM   16  C   UNL     1       6.719  33.558  65.267  1.00  0.00     0.068 A 
HETATM   17  C   UNL     1       7.587  33.259  64.217  1.00  0.00     0.037 A 
HETATM   18  C   UNL     1       7.079  32.946  62.948  1.00  0.00     0.018 A 
BRANCH  16  19
HETATM   19  O   UNL     1       7.078  33.886  66.545  1.00  0.00    -0.356 OA
HETATM   20  C   UNL     1       6.078  34.477  67.364  1.00  0.00     0.210 C 
ENDBRANCH  16  19
ENDBRANCH   9  13
ENDBRANCH   6   7
ENDBRANCH   5   6
ENDBRANCH   2   5
BRANCH   1  21
HETATM   21  C   UNL     1       5.758  28.693  54.600  1.00  0.00     0.225 C 
BRANCH  21  22
HETATM   22  C   UNL     1       6.793  27.575  54.415  1.00  0.00     0.239 C 
HETATM   23  N   UNL     1       6.316  26.335  54.815  1.00  0.00    -0.325 N 
HETATM   24  H   UNL     1       5.307  26.303  54.963  1.00  0.00     0.169 HD
HETATM   25  O   UNL     1       7.862  27.792  53.849  1.00  0.00    -0.271 OA
BRANCH  23  26
HETATM   26  C   UNL     1       6.959  25.105  54.558  1.00  0.00     0.046 A 
HETATM   27  C   UNL     1       7.897  24.540  55.445  1.00  0.00    -0.034 A 
HETATM   28  C   UNL     1       8.518  23.325  55.101  1.00  0.00     0.015 A 
HETATM   29  C   UNL     1       8.248  25.137  56.781  1.00  0.00     0.050 C 
HETATM   30  C   UNL     1       8.195  22.647  53.923  1.00  0.00    -0.061 A 
HETATM   31  C   UNL     1       8.844  21.340  53.581  1.00  0.00     0.048 C 
HETATM   32  C   UNL     1       7.217  23.184  53.084  1.00  0.00     0.015 A 
HETATM   33  C   UNL     1       6.593  24.407  53.385  1.00  0.00    -0.034 A 
HETATM   34  C   UNL     1       5.581  24.952  52.412  1.00  0.00     0.050 C 
ENDBRANCH  23  26
ENDBRANCH  21  22
ENDBRANCH   1  21
TORSDOF 8
ENDMDL
MODEL 8
REMARK VINA RESULT:      -9.4      2.290     11.975
REMARK  8 active torsions:
REMARK  status: ('A' for Active; 'I' for Inactive)
REMARK    1  A    between atoms: C_6  and  N_7 
REMARK       I    between atoms: N_7  and  C_8 
REMARK    2  A    between atoms: C_8  and  C_9 
REMARK    3  A    between atoms: C_9  and  N_10 
REMARK       I    between atoms: N_10  and  C_11 
REMARK    4  A    between atoms: C_11  and  C_12 
REMARK    5  A    between atoms: C_12  and  S_13 
REMARK    6  A    between atoms: S_13  and  C_14 
REMARK    7  A    between atoms: C_16  and  C_17 
REMARK    8  A    between atoms: C_20  and  O_21 
ROOT
HETATM    1  N   UNL     1       4.935  31.839  60.217  1.00  0.00    -0.352 N 
HETATM    2  C   UNL     1       4.614  31.828  58.884  1.00  0.00     0.227 C 
HETATM    3  O   UNL     1       3.475  32.080  58.490  1.00  0.00    -0.273 OA
HETATM    4  H   UNL     1       5.915  31.729  60.476  1.00  0.00     0.162 HD
ENDROOT
BRANCH   2   5
HETATM    5  C   UNL     1       5.743  31.440  57.940  1.00  0.00     0.185 C 
BRANCH   5   6
HETATM    6  S   UNL     1       7.329  31.210  58.806  1.00  0.00    -0.081 SA
BRANCH   6   7
HETATM    7  C   UNL     1       7.969  29.841  57.988  1.00  0.00     0.185 A 
HETATM    8  N   UNL     1       7.344  28.729  57.697  1.00  0.00    -0.201 NA
HETATM    9  C   UNL     1       8.325  27.955  57.107  1.00  0.00     0.182 A 
HETATM   10  N   UNL     1       9.519  28.568  57.023  1.00  0.00    -0.152 NA
HETATM   11  N   UNL     1       9.265  29.758  57.597  1.00  0.00    -0.253 N 
HETATM   12  H   UNL     1      10.005  30.444  57.694  1.00  0.00     0.191 HD
BRANCH   9  13
HETATM   13  C   UNL     1       8.053  26.589  56.667  1.00  0.00     0.014 A 
HETATM   14  C   UNL     1       7.386  26.360  55.456  1.00  0.00     0.018 A 
HETATM   15  C   UNL     1       7.091  25.059  55.039  1.00  0.00     0.037 A 
HETATM   16  C   UNL     1       7.457  23.963  55.821  1.00  0.00     0.068 A 
HETATM   17  C   UNL     1       8.130  24.179  57.023  1.00  0.00     0.037 A 
HETATM   18  C   UNL     1       8.425  25.484  57.444  1.00  0.00     0.018 A 
BRANCH  16  19
HETATM   19  O   UNL     1       7.102  22.750  55.299  1.00  0.00    -0.356 OA
HETATM   20  C   UNL     1       7.907  22.242  54.244  1.00  0.00     0.210 C 
ENDBRANCH  16  19
ENDBRANCH   9  13
ENDBRANCH   6   7
ENDBRANCH   5   6
ENDBRANCH   2   5
BRANCH   1  21
HETATM   21  C   UNL     1       3.993  32.159  61.271  1.00  0.00     0.225 C 
BRANCH  21  22
HETATM   22  C   UNL     1       4.621  32.142  62.671  1.00  0.00     0.239 C 
HETATM   23  N   UNL     1       4.987  33.407  63.107  1.00  0.00    -0.325 N 
HETATM   24  H   UNL     1       4.600  34.169  62.551  1.00  0.00     0.169 HD
HETATM   25  O   UNL     1       4.651  31.109  63.336  1.00  0.00    -0.271 OA
BRANCH  23  26
HETATM   26  C   UNL     1       5.379  33.720  64.427  1.00  0.00     0.046 A 
HETATM   27  C   UNL     1       6.695  33.525  64.893  1.00  0.00    -0.034 A 
HETATM   28  C   UNL     1       6.999  33.833  66.232  1.00  0.00     0.015 A 
HETATM   29  C   UNL     1       7.826  33.046  64.023  1.00  0.00     0.050 C 
HETATM   30  C   UNL     1       6.039  34.365  67.095  1.00  0.00    -0.061 A 
HETATM   31  C   UNL     1       6.382  34.714  68.512  1.00  0.00     0.048 C 
HETATM   32  C   UNL     1       4.756  34.616  66.604  1.00  0.00     0.015 A 
HETATM   33  C   UNL     1       4.412  34.299  65.279  1.00  0.00    -0.034 A 
HETATM   34  C   UNL     1       2.997  34.550  64.828  1.00  0.00     0.050 C 
ENDBRANCH  23  26
ENDBRANCH  21  22
ENDBRANCH   1  21
TORSDOF 8
ENDMDL
MODEL 9
REMARK VINA RESULT:      -9.2      2.257      3.672
REMARK  8 active torsions:
REMARK  status: ('A' for Active; 'I' for Inactive)
REMARK    1  A    between atoms: C_6  and  N_7 
REMARK       I    between atoms: N_7  and  C_8 
REMARK    2  A    between atoms: C_8  and  C_9 
REMARK    3  A    between atoms: C_9  and  N_10 
REMARK       I    between atoms: N_10  and  C_11 
REMARK    4  A    between atoms: C_11  and  C_12 
REMARK    5  A    between atoms: C_12  and  S_13 
REMARK    6  A    between atoms: S_13  and  C_14 
REMARK    7  A    between atoms: C_16  and  C_17 
REMARK    8  A    between atoms: C_20  and  O_21 
ROOT
HETATM    1  N   UNL     1       6.345  28.765  57.184  1.00  0.00    -0.352 N 
HETATM    2  C   UNL     1       7.509  28.576  57.883  1.00  0.00     0.227 C 
HETATM    3  O   UNL     1       7.941  27.449  58.127  1.00  0.00    -0.273 OA
HETATM    4  H   UNL     1       6.094  29.717  56.920  1.00  0.00     0.162 HD
ENDROOT
BRANCH   2   5
HETATM    5  C   UNL     1       8.197  29.843  58.371  1.00  0.00     0.185 C 
BRANCH   5   6
HETATM    6  S   UNL     1       7.020  31.191  58.705  1.00  0.00    -0.081 SA
BRANCH   6   7
HETATM    7  C   UNL     1       7.156  31.349  60.410  1.00  0.00     0.185 A 
HETATM    8  N   UNL     1       6.475  32.151  61.188  1.00  0.00    -0.201 NA
HETATM    9  C   UNL     1       7.018  31.922  62.438  1.00  0.00     0.182 A 
HETATM   10  N   UNL     1       7.998  31.000  62.441  1.00  0.00    -0.152 NA
HETATM   11  N   UNL     1       8.069  30.661  61.141  1.00  0.00    -0.253 N 
HETATM   12  H   UNL     1       8.750  29.979  60.830  1.00  0.00     0.191 HD
BRANCH   9  13
HETATM   13  C   UNL     1       6.566  32.666  63.611  1.00  0.00     0.014 A 
HETATM   14  C   UNL     1       5.205  32.957  63.776  1.00  0.00     0.018 A 
HETATM   15  C   UNL     1       4.763  33.696  64.877  1.00  0.00     0.037 A 
HETATM   16  C   UNL     1       5.668  34.155  65.834  1.00  0.00     0.068 A 
HETATM   17  C   UNL     1       7.023  33.861  65.685  1.00  0.00     0.037 A 
HETATM   18  C   UNL     1       7.469  33.122  64.580  1.00  0.00     0.018 A 
BRANCH  16  19
HETATM   19  O   UNL     1       5.102  34.869  66.853  1.00  0.00    -0.356 OA
HETATM   20  C   UNL     1       5.879  35.036  68.032  1.00  0.00     0.210 C 
ENDBRANCH  16  19
ENDBRANCH   9  13
ENDBRANCH   6   7
ENDBRANCH   5   6
ENDBRANCH   2   5
BRANCH   1  21
HETATM   21  C   UNL     1       5.535  27.685  56.658  1.00  0.00     0.225 C 
BRANCH  21  22
HETATM   22  C   UNL     1       5.862  27.337  55.199  1.00  0.00     0.239 C 
HETATM   23  N   UNL     1       4.725  27.159  54.425  1.00  0.00    -0.325 N 
HETATM   24  H   UNL     1       3.866  27.490  54.862  1.00  0.00     0.169 HD
HETATM   25  O   UNL     1       7.022  27.356  54.792  1.00  0.00    -0.271 OA
BRANCH  23  26
HETATM   26  C   UNL     1       4.720  27.052  53.017  1.00  0.00     0.046 A 
HETATM   27  C   UNL     1       5.154  25.892  52.344  1.00  0.00    -0.034 A 
HETATM   28  C   UNL     1       5.148  25.875  50.937  1.00  0.00     0.015 A 
HETATM   29  C   UNL     1       5.586  24.632  53.045  1.00  0.00     0.050 C 
HETATM   30  C   UNL     1       4.683  26.963  50.195  1.00  0.00    -0.061 A 
HETATM   31  C   UNL     1       4.656  26.922  48.697  1.00  0.00     0.048 C 
HETATM   32  C   UNL     1       4.195  28.082  50.874  1.00  0.00     0.015 A 
HETATM   33  C   UNL     1       4.207  28.141  52.278  1.00  0.00    -0.034 A 
HETATM   34  C   UNL     1       3.711  29.397  52.944  1.00  0.00     0.050 C 
ENDBRANCH  23  26
ENDBRANCH  21  22
ENDBRANCH   1  21
TORSDOF 8
ENDMDL
MODEL 10
REMARK VINA RESULT:      -9.1      5.584      9.896
REMARK  8 active torsions:
REMARK  status: ('A' for Active; 'I' for Inactive)
REMARK    1  A    between atoms: C_6  and  N_7 
REMARK       I    between atoms: N_7  and  C_8 
REMARK    2  A    between atoms: C_8  and  C_9 
REMARK    3  A    between atoms: C_9  and  N_10 
REMARK       I    between atoms: N_10  and  C_11 
REMARK    4  A    between atoms: C_11  and  C_12 
REMARK    5  A    between atoms: C_12  and  S_13 
REMARK    6  A    between atoms: S_13  and  C_14 
REMARK    7  A    between atoms: C_16  and  C_17 
REMARK    8  A    between atoms: C_20  and  O_21 
ROOT
HETATM    1  N   UNL     1       4.926  31.003  55.221  1.00  0.00    -0.352 N 
HETATM    2  C   UNL     1       4.380  30.171  56.164  1.00  0.00     0.227 C 
HETATM    3  O   UNL     1       3.161  30.074  56.314  1.00  0.00    -0.273 OA
HETATM    4  H   UNL     1       5.933  30.961  55.070  1.00  0.00     0.162 HD
ENDROOT
BRANCH   2   5
HETATM    5  C   UNL     1       5.377  29.421  57.035  1.00  0.00     0.185 C 
BRANCH   5   6
HETATM    6  S   UNL     1       7.097  29.645  56.479  1.00  0.00    -0.081 SA
BRANCH   6   7
HETATM    7  C   UNL     1       7.284  28.316  55.405  1.00  0.00     0.185 A 
HETATM    8  N   UNL     1       7.204  27.044  55.698  1.00  0.00    -0.201 NA
HETATM    9  C   UNL     1       7.494  26.420  54.500  1.00  0.00     0.182 A 
HETATM   10  N   UNL     1       7.736  27.275  53.490  1.00  0.00    -0.152 NA
HETATM   11  N   UNL     1       7.605  28.469  54.096  1.00  0.00    -0.253 N 
HETATM   12  H   UNL     1       7.752  29.324  53.572  1.00  0.00     0.191 HD
BRANCH   9  13
HETATM   13  C   UNL     1       7.559  24.964  54.397  1.00  0.00     0.014 A 
HETATM   14  C   UNL     1       7.668  24.353  53.141  1.00  0.00     0.018 A 
HETATM   15  C   UNL     1       7.699  22.960  53.026  1.00  0.00     0.037 A 
HETATM   16  C   UNL     1       7.624  22.153  54.161  1.00  0.00     0.068 A 
HETATM   17  C   UNL     1       7.527  22.751  55.417  1.00  0.00     0.037 A 
HETATM   18  C   UNL     1       7.494  24.148  55.533  1.00  0.00     0.018 A 
BRANCH  16  19
HETATM   19  O   UNL     1       7.659  20.810  53.905  1.00  0.00    -0.356 OA
HETATM   20  C   UNL     1       8.478  20.381  52.824  1.00  0.00     0.210 C 
ENDBRANCH  16  19
ENDBRANCH   9  13
ENDBRANCH   6   7
ENDBRANCH   5   6
ENDBRANCH   2   5
BRANCH   1  21
HETATM   21  C   UNL     1       4.143  31.817  54.313  1.00  0.00     0.225 C 
BRANCH  21  22
HETATM   22  C   UNL     1       3.944  31.169  52.936  1.00  0.00     0.239 C 
HETATM   23  N   UNL     1       4.995  30.337  52.580  1.00  0.00    -0.325 N 
HETATM   24  H   UNL     1       5.625  30.107  53.349  1.00  0.00     0.169 HD
HETATM   25  O   UNL     1       2.889  31.308  52.321  1.00  0.00    -0.271 OA
BRANCH  23  26
HETATM   26  C   UNL     1       4.982  29.448  51.484  1.00  0.00     0.046 A 
HETATM   27  C   UNL     1       5.374  29.837  50.188  1.00  0.00    -0.034 A 
HETATM   28  C   UNL     1       5.302  28.900  49.140  1.00  0.00     0.015 A 
HETATM   29  C   UNL     1       5.920  31.200  49.854  1.00  0.00     0.050 C 
HETATM   30  C   UNL     1       4.891  27.584  49.365  1.00  0.00    -0.061 A 
HETATM   31  C   UNL     1       4.844  26.587  48.246  1.00  0.00     0.048 C 
HETATM   32  C   UNL     1       4.567  27.192  50.666  1.00  0.00     0.015 A 
HETATM   33  C   UNL     1       4.606  28.108  51.731  1.00  0.00    -0.034 A 
HETATM   34  C   UNL     1       4.198  27.630  53.099  1.00  0.00     0.050 C 
ENDBRANCH  23  26
ENDBRANCH  21  22
ENDBRANCH   1  21
TORSDOF 8
ENDMDL
