MODEL 1
REMARK VINA RESULT:      -8.1      0.000      0.000
REMARK  4 active torsions:
REMARK  status: ('A' for Active; 'I' for Inactive)
REMARK    1  A    between atoms: C_4  and  C_5 
REMARK       I    between atoms: C_5  and  N_6 
REMARK    2  A    between atoms: N_6  and  C_7 
REMARK    3  A    between atoms: C_7  and  N_8 
REMARK    4  A    between atoms: N_8  and  C_9 
ROOT
HETATM    1  C   UNL     1       8.312  24.326  56.268  1.00  0.00     0.257 C 
HETATM    2  N   UNL     1       7.416  25.227  55.704  1.00  0.00    -0.299 N 
HETATM    3  O   UNL     1       9.165  24.734  57.054  1.00  0.00    -0.267 OA
HETATM    4  H   UNL     1       7.755  26.158  55.911  1.00  0.00     0.171 HD
ENDROOT
BRANCH   2   5
HETATM    5  C   UNL     1       6.001  25.221  55.713  1.00  0.00     0.180 C 
HETATM    6  S   UNL     1       5.072  25.347  57.093  1.00  0.00    -0.040 SA
BRANCH   5   7
HETATM    7  N   UNL     1       5.560  25.098  54.401  1.00  0.00    -0.318 N 
HETATM    8  H   UNL     1       5.080  24.238  54.166  1.00  0.00     0.170 HD
BRANCH   7   9
HETATM    9  C   UNL     1       5.532  25.944  53.287  1.00  0.00     0.129 A 
HETATM   10  N   UNL     1       5.947  27.193  53.602  1.00  0.00    -0.243 NA
HETATM   11  C   UNL     1       5.943  28.124  52.623  1.00  0.00     0.119 A 
HETATM   12  C   UNL     1       5.542  27.874  51.325  1.00  0.00     0.026 A 
HETATM   13  C   UNL     1       5.112  26.588  51.006  1.00  0.00    -0.057 A 
HETATM   14  C   UNL     1       4.662  26.268  49.612  1.00  0.00     0.048 C 
HETATM   15  C   UNL     1       5.100  25.613  52.012  1.00  0.00     0.057 A 
ENDBRANCH   7   9
ENDBRANCH   5   7
ENDBRANCH   2   5
BRANCH   1  16
HETATM   16  C   UNL     1       8.260  22.890  55.892  1.00  0.00     0.032 A 
HETATM   17  C   UNL     1       8.215  22.476  54.554  1.00  0.00     0.023 A 
HETATM   18  C   UNL     1       8.182  21.110  54.237  1.00  0.00    -0.061 A 
HETATM   19  C   UNL     1       8.152  20.661  52.806  1.00  0.00     0.048 C 
HETATM   20  C   UNL     1       8.235  20.167  55.272  1.00  0.00     0.007 A 
HETATM   21  C   UNL     1       8.301  20.577  56.604  1.00  0.00     0.002 A 
HETATM   22  C   UNL     1       8.316  21.936  56.915  1.00  0.00     0.017 A 
ENDBRANCH   1  16
TORSDOF 4
ENDMDL
MODEL 2
REMARK VINA RESULT:      -8.0      3.461      4.926
REMARK  4 active torsions:
REMARK  status: ('A' for Active; 'I' for Inactive)
REMARK    1  A    between atoms: C_4  and  C_5 
REMARK       I    between atoms: C_5  and  N_6 
REMARK    2  A    between atoms: N_6  and  C_7 
REMARK    3  A    between atoms: C_7  and  N_8 
REMARK    4  A    between atoms: N_8  and  C_9 
ROOT
HETATM    1  C   UNL     1       8.159  24.167  56.709  1.00  0.00     0.257 C 
HETATM    2  N   UNL     1       7.816  25.458  57.093  1.00  0.00    -0.299 N 
HETATM    3  O   UNL     1       8.586  23.380  57.551  1.00  0.00    -0.267 OA
HETATM    4  H   UNL     1       8.169  25.597  58.031  1.00  0.00     0.171 HD
ENDROOT
BRANCH   2   5
HETATM    5  C   UNL     1       6.594  26.154  56.935  1.00  0.00     0.180 C 
HETATM    6  S   UNL     1       5.088  25.444  57.058  1.00  0.00    -0.040 SA
BRANCH   5   7
HETATM    7  N   UNL     1       6.885  27.487  56.674  1.00  0.00    -0.318 N 
HETATM    8  H   UNL     1       6.299  27.949  55.990  1.00  0.00     0.170 HD
BRANCH   7   9
HETATM    9  C   UNL     1       7.773  28.426  57.210  1.00  0.00     0.129 A 
HETATM   10  N   UNL     1       7.160  29.235  58.103  1.00  0.00    -0.243 NA
HETATM   11  C   UNL     1       7.896  30.210  58.680  1.00  0.00     0.119 A 
HETATM   12  C   UNL     1       9.234  30.426  58.408  1.00  0.00     0.026 A 
HETATM   13  C   UNL     1       9.860  29.593  57.485  1.00  0.00    -0.057 A 
HETATM   14  C   UNL     1      11.309  29.791  57.153  1.00  0.00     0.048 C 
HETATM   15  C   UNL     1       9.109  28.583  56.870  1.00  0.00     0.057 A 
ENDBRANCH   7   9
ENDBRANCH   5   7
ENDBRANCH   2   5
BRANCH   1  16
HETATM   16  C   UNL     1       8.045  23.759  55.285  1.00  0.00     0.032 A 
HETATM   17  C   UNL     1       8.049  22.412  54.898  1.00  0.00     0.023 A 
HETATM   18  C   UNL     1       7.924  22.065  53.545  1.00  0.00    -0.061 A 
HETATM   19  C   UNL     1       7.910  20.625  53.126  1.00  0.00     0.048 C 
HETATM   20  C   UNL     1       7.754  23.079  52.592  1.00  0.00     0.007 A 
HETATM   21  C   UNL     1       7.729  24.419  52.979  1.00  0.00     0.002 A 
HETATM   22  C   UNL     1       7.870  24.760  54.323  1.00  0.00     0.017 A 
ENDBRANCH   1  16
TORSDOF 4
ENDMDL
MODEL 3
REMARK VINA RESULT:      -7.9      3.280      4.802
REMARK  4 active torsions:
REMARK  status: ('A' for Active; 'I' for Inactive)
REMARK    1  A    between atoms: C_4  and  C_5 
REMARK       I    between atoms: C_5  and  N_6 
REMARK    2  A    between atoms: N_6  and  C_7 
REMARK    3  A    between atoms: C_7  and  N_8 
REMARK    4  A    between atoms: N_8  and  C_9 
ROOT
HETATM    1  C   UNL     1       7.528  25.030  53.796  1.00  0.00     0.257 C 
HETATM    2  N   UNL     1       6.616  25.706  54.599  1.00  0.00    -0.299 N 
HETATM    3  O   UNL     1       8.101  25.633  52.892  1.00  0.00    -0.267 OA
HETATM    4  H   UNL     1       6.432  26.599  54.158  1.00  0.00     0.171 HD
ENDROOT
BRANCH   2   5
HETATM    5  C   UNL     1       6.584  25.853  56.006  1.00  0.00     0.180 C 
HETATM    6  S   UNL     1       5.324  25.341  56.974  1.00  0.00    -0.040 SA
BRANCH   5   7
HETATM    7  N   UNL     1       7.760  26.477  56.403  1.00  0.00    -0.318 N 
HETATM    8  H   UNL     1       8.620  25.973  56.224  1.00  0.00     0.170 HD
BRANCH   7   9
HETATM    9  C   UNL     1       8.080  27.731  56.936  1.00  0.00     0.129 A 
HETATM   10  N   UNL     1       6.996  28.331  57.477  1.00  0.00    -0.243 NA
HETATM   11  C   UNL     1       7.155  29.564  58.005  1.00  0.00     0.119 A 
HETATM   12  C   UNL     1       8.359  30.244  58.022  1.00  0.00     0.026 A 
HETATM   13  C   UNL     1       9.472  29.623  57.461  1.00  0.00    -0.057 A 
HETATM   14  C   UNL     1      10.798  30.322  57.451  1.00  0.00     0.048 C 
HETATM   15  C   UNL     1       9.321  28.348  56.900  1.00  0.00     0.057 A 
ENDBRANCH   7   9
ENDBRANCH   5   7
ENDBRANCH   2   5
BRANCH   1  16
HETATM   16  C   UNL     1       7.773  23.580  54.010  1.00  0.00     0.032 A 
HETATM   17  C   UNL     1       7.966  23.042  55.289  1.00  0.00     0.023 A 
HETATM   18  C   UNL     1       8.179  21.665  55.452  1.00  0.00    -0.061 A 
HETATM   19  C   UNL     1       8.369  21.081  56.820  1.00  0.00     0.048 C 
HETATM   20  C   UNL     1       8.157  20.832  54.326  1.00  0.00     0.007 A 
HETATM   21  C   UNL     1       7.945  21.364  53.053  1.00  0.00     0.002 A 
HETATM   22  C   UNL     1       7.750  22.735  52.894  1.00  0.00     0.017 A 
ENDBRANCH   1  16
TORSDOF 4
ENDMDL
MODEL 4
REMARK VINA RESULT:      -7.8      3.770      5.244
REMARK  4 active torsions:
REMARK  status: ('A' for Active; 'I' for Inactive)
REMARK    1  A    between atoms: C_4  and  C_5 
REMARK       I    between atoms: C_5  and  N_6 
REMARK    2  A    between atoms: N_6  and  C_7 
REMARK    3  A    between atoms: C_7  and  N_8 
REMARK    4  A    between atoms: N_8  and  C_9 
ROOT
HETATM    1  C   UNL     1       8.403  24.676  56.947  1.00  0.00     0.257 C 
HETATM    2  N   UNL     1       8.001  25.983  57.199  1.00  0.00    -0.299 N 
HETATM    3  O   UNL     1       9.031  24.061  57.805  1.00  0.00    -0.267 OA
HETATM    4  H   UNL     1       8.483  26.290  58.035  1.00  0.00     0.171 HD
ENDROOT
BRANCH   2   5
HETATM    5  C   UNL     1       6.708  26.556  57.157  1.00  0.00     0.180 C 
HETATM    6  S   UNL     1       5.298  25.677  56.997  1.00  0.00    -0.040 SA
BRANCH   5   7
HETATM    7  N   UNL     1       6.841  27.934  57.273  1.00  0.00    -0.318 N 
HETATM    8  H   UNL     1       5.983  28.471  57.268  1.00  0.00     0.170 HD
BRANCH   7   9
HETATM    9  C   UNL     1       7.912  28.806  57.497  1.00  0.00     0.129 A 
HETATM   10  N   UNL     1       8.863  28.679  56.544  1.00  0.00    -0.243 NA
HETATM   11  C   UNL     1       9.971  29.444  56.652  1.00  0.00     0.119 A 
HETATM   12  C   UNL     1      10.186  30.345  57.678  1.00  0.00     0.026 A 
HETATM   13  C   UNL     1       9.206  30.470  58.659  1.00  0.00    -0.057 A 
HETATM   14  C   UNL     1       9.396  31.430  59.795  1.00  0.00     0.048 C 
HETATM   15  C   UNL     1       8.055  29.677  58.567  1.00  0.00     0.057 A 
ENDBRANCH   7   9
ENDBRANCH   5   7
ENDBRANCH   2   5
BRANCH   1  16
HETATM   16  C   UNL     1       8.106  24.047  55.634  1.00  0.00     0.032 A 
HETATM   17  C   UNL     1       8.016  24.800  54.455  1.00  0.00     0.023 A 
HETATM   18  C   UNL     1       7.750  24.168  53.232  1.00  0.00    -0.061 A 
HETATM   19  C   UNL     1       7.670  24.967  51.965  1.00  0.00     0.048 C 
HETATM   20  C   UNL     1       7.616  22.774  53.198  1.00  0.00     0.007 A 
HETATM   21  C   UNL     1       7.725  22.021  54.367  1.00  0.00     0.002 A 
HETATM   22  C   UNL     1       7.974  22.655  55.583  1.00  0.00     0.017 A 
ENDBRANCH   1  16
TORSDOF 4
ENDMDL
MODEL 5
REMARK VINA RESULT:      -7.8      3.426      6.737
REMARK  4 active torsions:
REMARK  status: ('A' for Active; 'I' for Inactive)
REMARK    1  A    between atoms: C_4  and  C_5 
REMARK       I    between atoms: C_5  and  N_6 
REMARK    2  A    between atoms: N_6  and  C_7 
REMARK    3  A    between atoms: C_7  and  N_8 
REMARK    4  A    between atoms: N_8  and  C_9 
ROOT
HETATM    1  C   UNL     1       7.151  27.624  55.147  1.00  0.00     0.257 C 
HETATM    2  N   UNL     1       7.230  26.237  55.158  1.00  0.00    -0.299 N 
HETATM    3  O   UNL     1       6.586  28.190  54.214  1.00  0.00    -0.267 OA
HETATM    4  H   UNL     1       6.946  25.912  54.242  1.00  0.00     0.171 HD
ENDROOT
BRANCH   2   5
HETATM    5  C   UNL     1       6.805  25.314  56.143  1.00  0.00     0.180 C 
HETATM    6  S   UNL     1       5.345  25.406  56.947  1.00  0.00    -0.040 SA
BRANCH   5   7
HETATM    7  N   UNL     1       7.801  24.357  56.298  1.00  0.00    -0.318 N 
HETATM    8  H   UNL     1       8.581  24.612  56.891  1.00  0.00     0.170 HD
BRANCH   7   9
HETATM    9  C   UNL     1       7.963  23.028  55.891  1.00  0.00     0.129 A 
HETATM   10  N   UNL     1       8.339  22.237  56.921  1.00  0.00    -0.243 NA
HETATM   11  C   UNL     1       8.559  20.929  56.664  1.00  0.00     0.119 A 
HETATM   12  C   UNL     1       8.423  20.358  55.413  1.00  0.00     0.026 A 
HETATM   13  C   UNL     1       8.040  21.177  54.355  1.00  0.00    -0.057 A 
HETATM   14  C   UNL     1       7.884  20.605  52.978  1.00  0.00     0.048 C 
HETATM   15  C   UNL     1       7.817  22.538  54.602  1.00  0.00     0.057 A 
ENDBRANCH   7   9
ENDBRANCH   5   7
ENDBRANCH   2   5
BRANCH   1  16
HETATM   16  C   UNL     1       7.780  28.413  56.237  1.00  0.00     0.032 A 
HETATM   17  C   UNL     1       9.139  28.755  56.215  1.00  0.00     0.023 A 
HETATM   18  C   UNL     1       9.694  29.515  57.255  1.00  0.00    -0.061 A 
HETATM   19  C   UNL     1      11.144  29.898  57.228  1.00  0.00     0.048 C 
HETATM   20  C   UNL     1       8.866  29.961  58.293  1.00  0.00     0.007 A 
HETATM   21  C   UNL     1       7.508  29.640  58.305  1.00  0.00     0.002 A 
HETATM   22  C   UNL     1       6.964  28.870  57.278  1.00  0.00     0.017 A 
ENDBRANCH   1  16
TORSDOF 4
ENDMDL
MODEL 6
REMARK VINA RESULT:      -7.7      3.625      4.939
REMARK  4 active torsions:
REMARK  status: ('A' for Active; 'I' for Inactive)
REMARK    1  A    between atoms: C_4  and  C_5 
REMARK       I    between atoms: C_5  and  N_6 
REMARK    2  A    between atoms: N_6  and  C_7 
REMARK    3  A    between atoms: C_7  and  N_8 
REMARK    4  A    between atoms: N_8  and  C_9 
ROOT
HETATM    1  C   UNL     1       5.940  25.585  55.982  1.00  0.00     0.257 C 
HETATM    2  N   UNL     1       6.156  26.932  55.712  1.00  0.00    -0.299 N 
HETATM    3  O   UNL     1       4.893  25.239  56.525  1.00  0.00    -0.267 OA
HETATM    4  H   UNL     1       5.444  27.456  56.205  1.00  0.00     0.171 HD
ENDROOT
BRANCH   2   5
HETATM    5  C   UNL     1       6.457  27.572  54.486  1.00  0.00     0.180 C 
HETATM    6  S   UNL     1       5.897  27.059  52.999  1.00  0.00    -0.040 SA
BRANCH   5   7
HETATM    7  N   UNL     1       7.271  28.665  54.756  1.00  0.00    -0.318 N 
HETATM    8  H   UNL     1       7.353  29.356  54.021  1.00  0.00     0.170 HD
BRANCH   7   9
HETATM    9  C   UNL     1       7.971  29.119  55.879  1.00  0.00     0.129 A 
HETATM   10  N   UNL     1       7.131  29.445  56.888  1.00  0.00    -0.243 NA
HETATM   11  C   UNL     1       7.673  29.927  58.028  1.00  0.00     0.119 A 
HETATM   12  C   UNL     1       9.030  30.106  58.219  1.00  0.00     0.026 A 
HETATM   13  C   UNL     1       9.890  29.773  57.176  1.00  0.00    -0.057 A 
HETATM   14  C   UNL     1      11.370  29.954  57.333  1.00  0.00     0.048 C 
HETATM   15  C   UNL     1       9.344  29.281  55.983  1.00  0.00     0.057 A 
ENDBRANCH   7   9
ENDBRANCH   5   7
ENDBRANCH   2   5
BRANCH   1  16
HETATM   16  C   UNL     1       6.985  24.583  55.650  1.00  0.00     0.032 A 
HETATM   17  C   UNL     1       6.898  23.772  54.510  1.00  0.00     0.023 A 
HETATM   18  C   UNL     1       7.912  22.848  54.221  1.00  0.00    -0.061 A 
HETATM   19  C   UNL     1       7.833  21.990  52.993  1.00  0.00     0.048 C 
HETATM   20  C   UNL     1       9.030  22.775  55.063  1.00  0.00     0.007 A 
HETATM   21  C   UNL     1       9.128  23.596  56.186  1.00  0.00     0.002 A 
HETATM   22  C   UNL     1       8.110  24.501  56.479  1.00  0.00     0.017 A 
ENDBRANCH   1  16
TORSDOF 4
ENDMDL
MODEL 7
REMARK VINA RESULT:      -7.7      3.076      6.266
REMARK  4 active torsions:
REMARK  status: ('A' for Active; 'I' for Inactive)
REMARK    1  A    between atoms: C_4  and  C_5 
REMARK       I    between atoms: C_5  and  N_6 
REMARK    2  A    between atoms: N_6  and  C_7 
REMARK    3  A    between atoms: C_7  and  N_8 
REMARK    4  A    between atoms: N_8  and  C_9 
ROOT
HETATM    1  C   UNL     1       5.416  26.259  56.503  1.00  0.00     0.257 C 
HETATM    2  N   UNL     1       5.056  26.131  55.166  1.00  0.00    -0.299 N 
HETATM    3  O   UNL     1       5.008  25.435  57.319  1.00  0.00    -0.267 OA
HETATM    4  H   UNL     1       4.322  25.436  55.117  1.00  0.00     0.171 HD
ENDROOT
BRANCH   2   5
HETATM    5  C   UNL     1       5.873  26.044  54.014  1.00  0.00     0.180 C 
HETATM    6  S   UNL     1       6.483  27.364  53.195  1.00  0.00    -0.040 SA
BRANCH   5   7
HETATM    7  N   UNL     1       6.061  24.700  53.717  1.00  0.00    -0.318 N 
HETATM    8  H   UNL     1       5.372  24.273  53.109  1.00  0.00     0.170 HD
BRANCH   7   9
HETATM    9  C   UNL     1       7.061  23.760  53.987  1.00  0.00     0.129 A 
HETATM   10  N   UNL     1       7.825  24.138  55.038  1.00  0.00    -0.243 NA
HETATM   11  C   UNL     1       8.851  23.334  55.392  1.00  0.00     0.119 A 
HETATM   12  C   UNL     1       9.163  22.153  54.745  1.00  0.00     0.026 A 
HETATM   13  C   UNL     1       8.376  21.770  53.662  1.00  0.00    -0.057 A 
HETATM   14  C   UNL     1       8.677  20.501  52.924  1.00  0.00     0.048 C 
HETATM   15  C   UNL     1       7.314  22.598  53.274  1.00  0.00     0.057 A 
ENDBRANCH   7   9
ENDBRANCH   5   7
ENDBRANCH   2   5
BRANCH   1  16
HETATM   16  C   UNL     1       6.254  27.404  56.942  1.00  0.00     0.032 A 
HETATM   17  C   UNL     1       5.699  28.652  57.253  1.00  0.00     0.023 A 
HETATM   18  C   UNL     1       6.521  29.705  57.680  1.00  0.00    -0.061 A 
HETATM   19  C   UNL     1       5.930  31.038  58.031  1.00  0.00     0.048 C 
HETATM   20  C   UNL     1       7.896  29.482  57.828  1.00  0.00     0.007 A 
HETATM   21  C   UNL     1       8.448  28.234  57.538  1.00  0.00     0.002 A 
HETATM   22  C   UNL     1       7.629  27.195  57.099  1.00  0.00     0.017 A 
ENDBRANCH   1  16
TORSDOF 4
ENDMDL
MODEL 8
REMARK VINA RESULT:      -7.6      4.279      5.863
REMARK  4 active torsions:
REMARK  status: ('A' for Active; 'I' for Inactive)
REMARK    1  A    between atoms: C_4  and  C_5 
REMARK       I    between atoms: C_5  and  N_6 
REMARK    2  A    between atoms: N_6  and  C_7 
REMARK    3  A    between atoms: C_7  and  N_8 
REMARK    4  A    between atoms: N_8  and  C_9 
ROOT
HETATM    1  C   UNL     1       5.811  26.455  54.791  1.00  0.00     0.257 C 
HETATM    2  N   UNL     1       5.959  26.616  56.164  1.00  0.00    -0.299 N 
HETATM    3  O   UNL     1       4.995  27.147  54.187  1.00  0.00    -0.267 OA
HETATM    4  H   UNL     1       5.189  27.189  56.485  1.00  0.00     0.171 HD
ENDROOT
BRANCH   2   5
HETATM    5  C   UNL     1       7.118  26.908  56.921  1.00  0.00     0.180 C 
HETATM    6  S   UNL     1       8.136  25.750  57.562  1.00  0.00    -0.040 SA
BRANCH   5   7
HETATM    7  N   UNL     1       7.237  28.289  57.016  1.00  0.00    -0.318 N 
HETATM    8  H   UNL     1       6.378  28.820  56.941  1.00  0.00     0.170 HD
BRANCH   7   9
HETATM    9  C   UNL     1       8.286  29.172  57.294  1.00  0.00     0.129 A 
HETATM   10  N   UNL     1       9.277  29.066  56.381  1.00  0.00    -0.243 NA
HETATM   11  C   UNL     1      10.370  29.844  56.543  1.00  0.00     0.119 A 
HETATM   12  C   UNL     1      10.530  30.738  57.586  1.00  0.00     0.026 A 
HETATM   13  C   UNL     1       9.508  30.840  58.526  1.00  0.00    -0.057 A 
HETATM   14  C   UNL     1       9.637  31.791  59.677  1.00  0.00     0.048 C 
HETATM   15  C   UNL     1       8.372  30.033  58.377  1.00  0.00     0.057 A 
ENDBRANCH   7   9
ENDBRANCH   5   7
ENDBRANCH   2   5
BRANCH   1  16
HETATM   16  C   UNL     1       6.608  25.428  54.073  1.00  0.00     0.032 A 
HETATM   17  C   UNL     1       6.782  24.135  54.584  1.00  0.00     0.023 A 
HETATM   18  C   UNL     1       7.528  23.187  53.868  1.00  0.00    -0.061 A 
HETATM   19  C   UNL     1       7.704  21.796  54.402  1.00  0.00     0.048 C 
HETATM   20  C   UNL     1       8.061  23.536  52.620  1.00  0.00     0.007 A 
HETATM   21  C   UNL     1       7.870  24.817  52.100  1.00  0.00     0.002 A 
HETATM   22  C   UNL     1       7.142  25.761  52.822  1.00  0.00     0.017 A 
ENDBRANCH   1  16
TORSDOF 4
ENDMDL
MODEL 9
REMARK VINA RESULT:      -7.5      2.488      3.276
REMARK  4 active torsions:
REMARK  status: ('A' for Active; 'I' for Inactive)
REMARK    1  A    between atoms: C_4  and  C_5 
REMARK       I    between atoms: C_5  and  N_6 
REMARK    2  A    between atoms: N_6  and  C_7 
REMARK    3  A    between atoms: C_7  and  N_8 
REMARK    4  A    between atoms: N_8  and  C_9 
ROOT
HETATM    1  C   UNL     1       7.980  24.664  55.574  1.00  0.00     0.257 C 
HETATM    2  N   UNL     1       7.312  25.443  54.637  1.00  0.00    -0.299 N 
HETATM    3  O   UNL     1       8.564  25.211  56.508  1.00  0.00    -0.267 OA
HETATM    4  H   UNL     1       7.588  26.404  54.791  1.00  0.00     0.171 HD
ENDROOT
BRANCH   2   5
HETATM    5  C   UNL     1       5.960  25.396  54.221  1.00  0.00     0.180 C 
HETATM    6  S   UNL     1       5.442  24.708  52.791  1.00  0.00    -0.040 SA
BRANCH   5   7
HETATM    7  N   UNL     1       5.184  26.006  55.199  1.00  0.00    -0.318 N 
HETATM    8  H   UNL     1       4.555  25.403  55.715  1.00  0.00     0.170 HD
BRANCH   7   9
HETATM    9  C   UNL     1       5.114  27.294  55.741  1.00  0.00     0.129 A 
HETATM   10  N   UNL     1       5.931  27.427  56.810  1.00  0.00    -0.243 NA
HETATM   11  C   UNL     1       5.942  28.616  57.451  1.00  0.00     0.119 A 
HETATM   12  C   UNL     1       5.169  29.699  57.077  1.00  0.00     0.026 A 
HETATM   13  C   UNL     1       4.326  29.556  55.978  1.00  0.00    -0.057 A 
HETATM   14  C   UNL     1       3.464  30.700  55.536  1.00  0.00     0.048 C 
HETATM   15  C   UNL     1       4.295  28.326  55.308  1.00  0.00     0.057 A 
ENDBRANCH   7   9
ENDBRANCH   5   7
ENDBRANCH   2   5
BRANCH   1  16
HETATM   16  C   UNL     1       8.019  23.187  55.423  1.00  0.00     0.032 A 
HETATM   17  C   UNL     1       8.079  22.572  54.165  1.00  0.00     0.023 A 
HETATM   18  C   UNL     1       8.130  21.174  54.063  1.00  0.00    -0.061 A 
HETATM   19  C   UNL     1       8.211  20.512  52.720  1.00  0.00     0.048 C 
HETATM   20  C   UNL     1       8.162  20.404  55.233  1.00  0.00     0.007 A 
HETATM   21  C   UNL     1       8.124  21.016  56.487  1.00  0.00     0.002 A 
HETATM   22  C   UNL     1       8.057  22.404  56.583  1.00  0.00     0.017 A 
ENDBRANCH   1  16
TORSDOF 4
ENDMDL
MODEL 10
REMARK VINA RESULT:      -7.5      4.495      6.136
REMARK  4 active torsions:
REMARK  status: ('A' for Active; 'I' for Inactive)
REMARK    1  A    between atoms: C_4  and  C_5 
REMARK       I    between atoms: C_5  and  N_6 
REMARK    2  A    between atoms: N_6  and  C_7 
REMARK    3  A    between atoms: C_7  and  N_8 
REMARK    4  A    between atoms: N_8  and  C_9 
ROOT
HETATM    1  C   UNL     1       5.677  25.539  56.802  1.00  0.00     0.257 C 
HETATM    2  N   UNL     1       6.463  26.521  57.396  1.00  0.00    -0.299 N 
HETATM    3  O   UNL     1       4.675  25.133  57.386  1.00  0.00    -0.267 OA
HETATM    4  H   UNL     1       6.155  26.613  58.356  1.00  0.00     0.171 HD
ENDROOT
BRANCH   2   5
HETATM    5  C   UNL     1       6.860  27.785  56.898  1.00  0.00     0.180 C 
HETATM    6  S   UNL     1       5.942  28.714  55.859  1.00  0.00    -0.040 SA
BRANCH   5   7
HETATM    7  N   UNL     1       8.109  28.085  57.428  1.00  0.00    -0.318 N 
HETATM    8  H   UNL     1       8.751  27.310  57.534  1.00  0.00     0.170 HD
BRANCH   7   9
HETATM    9  C   UNL     1       8.769  29.265  57.788  1.00  0.00     0.129 A 
HETATM   10  N   UNL     1       9.894  29.445  57.059  1.00  0.00    -0.243 NA
HETATM   11  C   UNL     1      10.648  30.535  57.323  1.00  0.00     0.119 A 
HETATM   12  C   UNL     1      10.336  31.471  58.291  1.00  0.00     0.026 A 
HETATM   13  C   UNL     1       9.178  31.279  59.041  1.00  0.00    -0.057 A 
HETATM   14  C   UNL     1       8.800  32.263  60.107  1.00  0.00     0.048 C 
HETATM   15  C   UNL     1       8.390  30.149  58.788  1.00  0.00     0.057 A 
ENDBRANCH   7   9
ENDBRANCH   5   7
ENDBRANCH   2   5
BRANCH   1  16
HETATM   16  C   UNL     1       6.071  24.962  55.492  1.00  0.00     0.032 A 
HETATM   17  C   UNL     1       5.432  25.328  54.299  1.00  0.00     0.023 A 
HETATM   18  C   UNL     1       5.843  24.774  53.078  1.00  0.00    -0.061 A 
HETATM   19  C   UNL     1       5.174  25.174  51.797  1.00  0.00     0.048 C 
HETATM   20  C   UNL     1       6.924  23.883  53.061  1.00  0.00     0.007 A 
HETATM   21  C   UNL     1       7.575  23.534  54.245  1.00  0.00     0.002 A 
HETATM   22  C   UNL     1       7.153  24.075  55.458  1.00  0.00     0.017 A 
ENDBRANCH   1  16
TORSDOF 4
ENDMDL
