MODEL 1
REMARK VINA RESULT:     -11.2      0.000      0.000
REMARK  4 active torsions:
REMARK  status: ('A' for Active; 'I' for Inactive)
REMARK    1  A    between atoms: C_9  and  C_10 
REMARK    2  A    between atoms: C_10  and  C_11 
REMARK       I    between atoms: C_11  and  N_12 
REMARK    3  A    between atoms: N_12  and  C_13 
REMARK    4  A    between atoms: C_20  and  C_21 
REMARK       I    between atoms: C_21  and  N_22 
ROOT
HETATM    1  C   UNL     1       8.167  28.366  57.273  1.00  0.00     0.035 A 
HETATM    2  C   UNL     1       7.653  29.325  58.156  1.00  0.00     0.046 A 
HETATM    3  C   UNL     1       8.452  30.427  58.528  1.00  0.00     0.030 A 
HETATM    4  C   UNL     1       9.724  30.549  57.983  1.00  0.00     0.063 A 
HETATM    5  N   UNL     1      10.239  31.697  58.516  1.00  0.00    -0.277 N 
HETATM    6  H   UNL     1      11.150  32.101  58.337  1.00  0.00     0.189 HD
HETATM    7  N   UNL     1       9.426  32.322  59.383  1.00  0.00    -0.168 NA
HETATM    8  C   UNL     1       8.318  31.546  59.406  1.00  0.00     0.156 A 
HETATM    9  C   UNL     1      10.263  29.620  57.090  1.00  0.00     0.034 A 
HETATM   10  C   UNL     1       9.462  28.520  56.759  1.00  0.00     0.032 A 
ENDROOT
BRANCH   1  11
HETATM   11  N   UNL     1       7.467  27.199  56.903  1.00  0.00    -0.327 N 
HETATM   12  C   UNL     1       6.722  27.000  55.753  1.00  0.00     0.226 C 
HETATM   13  O   UNL     1       6.695  27.730  54.766  1.00  0.00    -0.273 OA
HETATM   14  H   UNL     1       7.503  26.431  57.561  1.00  0.00     0.169 HD
BRANCH  12  15
HETATM   15  C   UNL     1       5.875  25.736  55.810  1.00  0.00     0.141 C 
BRANCH  15  16
HETATM   16  C   UNL     1       6.535  24.586  55.089  1.00  0.00    -0.049 A 
HETATM   17  C   UNL     1       6.643  24.603  53.694  1.00  0.00     0.008 A 
HETATM   18  C   UNL     1       7.216  23.529  53.012  1.00  0.00     0.013 A 
HETATM   19  C   UNL     1       7.698  22.414  53.710  1.00  0.00    -0.026 A 
HETATM   20  C   UNL     1       8.265  21.321  53.035  1.00  0.00     0.012 A 
HETATM   21  C   UNL     1       7.609  22.389  55.120  1.00  0.00    -0.025 A 
HETATM   22  C   UNL     1       8.741  20.217  53.741  1.00  0.00     0.001 A 
HETATM   23  C   UNL     1       8.658  20.191  55.130  1.00  0.00     0.001 A 
HETATM   24  C   UNL     1       8.096  21.270  55.816  1.00  0.00     0.012 A 
HETATM   25  C   UNL     1       7.030  23.480  55.795  1.00  0.00     0.020 A 
ENDBRANCH  15  16
ENDBRANCH  12  15
ENDBRANCH   1  11
BRANCH   8  26
HETATM   26  C   UNL     1       7.175  31.875  60.270  1.00  0.00     0.270 C 
HETATM   27  N   UNL     1       7.154  31.186  61.451  1.00  0.00    -0.365 N 
HETATM   28  H   UNL     1       7.885  30.508  61.630  1.00  0.00     0.159 HD
HETATM   29  H   UNL     1       6.389  31.321  62.092  1.00  0.00     0.159 HD
HETATM   30  O   UNL     1       6.293  32.678  59.989  1.00  0.00    -0.266 OA
ENDBRANCH   8  26
TORSDOF 4
ENDMDL
MODEL 2
REMARK VINA RESULT:     -10.4      4.422     10.149
REMARK  4 active torsions:
REMARK  status: ('A' for Active; 'I' for Inactive)
REMARK    1  A    between atoms: C_9  and  C_10 
REMARK    2  A    between atoms: C_10  and  C_11 
REMARK       I    between atoms: C_11  and  N_12 
REMARK    3  A    between atoms: N_12  and  C_13 
REMARK    4  A    between atoms: C_20  and  C_21 
REMARK       I    between atoms: C_21  and  N_22 
ROOT
HETATM    1  C   UNL     1       8.442  29.819  58.488  1.00  0.00     0.035 A 
HETATM    2  C   UNL     1       7.244  29.356  57.929  1.00  0.00     0.046 A 
HETATM    3  C   UNL     1       7.215  28.963  56.574  1.00  0.00     0.030 A 
HETATM    4  C   UNL     1       8.389  29.018  55.833  1.00  0.00     0.063 A 
HETATM    5  N   UNL     1       8.052  28.575  54.585  1.00  0.00    -0.277 N 
HETATM    6  H   UNL     1       8.663  28.477  53.784  1.00  0.00     0.189 HD
HETATM    7  N   UNL     1       6.755  28.263  54.437  1.00  0.00    -0.168 NA
HETATM    8  C   UNL     1       6.221  28.502  55.657  1.00  0.00     0.156 A 
HETATM    9  C   UNL     1       9.603  29.460  56.362  1.00  0.00     0.034 A 
HETATM   10  C   UNL     1       9.600  29.873  57.700  1.00  0.00     0.032 A 
ENDROOT
BRANCH   1  11
HETATM   11  N   UNL     1       8.546  30.298  59.811  1.00  0.00    -0.327 N 
HETATM   12  C   UNL     1       8.793  31.600  60.211  1.00  0.00     0.226 C 
HETATM   13  O   UNL     1       8.776  32.599  59.495  1.00  0.00    -0.273 OA
HETATM   14  H   UNL     1       8.442  29.608  60.543  1.00  0.00     0.169 HD
BRANCH  12  15
HETATM   15  C   UNL     1       9.121  31.711  61.693  1.00  0.00     0.141 C 
BRANCH  15  16
HETATM   16  C   UNL     1       7.919  32.134  62.503  1.00  0.00    -0.049 A 
HETATM   17  C   UNL     1       6.629  31.924  62.004  1.00  0.00     0.008 A 
HETATM   18  C   UNL     1       5.510  32.347  62.723  1.00  0.00     0.013 A 
HETATM   19  C   UNL     1       5.656  32.985  63.963  1.00  0.00    -0.026 A 
HETATM   20  C   UNL     1       4.541  33.425  64.691  1.00  0.00     0.012 A 
HETATM   21  C   UNL     1       6.953  33.190  64.486  1.00  0.00    -0.025 A 
HETATM   22  C   UNL     1       4.699  34.060  65.923  1.00  0.00     0.001 A 
HETATM   23  C   UNL     1       5.974  34.260  66.442  1.00  0.00     0.001 A 
HETATM   24  C   UNL     1       7.094  33.828  65.730  1.00  0.00     0.012 A 
HETATM   25  C   UNL     1       8.072  32.758  63.750  1.00  0.00     0.020 A 
ENDBRANCH  15  16
ENDBRANCH  12  15
ENDBRANCH   1  11
BRANCH   8  26
HETATM   26  C   UNL     1       4.787  28.307  55.913  1.00  0.00     0.270 C 
HETATM   27  N   UNL     1       4.502  27.215  56.686  1.00  0.00    -0.365 N 
HETATM   28  H   UNL     1       5.268  26.629  56.997  1.00  0.00     0.159 HD
HETATM   29  H   UNL     1       3.543  26.983  56.885  1.00  0.00     0.159 HD
HETATM   30  O   UNL     1       3.894  29.026  55.479  1.00  0.00    -0.266 OA
ENDBRANCH   8  26
TORSDOF 4
ENDMDL
MODEL 3
REMARK VINA RESULT:     -10.4      5.613      8.714
REMARK  4 active torsions:
REMARK  status: ('A' for Active; 'I' for Inactive)
REMARK    1  A    between atoms: C_9  and  C_10 
REMARK    2  A    between atoms: C_10  and  C_11 
REMARK       I    between atoms: C_11  and  N_12 
REMARK    3  A    between atoms: N_12  and  C_13 
REMARK    4  A    between atoms: C_20  and  C_21 
REMARK       I    between atoms: C_21  and  N_22 
ROOT
HETATM    1  C   UNL     1       5.268  27.159  50.605  1.00  0.00     0.035 A 
HETATM    2  C   UNL     1       4.657  26.419  49.584  1.00  0.00     0.046 A 
HETATM    3  C   UNL     1       3.589  26.987  48.857  1.00  0.00     0.030 A 
HETATM    4  C   UNL     1       3.189  28.284  49.154  1.00  0.00     0.063 A 
HETATM    5  N   UNL     1       2.161  28.553  48.294  1.00  0.00    -0.277 N 
HETATM    6  H   UNL     1       1.630  29.412  48.223  1.00  0.00     0.189 HD
HETATM    7  N   UNL     1       1.836  27.535  47.480  1.00  0.00    -0.168 NA
HETATM    8  C   UNL     1       2.707  26.557  47.819  1.00  0.00     0.156 A 
HETATM    9  C   UNL     1       3.784  29.055  50.154  1.00  0.00     0.034 A 
HETATM   10  C   UNL     1       4.822  28.459  50.882  1.00  0.00     0.032 A 
ENDROOT
BRANCH   1  11
HETATM   11  N   UNL     1       6.292  26.645  51.428  1.00  0.00    -0.327 N 
HETATM   12  C   UNL     1       6.189  26.277  52.758  1.00  0.00     0.226 C 
HETATM   13  O   UNL     1       5.151  26.153  53.402  1.00  0.00    -0.273 OA
HETATM   14  H   UNL     1       7.203  26.552  50.998  1.00  0.00     0.169 HD
BRANCH  12  15
HETATM   15  C   UNL     1       7.543  26.036  53.411  1.00  0.00     0.141 C 
BRANCH  15  16
HETATM   16  C   UNL     1       7.763  24.574  53.720  1.00  0.00    -0.049 A 
HETATM   17  C   UNL     1       7.744  23.630  52.689  1.00  0.00     0.008 A 
HETATM   18  C   UNL     1       7.906  22.272  52.965  1.00  0.00     0.013 A 
HETATM   19  C   UNL     1       8.097  21.827  54.280  1.00  0.00    -0.026 A 
HETATM   20  C   UNL     1       8.250  20.463  54.574  1.00  0.00     0.012 A 
HETATM   21  C   UNL     1       8.134  22.772  55.331  1.00  0.00    -0.025 A 
HETATM   22  C   UNL     1       8.438  20.034  55.887  1.00  0.00     0.001 A 
HETATM   23  C   UNL     1       8.479  20.962  56.923  1.00  0.00     0.001 A 
HETATM   24  C   UNL     1       8.328  22.322  56.647  1.00  0.00     0.012 A 
HETATM   25  C   UNL     1       7.970  24.138  55.037  1.00  0.00     0.020 A 
ENDBRANCH  15  16
ENDBRANCH  12  15
ENDBRANCH   1  11
BRANCH   8  26
HETATM   26  C   UNL     1       2.665  25.241  47.166  1.00  0.00     0.270 C 
HETATM   27  N   UNL     1       2.714  24.186  48.035  1.00  0.00    -0.365 N 
HETATM   28  H   UNL     1       2.795  24.378  49.027  1.00  0.00     0.159 HD
HETATM   29  H   UNL     1       2.725  23.245  47.676  1.00  0.00     0.159 HD
HETATM   30  O   UNL     1       2.607  25.061  45.955  1.00  0.00    -0.266 OA
ENDBRANCH   8  26
TORSDOF 4
ENDMDL
MODEL 4
REMARK VINA RESULT:     -10.0      2.020      2.818
REMARK  4 active torsions:
REMARK  status: ('A' for Active; 'I' for Inactive)
REMARK    1  A    between atoms: C_9  and  C_10 
REMARK    2  A    between atoms: C_10  and  C_11 
REMARK       I    between atoms: C_11  and  N_12 
REMARK    3  A    between atoms: N_12  and  C_13 
REMARK    4  A    between atoms: C_20  and  C_21 
REMARK       I    between atoms: C_21  and  N_22 
ROOT
HETATM    1  C   UNL     1       5.543  28.799  55.969  1.00  0.00     0.035 A 
HETATM    2  C   UNL     1       6.398  29.045  57.052  1.00  0.00     0.046 A 
HETATM    3  C   UNL     1       6.417  30.326  57.646  1.00  0.00     0.030 A 
HETATM    4  C   UNL     1       5.561  31.305  57.157  1.00  0.00     0.063 A 
HETATM    5  N   UNL     1       5.799  32.411  57.925  1.00  0.00    -0.277 N 
HETATM    6  H   UNL     1       5.349  33.315  57.853  1.00  0.00     0.189 HD
HETATM    7  N   UNL     1       6.755  32.248  58.853  1.00  0.00    -0.168 NA
HETATM    8  C   UNL     1       7.151  30.965  58.692  1.00  0.00     0.156 A 
HETATM    9  C   UNL     1       4.687  31.090  56.090  1.00  0.00     0.034 A 
HETATM   10  C   UNL     1       4.708  29.821  55.498  1.00  0.00     0.032 A 
ENDROOT
BRANCH   1  11
HETATM   11  N   UNL     1       5.511  27.573  55.272  1.00  0.00    -0.327 N 
HETATM   12  C   UNL     1       6.433  27.113  54.347  1.00  0.00     0.226 C 
HETATM   13  O   UNL     1       7.536  27.601  54.113  1.00  0.00    -0.273 OA
HETATM   14  H   UNL     1       4.717  26.975  55.460  1.00  0.00     0.169 HD
BRANCH  12  15
HETATM   15  C   UNL     1       5.945  25.890  53.584  1.00  0.00     0.141 C 
BRANCH  15  16
HETATM   16  C   UNL     1       6.571  24.618  54.105  1.00  0.00    -0.049 A 
HETATM   17  C   UNL     1       6.759  24.443  55.480  1.00  0.00     0.008 A 
HETATM   18  C   UNL     1       7.373  23.291  55.972  1.00  0.00     0.013 A 
HETATM   19  C   UNL     1       7.807  22.283  55.100  1.00  0.00    -0.026 A 
HETATM   20  C   UNL     1       8.435  21.124  55.580  1.00  0.00     0.012 A 
HETATM   21  C   UNL     1       7.609  22.440  53.709  1.00  0.00    -0.025 A 
HETATM   22  C   UNL     1       8.864  20.129  54.702  1.00  0.00     0.001 A 
HETATM   23  C   UNL     1       8.667  20.279  53.333  1.00  0.00     0.001 A 
HETATM   24  C   UNL     1       8.044  21.426  52.839  1.00  0.00     0.012 A 
HETATM   25  C   UNL     1       6.988  23.607  53.227  1.00  0.00     0.020 A 
ENDBRANCH  15  16
ENDBRANCH  12  15
ENDBRANCH   1  11
BRANCH   8  26
HETATM   26  C   UNL     1       8.223  30.389  59.515  1.00  0.00     0.270 C 
HETATM   27  N   UNL     1       8.028  30.528  60.861  1.00  0.00    -0.365 N 
HETATM   28  H   UNL     1       7.202  31.018  61.183  1.00  0.00     0.159 HD
HETATM   29  H   UNL     1       8.729  30.193  61.502  1.00  0.00     0.159 HD
HETATM   30  O   UNL     1       9.226  29.839  59.073  1.00  0.00    -0.266 OA
ENDBRANCH   8  26
TORSDOF 4
ENDMDL
MODEL 5
REMARK VINA RESULT:      -9.7      1.899      2.491
REMARK  4 active torsions:
REMARK  status: ('A' for Active; 'I' for Inactive)
REMARK    1  A    between atoms: C_9  and  C_10 
REMARK    2  A    between atoms: C_10  and  C_11 
REMARK       I    between atoms: C_11  and  N_12 
REMARK    3  A    between atoms: N_12  and  C_13 
REMARK    4  A    between atoms: C_20  and  C_21 
REMARK       I    between atoms: C_21  and  N_22 
ROOT
HETATM    1  C   UNL     1       7.524  29.360  56.343  1.00  0.00     0.035 A 
HETATM    2  C   UNL     1       6.344  29.957  56.805  1.00  0.00     0.046 A 
HETATM    3  C   UNL     1       6.379  30.764  57.964  1.00  0.00     0.030 A 
HETATM    4  C   UNL     1       7.597  30.969  58.602  1.00  0.00     0.063 A 
HETATM    5  N   UNL     1       7.317  31.782  59.664  1.00  0.00    -0.277 N 
HETATM    6  H   UNL     1       7.970  32.142  60.348  1.00  0.00     0.189 HD
HETATM    7  N   UNL     1       6.020  32.103  59.793  1.00  0.00    -0.168 NA
HETATM    8  C   UNL     1       5.425  31.477  58.751  1.00  0.00     0.156 A 
HETATM    9  C   UNL     1       8.793  30.401  58.160  1.00  0.00     0.034 A 
HETATM   10  C   UNL     1       8.727  29.582  57.026  1.00  0.00     0.032 A 
ENDROOT
BRANCH   1  11
HETATM   11  N   UNL     1       7.567  28.485  55.238  1.00  0.00    -0.327 N 
HETATM   12  C   UNL     1       6.785  27.361  55.031  1.00  0.00     0.226 C 
HETATM   13  O   UNL     1       5.791  27.036  55.675  1.00  0.00    -0.273 OA
HETATM   14  H   UNL     1       8.257  28.697  54.529  1.00  0.00     0.169 HD
BRANCH  12  15
HETATM   15  C   UNL     1       7.288  26.495  53.884  1.00  0.00     0.141 C 
BRANCH  15  16
HETATM   16  C   UNL     1       7.616  25.094  54.342  1.00  0.00    -0.049 A 
HETATM   17  C   UNL     1       7.972  24.859  55.675  1.00  0.00     0.008 A 
HETATM   18  C   UNL     1       8.316  23.576  56.103  1.00  0.00     0.013 A 
HETATM   19  C   UNL     1       8.306  22.497  55.208  1.00  0.00    -0.026 A 
HETATM   20  C   UNL     1       8.661  21.204  55.622  1.00  0.00     0.012 A 
HETATM   21  C   UNL     1       7.934  22.717  53.863  1.00  0.00    -0.025 A 
HETATM   22  C   UNL     1       8.649  20.139  54.722  1.00  0.00     0.001 A 
HETATM   23  C   UNL     1       8.279  20.352  53.398  1.00  0.00     0.001 A 
HETATM   24  C   UNL     1       7.923  21.633  52.970  1.00  0.00     0.012 A 
HETATM   25  C   UNL     1       7.588  24.016  53.445  1.00  0.00     0.020 A 
ENDBRANCH  15  16
ENDBRANCH  12  15
ENDBRANCH   1  11
BRANCH   8  26
HETATM   26  C   UNL     1       3.972  31.555  58.545  1.00  0.00     0.270 C 
HETATM   27  N   UNL     1       3.295  30.425  58.911  1.00  0.00    -0.365 N 
HETATM   28  H   UNL     1       3.825  29.636  59.264  1.00  0.00     0.159 HD
HETATM   29  H   UNL     1       2.299  30.375  58.773  1.00  0.00     0.159 HD
HETATM   30  O   UNL     1       3.382  32.522  58.076  1.00  0.00    -0.266 OA
ENDBRANCH   8  26
TORSDOF 4
ENDMDL
MODEL 6
REMARK VINA RESULT:      -9.6      4.694      7.102
REMARK  4 active torsions:
REMARK  status: ('A' for Active; 'I' for Inactive)
REMARK    1  A    between atoms: C_9  and  C_10 
REMARK    2  A    between atoms: C_10  and  C_11 
REMARK       I    between atoms: C_11  and  N_12 
REMARK    3  A    between atoms: N_12  and  C_13 
REMARK    4  A    between atoms: C_20  and  C_21 
REMARK       I    between atoms: C_21  and  N_22 
ROOT
HETATM    1  C   UNL     1       5.345  26.807  52.213  1.00  0.00     0.035 A 
HETATM    2  C   UNL     1       5.397  28.083  51.636  1.00  0.00     0.046 A 
HETATM    3  C   UNL     1       5.138  28.234  50.256  1.00  0.00     0.030 A 
HETATM    4  C   UNL     1       4.806  27.110  49.509  1.00  0.00     0.063 A 
HETATM    5  N   UNL     1       4.608  27.567  48.236  1.00  0.00    -0.277 N 
HETATM    6  H   UNL     1       4.347  27.022  47.423  1.00  0.00     0.189 HD
HETATM    7  N   UNL     1       4.808  28.885  48.080  1.00  0.00    -0.168 NA
HETATM    8  C   UNL     1       5.141  29.313  49.320  1.00  0.00     0.156 A 
HETATM    9  C   UNL     1       4.731  25.827  50.054  1.00  0.00     0.034 A 
HETATM   10  C   UNL     1       5.022  25.699  51.419  1.00  0.00     0.032 A 
ENDROOT
BRANCH   1  11
HETATM   11  N   UNL     1       5.658  26.556  53.565  1.00  0.00    -0.327 N 
HETATM   12  C   UNL     1       6.893  26.693  54.176  1.00  0.00     0.226 C 
HETATM   13  O   UNL     1       7.886  27.237  53.699  1.00  0.00    -0.273 OA
HETATM   14  H   UNL     1       4.898  26.224  54.144  1.00  0.00     0.169 HD
BRANCH  12  15
HETATM   15  C   UNL     1       6.939  26.068  55.563  1.00  0.00     0.141 C 
BRANCH  15  16
HETATM   16  C   UNL     1       7.396  24.630  55.516  1.00  0.00    -0.049 A 
HETATM   17  C   UNL     1       7.869  24.007  56.676  1.00  0.00     0.008 A 
HETATM   18  C   UNL     1       8.332  22.692  56.638  1.00  0.00     0.013 A 
HETATM   19  C   UNL     1       8.328  21.966  55.439  1.00  0.00    -0.026 A 
HETATM   20  C   UNL     1       8.802  20.646  55.384  1.00  0.00     0.012 A 
HETATM   21  C   UNL     1       7.840  22.578  54.262  1.00  0.00    -0.025 A 
HETATM   22  C   UNL     1       8.794  19.935  54.184  1.00  0.00     0.001 A 
HETATM   23  C   UNL     1       8.311  20.534  53.026  1.00  0.00     0.001 A 
HETATM   24  C   UNL     1       7.836  21.846  53.063  1.00  0.00     0.012 A 
HETATM   25  C   UNL     1       7.375  23.905  54.315  1.00  0.00     0.020 A 
ENDBRANCH  15  16
ENDBRANCH  12  15
ENDBRANCH   1  11
BRANCH   8  26
HETATM   26  C   UNL     1       5.472  30.721  49.577  1.00  0.00     0.270 C 
HETATM   27  N   UNL     1       4.509  31.603  49.170  1.00  0.00    -0.365 N 
HETATM   28  H   UNL     1       3.678  31.239  48.719  1.00  0.00     0.159 HD
HETATM   29  H   UNL     1       4.665  32.593  49.275  1.00  0.00     0.159 HD
HETATM   30  O   UNL     1       6.513  31.113  50.094  1.00  0.00    -0.266 OA
ENDBRANCH   8  26
TORSDOF 4
ENDMDL
MODEL 7
REMARK VINA RESULT:      -9.4      3.584      4.355
REMARK  4 active torsions:
REMARK  status: ('A' for Active; 'I' for Inactive)
REMARK    1  A    between atoms: C_9  and  C_10 
REMARK    2  A    between atoms: C_10  and  C_11 
REMARK       I    between atoms: C_11  and  N_12 
REMARK    3  A    between atoms: N_12  and  C_13 
REMARK    4  A    between atoms: C_20  and  C_21 
REMARK       I    between atoms: C_21  and  N_22 
ROOT
HETATM    1  C   UNL     1       5.998  28.309  55.134  1.00  0.00     0.035 A 
HETATM    2  C   UNL     1       5.304  29.468  54.761  1.00  0.00     0.046 A 
HETATM    3  C   UNL     1       4.444  30.094  55.690  1.00  0.00     0.030 A 
HETATM    4  C   UNL     1       4.332  29.559  56.967  1.00  0.00     0.063 A 
HETATM    5  N   UNL     1       3.453  30.371  57.626  1.00  0.00    -0.277 N 
HETATM    6  H   UNL     1       3.138  30.285  58.584  1.00  0.00     0.189 HD
HETATM    7  N   UNL     1       2.959  31.375  56.882  1.00  0.00    -0.168 NA
HETATM    8  C   UNL     1       3.559  31.215  55.680  1.00  0.00     0.156 A 
HETATM    9  C   UNL     1       5.020  28.414  57.377  1.00  0.00     0.034 A 
HETATM   10  C   UNL     1       5.843  27.794  56.428  1.00  0.00     0.032 A 
ENDROOT
BRANCH   1  11
HETATM   11  N   UNL     1       6.820  27.580  54.250  1.00  0.00    -0.327 N 
HETATM   12  C   UNL     1       6.469  26.462  53.514  1.00  0.00     0.226 C 
HETATM   13  O   UNL     1       5.334  26.020  53.353  1.00  0.00    -0.273 OA
HETATM   14  H   UNL     1       7.774  27.906  54.158  1.00  0.00     0.169 HD
BRANCH  12  15
HETATM   15  C   UNL     1       7.670  25.766  52.889  1.00  0.00     0.141 C 
BRANCH  15  16
HETATM   16  C   UNL     1       7.826  24.352  53.397  1.00  0.00    -0.049 A 
HETATM   17  C   UNL     1       7.762  23.276  52.506  1.00  0.00     0.008 A 
HETATM   18  C   UNL     1       7.865  21.963  52.967  1.00  0.00     0.013 A 
HETATM   19  C   UNL     1       8.039  21.696  54.332  1.00  0.00    -0.026 A 
HETATM   20  C   UNL     1       8.132  20.381  54.811  1.00  0.00     0.012 A 
HETATM   21  C   UNL     1       8.120  22.774  55.242  1.00  0.00    -0.025 A 
HETATM   22  C   UNL     1       8.305  20.128  56.172  1.00  0.00     0.001 A 
HETATM   23  C   UNL     1       8.389  21.187  57.070  1.00  0.00     0.001 A 
HETATM   24  C   UNL     1       8.298  22.502  56.609  1.00  0.00     0.012 A 
HETATM   25  C   UNL     1       8.017  24.093  54.763  1.00  0.00     0.020 A 
ENDBRANCH  15  16
ENDBRANCH  12  15
ENDBRANCH   1  11
BRANCH   8  26
HETATM   26  C   UNL     1       3.261  32.112  54.555  1.00  0.00     0.270 C 
HETATM   27  N   UNL     1       2.043  31.892  53.974  1.00  0.00    -0.365 N 
HETATM   28  H   UNL     1       1.463  31.141  54.332  1.00  0.00     0.159 HD
HETATM   29  H   UNL     1       1.768  32.437  53.173  1.00  0.00     0.159 HD
HETATM   30  O   UNL     1       4.016  32.982  54.134  1.00  0.00    -0.266 OA
ENDBRANCH   8  26
TORSDOF 4
ENDMDL
MODEL 8
REMARK VINA RESULT:      -9.1      4.780      7.342
REMARK  4 active torsions:
REMARK  status: ('A' for Active; 'I' for Inactive)
REMARK    1  A    between atoms: C_9  and  C_10 
REMARK    2  A    between atoms: C_10  and  C_11 
REMARK       I    between atoms: C_11  and  N_12 
REMARK    3  A    between atoms: N_12  and  C_13 
REMARK    4  A    between atoms: C_20  and  C_21 
REMARK       I    between atoms: C_21  and  N_22 
ROOT
HETATM    1  C   UNL     1       5.133  28.416  52.799  1.00  0.00     0.035 A 
HETATM    2  C   UNL     1       4.647  28.073  51.530  1.00  0.00     0.046 A 
HETATM    3  C   UNL     1       3.534  28.763  51.002  1.00  0.00     0.030 A 
HETATM    4  C   UNL     1       2.965  29.790  51.746  1.00  0.00     0.063 A 
HETATM    5  N   UNL     1       1.934  30.261  50.984  1.00  0.00    -0.277 N 
HETATM    6  H   UNL     1       1.299  31.017  51.211  1.00  0.00     0.189 HD
HETATM    7  N   UNL     1       1.760  29.615  49.820  1.00  0.00    -0.168 NA
HETATM    8  C   UNL     1       2.740  28.681  49.817  1.00  0.00     0.156 A 
HETATM    9  C   UNL     1       3.432  30.167  53.006  1.00  0.00     0.034 A 
HETATM   10  C   UNL     1       4.519  29.448  53.522  1.00  0.00     0.032 A 
ENDROOT
BRANCH   1  11
HETATM   11  N   UNL     1       6.192  27.734  53.432  1.00  0.00    -0.327 N 
HETATM   12  C   UNL     1       6.125  26.975  54.588  1.00  0.00     0.226 C 
HETATM   13  O   UNL     1       5.102  26.605  55.159  1.00  0.00    -0.273 OA
HETATM   14  H   UNL     1       7.102  27.825  52.999  1.00  0.00     0.169 HD
BRANCH  12  15
HETATM   15  C   UNL     1       7.498  26.622  55.144  1.00  0.00     0.141 C 
BRANCH  15  16
HETATM   16  C   UNL     1       7.696  25.128  55.239  1.00  0.00    -0.049 A 
HETATM   17  C   UNL     1       7.919  24.530  56.484  1.00  0.00     0.008 A 
HETATM   18  C   UNL     1       8.143  23.157  56.583  1.00  0.00     0.013 A 
HETATM   19  C   UNL     1       8.144  22.348  55.438  1.00  0.00    -0.026 A 
HETATM   20  C   UNL     1       8.380  20.967  55.521  1.00  0.00     0.012 A 
HETATM   21  C   UNL     1       7.906  22.936  54.175  1.00  0.00    -0.025 A 
HETATM   22  C   UNL     1       8.379  20.173  54.375  1.00  0.00     0.001 A 
HETATM   23  C   UNL     1       8.141  20.749  53.131  1.00  0.00     0.001 A 
HETATM   24  C   UNL     1       7.905  22.122  53.031  1.00  0.00     0.012 A 
HETATM   25  C   UNL     1       7.680  24.323  54.091  1.00  0.00     0.020 A 
ENDBRANCH  15  16
ENDBRANCH  12  15
ENDBRANCH   1  11
BRANCH   8  26
HETATM   26  C   UNL     1       2.882  27.729  48.707  1.00  0.00     0.270 C 
HETATM   27  N   UNL     1       4.079  27.813  48.051  1.00  0.00    -0.365 N 
HETATM   28  H   UNL     1       4.748  28.513  48.350  1.00  0.00     0.159 HD
HETATM   29  H   UNL     1       4.252  27.221  47.254  1.00  0.00     0.159 HD
HETATM   30  O   UNL     1       2.023  26.926  48.359  1.00  0.00    -0.266 OA
ENDBRANCH   8  26
TORSDOF 4
ENDMDL
MODEL 9
REMARK VINA RESULT:      -9.0      2.941      9.436
REMARK  4 active torsions:
REMARK  status: ('A' for Active; 'I' for Inactive)
REMARK    1  A    between atoms: C_9  and  C_10 
REMARK    2  A    between atoms: C_10  and  C_11 
REMARK       I    between atoms: C_11  and  N_12 
REMARK    3  A    between atoms: N_12  and  C_13 
REMARK    4  A    between atoms: C_20  and  C_21 
REMARK       I    between atoms: C_21  and  N_22 
ROOT
HETATM    1  C   UNL     1       7.110  27.133  56.671  1.00  0.00     0.035 A 
HETATM    2  C   UNL     1       6.967  26.515  55.421  1.00  0.00     0.046 A 
HETATM    3  C   UNL     1       7.547  25.247  55.201  1.00  0.00     0.030 A 
HETATM    4  C   UNL     1       8.223  24.627  56.245  1.00  0.00     0.063 A 
HETATM    5  N   UNL     1       8.656  23.434  55.740  1.00  0.00    -0.277 N 
HETATM    6  H   UNL     1       9.182  22.718  56.225  1.00  0.00     0.189 HD
HETATM    7  N   UNL     1       8.347  23.231  54.449  1.00  0.00    -0.168 NA
HETATM    8  C   UNL     1       7.664  24.346  54.099  1.00  0.00     0.156 A 
HETATM    9  C   UNL     1       8.372  25.208  57.506  1.00  0.00     0.034 A 
HETATM   10  C   UNL     1       7.813  26.479  57.691  1.00  0.00     0.032 A 
ENDROOT
BRANCH   1  11
HETATM   11  N   UNL     1       6.625  28.426  56.955  1.00  0.00    -0.327 N 
HETATM   12  C   UNL     1       7.332  29.615  56.893  1.00  0.00     0.226 C 
HETATM   13  O   UNL     1       8.445  29.777  56.399  1.00  0.00    -0.273 OA
HETATM   14  H   UNL     1       5.659  28.485  57.250  1.00  0.00     0.169 HD
BRANCH  12  15
HETATM   15  C   UNL     1       6.588  30.778  57.535  1.00  0.00     0.141 C 
BRANCH  15  16
HETATM   16  C   UNL     1       7.116  31.087  58.916  1.00  0.00    -0.049 A 
HETATM   17  C   UNL     1       8.200  30.366  59.428  1.00  0.00     0.008 A 
HETATM   18  C   UNL     1       8.674  30.614  60.717  1.00  0.00     0.013 A 
HETATM   19  C   UNL     1       8.077  31.594  61.522  1.00  0.00    -0.026 A 
HETATM   20  C   UNL     1       8.535  31.845  62.824  1.00  0.00     0.012 A 
HETATM   21  C   UNL     1       6.990  32.340  61.012  1.00  0.00    -0.025 A 
HETATM   22  C   UNL     1       7.932  32.822  63.616  1.00  0.00     0.001 A 
HETATM   23  C   UNL     1       6.865  33.561  63.115  1.00  0.00     0.001 A 
HETATM   24  C   UNL     1       6.397  33.323  61.821  1.00  0.00     0.012 A 
HETATM   25  C   UNL     1       6.524  32.080  59.710  1.00  0.00     0.020 A 
ENDBRANCH  15  16
ENDBRANCH  12  15
ENDBRANCH   1  11
BRANCH   8  26
HETATM   26  C   UNL     1       7.163  24.534  52.730  1.00  0.00     0.270 C 
HETATM   27  N   UNL     1       5.803  24.452  52.619  1.00  0.00    -0.365 N 
HETATM   28  H   UNL     1       5.259  24.253  53.451  1.00  0.00     0.159 HD
HETATM   29  H   UNL     1       5.372  24.534  51.712  1.00  0.00     0.159 HD
HETATM   30  O   UNL     1       7.869  24.734  51.747  1.00  0.00    -0.266 OA
ENDBRANCH   8  26
TORSDOF 4
ENDMDL
MODEL 10
REMARK VINA RESULT:      -8.8      4.565      5.609
REMARK  4 active torsions:
REMARK  status: ('A' for Active; 'I' for Inactive)
REMARK    1  A    between atoms: C_9  and  C_10 
REMARK    2  A    between atoms: C_10  and  C_11 
REMARK       I    between atoms: C_11  and  N_12 
REMARK    3  A    between atoms: N_12  and  C_13 
REMARK    4  A    between atoms: C_20  and  C_21 
REMARK       I    between atoms: C_21  and  N_22 
ROOT
HETATM    1  C   UNL     1       5.341  28.571  53.574  1.00  0.00     0.035 A 
HETATM    2  C   UNL     1       4.702  29.614  52.890  1.00  0.00     0.046 A 
HETATM    3  C   UNL     1       3.843  30.485  53.595  1.00  0.00     0.030 A 
HETATM    4  C   UNL     1       3.675  30.302  54.962  1.00  0.00     0.063 A 
HETATM    5  N   UNL     1       2.810  31.283  55.356  1.00  0.00    -0.277 N 
HETATM    6  H   UNL     1       2.466  31.457  56.292  1.00  0.00     0.189 HD
HETATM    7  N   UNL     1       2.376  32.074  54.362  1.00  0.00    -0.168 NA
HETATM    8  C   UNL     1       3.001  31.591  53.264  1.00  0.00     0.156 A 
HETATM    9  C   UNL     1       4.307  29.282  55.677  1.00  0.00     0.034 A 
HETATM   10  C   UNL     1       5.131  28.413  54.950  1.00  0.00     0.032 A 
ENDROOT
BRANCH   1  11
HETATM   11  N   UNL     1       6.158  27.614  52.937  1.00  0.00    -0.327 N 
HETATM   12  C   UNL     1       5.789  26.349  52.513  1.00  0.00     0.226 C 
HETATM   13  O   UNL     1       4.644  25.909  52.443  1.00  0.00    -0.273 OA
HETATM   14  H   UNL     1       7.124  27.880  52.790  1.00  0.00     0.169 HD
BRANCH  12  15
HETATM   15  C   UNL     1       6.981  25.483  52.129  1.00  0.00     0.141 C 
BRANCH  15  16
HETATM   16  C   UNL     1       7.218  24.380  53.133  1.00  0.00    -0.049 A 
HETATM   17  C   UNL     1       6.941  24.594  54.487  1.00  0.00     0.008 A 
HETATM   18  C   UNL     1       7.192  23.598  55.431  1.00  0.00     0.013 A 
HETATM   19  C   UNL     1       7.722  22.360  55.041  1.00  0.00    -0.026 A 
HETATM   20  C   UNL     1       7.991  21.353  55.980  1.00  0.00     0.012 A 
HETATM   21  C   UNL     1       7.993  22.125  53.673  1.00  0.00    -0.025 A 
HETATM   22  C   UNL     1       8.519  20.127  55.579  1.00  0.00     0.001 A 
HETATM   23  C   UNL     1       8.783  19.890  54.234  1.00  0.00     0.001 A 
HETATM   24  C   UNL     1       8.521  20.882  53.286  1.00  0.00     0.012 A 
HETATM   25  C   UNL     1       7.733  23.138  52.733  1.00  0.00     0.020 A 
ENDBRANCH  15  16
ENDBRANCH  12  15
ENDBRANCH   1  11
BRANCH   8  26
HETATM   26  C   UNL     1       2.769  32.175  51.936  1.00  0.00     0.270 C 
HETATM   27  N   UNL     1       3.532  33.279  51.672  1.00  0.00    -0.365 N 
HETATM   28  H   UNL     1       4.163  33.616  52.390  1.00  0.00     0.159 HD
HETATM   29  H   UNL     1       3.416  33.766  50.798  1.00  0.00     0.159 HD
HETATM   30  O   UNL     1       1.964  31.750  51.115  1.00  0.00    -0.266 OA
ENDBRANCH   8  26
TORSDOF 4
ENDMDL
