MODEL 1
REMARK VINA RESULT:      -9.5      0.000      0.000
REMARK  2 active torsions:
REMARK  status: ('A' for Active; 'I' for Inactive)
REMARK    1  A    between atoms: C_6  and  N_7 
REMARK    2  A    between atoms: N_7  and  C_8 
ROOT
HETATM    1  C   UNL     1       4.603  29.324  53.797  1.00  0.00     0.093 C 
HETATM    2  C   UNL     1       5.443  28.141  54.169  1.00  0.00     0.125 A 
HETATM    3  N   UNL     1       5.286  27.027  53.457  1.00  0.00    -0.226 NA
HETATM    4  C   UNL     1       6.060  26.018  53.881  1.00  0.00     0.114 A 
HETATM    5  C   UNL     1       6.953  26.035  54.946  1.00  0.00     0.053 A 
HETATM    6  C   UNL     1       7.068  27.277  55.624  1.00  0.00     0.143 A 
HETATM    7  N   UNL     1       6.282  28.299  55.206  1.00  0.00    -0.215 NA
HETATM    8  S   UNL     1       6.005  24.524  53.068  1.00  0.00    -0.073 SA
HETATM    9  C   UNL     1       7.162  23.849  54.105  1.00  0.00    -0.008 A 
HETATM   10  C   UNL     1       7.574  24.726  55.096  1.00  0.00    -0.028 A 
HETATM   11  C   UNL     1       8.579  24.298  56.130  1.00  0.00     0.041 C 
HETATM   12  C   UNL     1       8.807  22.778  56.147  1.00  0.00     0.005 C 
HETATM   13  C   UNL     1       8.918  22.200  54.732  1.00  0.00     0.005 C 
HETATM   14  C   UNL     1       7.627  22.435  53.939  1.00  0.00     0.047 C 
ENDROOT
BRANCH   6  15
HETATM   15  N   UNL     1       7.947  27.466  56.703  1.00  0.00    -0.340 N 
HETATM   16  H   UNL     1       8.225  26.611  57.153  1.00  0.00     0.167 HD
BRANCH  15  17
HETATM   17  C   UNL     1       8.635  28.596  57.187  1.00  0.00     0.036 A 
HETATM   18  C   UNL     1       8.071  29.300  58.267  1.00  0.00     0.069 A 
HETATM   19  C   UNL     1       8.714  30.425  58.741  1.00  0.00     0.107 A 
HETATM   20  C   UNL     1       9.882  30.880  58.183  1.00  0.00     0.105 A 
HETATM   21  O   UNL     1       8.297  31.201  59.778  1.00  0.00    -0.323 OA
HETATM   22  O   UNL     1      10.352  31.998  58.797  1.00  0.00    -0.323 OA
HETATM   23  C   UNL     1      10.464  30.236  57.118  1.00  0.00     0.042 A 
HETATM   24  C   UNL     1       9.342  32.197  59.806  1.00  0.00     0.352 A 
HETATM   25  C   UNL     1       9.827  29.092  56.618  1.00  0.00     0.032 A 
ENDBRANCH  15  17
ENDBRANCH   6  15
TORSDOF 2
ENDMDL
MODEL 2
REMARK VINA RESULT:      -9.4      3.691      6.025
REMARK  2 active torsions:
REMARK  status: ('A' for Active; 'I' for Inactive)
REMARK    1  A    between atoms: C_6  and  N_7 
REMARK    2  A    between atoms: N_7  and  C_8 
ROOT
HETATM    1  C   UNL     1       6.917  28.879  57.777  1.00  0.00     0.093 C 
HETATM    2  C   UNL     1       7.016  27.598  57.007  1.00  0.00     0.125 A 
HETATM    3  N   UNL     1       7.933  26.716  57.398  1.00  0.00    -0.226 NA
HETATM    4  C   UNL     1       7.964  25.615  56.634  1.00  0.00     0.114 A 
HETATM    5  C   UNL     1       7.170  25.339  55.527  1.00  0.00     0.053 A 
HETATM    6  C   UNL     1       6.203  26.329  55.208  1.00  0.00     0.143 A 
HETATM    7  N   UNL     1       6.173  27.449  55.972  1.00  0.00    -0.215 NA
HETATM    8  S   UNL     1       9.062  24.369  57.006  1.00  0.00    -0.073 SA
HETATM    9  C   UNL     1       8.522  23.424  55.707  1.00  0.00    -0.008 A 
HETATM   10  C   UNL     1       7.539  24.050  54.958  1.00  0.00    -0.028 A 
HETATM   11  C   UNL     1       6.953  23.377  53.747  1.00  0.00     0.041 C 
HETATM   12  C   UNL     1       7.768  22.157  53.289  1.00  0.00     0.005 C 
HETATM   13  C   UNL     1       8.209  21.287  54.470  1.00  0.00     0.005 C 
HETATM   14  C   UNL     1       9.110  22.075  55.429  1.00  0.00     0.047 C 
ENDROOT
BRANCH   6  15
HETATM   15  N   UNL     1       5.306  26.188  54.137  1.00  0.00    -0.340 N 
HETATM   16  H   UNL     1       4.428  25.774  54.396  1.00  0.00     0.167 HD
BRANCH  15  17
HETATM   17  C   UNL     1       5.332  26.644  52.804  1.00  0.00     0.036 A 
HETATM   18  C   UNL     1       5.632  28.000  52.576  1.00  0.00     0.069 A 
HETATM   19  C   UNL     1       5.638  28.475  51.280  1.00  0.00     0.107 A 
HETATM   20  C   UNL     1       5.352  27.664  50.211  1.00  0.00     0.105 A 
HETATM   21  O   UNL     1       5.915  29.753  50.904  1.00  0.00    -0.323 OA
HETATM   22  O   UNL     1       5.415  28.324  49.025  1.00  0.00    -0.323 OA
HETATM   23  C   UNL     1       5.039  26.337  50.383  1.00  0.00     0.042 A 
HETATM   24  C   UNL     1       5.771  29.648  49.471  1.00  0.00     0.352 A 
HETATM   25  C   UNL     1       5.024  25.833  51.692  1.00  0.00     0.032 A 
ENDBRANCH  15  17
ENDBRANCH   6  15
TORSDOF 2
ENDMDL
MODEL 3
REMARK VINA RESULT:      -9.1      5.405      7.580
REMARK  2 active torsions:
REMARK  status: ('A' for Active; 'I' for Inactive)
REMARK    1  A    between atoms: C_6  and  N_7 
REMARK    2  A    between atoms: N_7  and  C_8 
ROOT
HETATM    1  C   UNL     1       4.063  29.495  55.107  1.00  0.00     0.093 C 
HETATM    2  C   UNL     1       4.768  28.227  54.738  1.00  0.00     0.125 A 
HETATM    3  N   UNL     1       5.041  27.368  55.719  1.00  0.00    -0.226 NA
HETATM    4  C   UNL     1       5.696  26.277  55.296  1.00  0.00     0.114 A 
HETATM    5  C   UNL     1       6.097  25.990  53.996  1.00  0.00     0.053 A 
HETATM    6  C   UNL     1       5.733  26.954  53.019  1.00  0.00     0.143 A 
HETATM    7  N   UNL     1       5.079  28.064  53.442  1.00  0.00    -0.215 NA
HETATM    8  S   UNL     1       6.105  25.061  56.415  1.00  0.00    -0.073 SA
HETATM    9  C   UNL     1       6.831  24.115  55.211  1.00  0.00    -0.008 A 
HETATM   10  C   UNL     1       6.808  24.719  53.964  1.00  0.00    -0.028 A 
HETATM   11  C   UNL     1       7.430  24.042  52.773  1.00  0.00     0.041 C 
HETATM   12  C   UNL     1       8.323  22.853  53.161  1.00  0.00     0.005 C 
HETATM   13  C   UNL     1       7.679  21.983  54.245  1.00  0.00     0.005 C 
HETATM   14  C   UNL     1       7.447  22.788  55.530  1.00  0.00     0.047 C 
ENDROOT
BRANCH   6  15
HETATM   15  N   UNL     1       6.040  26.797  51.658  1.00  0.00    -0.340 N 
HETATM   16  H   UNL     1       6.919  26.340  51.491  1.00  0.00     0.167 HD
BRANCH  15  17
HETATM   17  C   UNL     1       5.297  27.017  50.481  1.00  0.00     0.036 A 
HETATM   18  C   UNL     1       4.583  25.932  49.939  1.00  0.00     0.069 A 
HETATM   19  C   UNL     1       3.868  26.117  48.773  1.00  0.00     0.107 A 
HETATM   20  C   UNL     1       3.842  27.326  48.124  1.00  0.00     0.105 A 
HETATM   21  O   UNL     1       3.127  25.171  48.136  1.00  0.00    -0.323 OA
HETATM   22  O   UNL     1       3.081  27.298  47.000  1.00  0.00    -0.323 OA
HETATM   23  C   UNL     1       4.535  28.411  48.606  1.00  0.00     0.042 A 
HETATM   24  C   UNL     1       2.631  25.928  47.012  1.00  0.00     0.352 A 
HETATM   25  C   UNL     1       5.270  28.245  49.789  1.00  0.00     0.032 A 
ENDBRANCH  15  17
ENDBRANCH   6  15
TORSDOF 2
ENDMDL
MODEL 4
REMARK VINA RESULT:      -9.0      3.926      7.121
REMARK  2 active torsions:
REMARK  status: ('A' for Active; 'I' for Inactive)
REMARK    1  A    between atoms: C_6  and  N_7 
REMARK    2  A    between atoms: N_7  and  C_8 
ROOT
HETATM    1  C   UNL     1       7.255  27.986  57.568  1.00  0.00     0.093 C 
HETATM    2  C   UNL     1       6.858  27.732  56.147  1.00  0.00     0.125 A 
HETATM    3  N   UNL     1       5.905  28.504  55.628  1.00  0.00    -0.226 NA
HETATM    4  C   UNL     1       5.600  28.184  54.362  1.00  0.00     0.114 A 
HETATM    5  C   UNL     1       6.158  27.168  53.595  1.00  0.00     0.053 A 
HETATM    6  C   UNL     1       7.186  26.421  54.229  1.00  0.00     0.143 A 
HETATM    7  N   UNL     1       7.492  26.733  55.513  1.00  0.00    -0.215 NA
HETATM    8  S   UNL     1       4.417  29.085  53.534  1.00  0.00    -0.073 SA
HETATM    9  C   UNL     1       4.605  28.152  52.131  1.00  0.00    -0.008 A 
HETATM   10  C   UNL     1       5.529  27.132  52.282  1.00  0.00    -0.028 A 
HETATM   11  C   UNL     1       5.813  26.181  51.152  1.00  0.00     0.041 C 
HETATM   12  C   UNL     1       4.775  26.270  50.022  1.00  0.00     0.005 C 
HETATM   13  C   UNL     1       4.417  27.722  49.687  1.00  0.00     0.005 C 
HETATM   14  C   UNL     1       3.800  28.431  50.899  1.00  0.00     0.047 C 
ENDROOT
BRANCH   6  15
HETATM   15  N   UNL     1       7.869  25.380  53.580  1.00  0.00    -0.340 N 
HETATM   16  H   UNL     1       8.527  25.696  52.889  1.00  0.00     0.167 HD
BRANCH  15  17
HETATM   17  C   UNL     1       7.926  23.990  53.805  1.00  0.00     0.036 A 
HETATM   18  C   UNL     1       8.106  23.541  55.127  1.00  0.00     0.069 A 
HETATM   19  C   UNL     1       8.191  22.185  55.367  1.00  0.00     0.107 A 
HETATM   20  C   UNL     1       8.113  21.264  54.353  1.00  0.00     0.105 A 
HETATM   21  O   UNL     1       8.355  21.603  56.586  1.00  0.00    -0.323 OA
HETATM   22  O   UNL     1       8.216  19.986  54.801  1.00  0.00    -0.323 OA
HETATM   23  C   UNL     1       7.953  21.653  53.045  1.00  0.00     0.042 A 
HETATM   24  C   UNL     1       8.371  20.207  56.218  1.00  0.00     0.352 A 
HETATM   25  C   UNL     1       7.867  23.026  52.776  1.00  0.00     0.032 A 
ENDBRANCH  15  17
ENDBRANCH   6  15
TORSDOF 2
ENDMDL
MODEL 5
REMARK VINA RESULT:      -8.9      1.720      2.584
REMARK  2 active torsions:
REMARK  status: ('A' for Active; 'I' for Inactive)
REMARK    1  A    between atoms: C_6  and  N_7 
REMARK    2  A    between atoms: N_7  and  C_8 
ROOT
HETATM    1  C   UNL     1       6.019  26.735  51.721  1.00  0.00     0.093 C 
HETATM    2  C   UNL     1       6.536  25.766  52.739  1.00  0.00     0.125 A 
HETATM    3  N   UNL     1       6.822  24.533  52.323  1.00  0.00    -0.226 NA
HETATM    4  C   UNL     1       7.253  23.732  53.308  1.00  0.00     0.114 A 
HETATM    5  C   UNL     1       7.409  24.061  54.650  1.00  0.00     0.053 A 
HETATM    6  C   UNL     1       7.105  25.407  54.987  1.00  0.00     0.143 A 
HETATM    7  N   UNL     1       6.660  26.219  53.996  1.00  0.00    -0.215 NA
HETATM    8  S   UNL     1       7.687  22.126  52.951  1.00  0.00    -0.073 SA
HETATM    9  C   UNL     1       8.092  21.813  54.567  1.00  0.00    -0.008 A 
HETATM   10  C   UNL     1       7.870  22.899  55.398  1.00  0.00    -0.028 A 
HETATM   11  C   UNL     1       8.145  22.805  56.873  1.00  0.00     0.041 C 
HETATM   12  C   UNL     1       8.357  21.359  57.349  1.00  0.00     0.005 C 
HETATM   13  C   UNL     1       9.243  20.563  56.385  1.00  0.00     0.005 C 
HETATM   14  C   UNL     1       8.600  20.471  54.996  1.00  0.00     0.047 C 
ENDROOT
BRANCH   6  15
HETATM   15  N   UNL     1       7.238  25.904  56.293  1.00  0.00    -0.340 N 
HETATM   16  H   UNL     1       7.372  25.188  56.987  1.00  0.00     0.167 HD
BRANCH  15  17
HETATM   17  C   UNL     1       7.370  27.208  56.810  1.00  0.00     0.036 A 
HETATM   18  C   UNL     1       8.669  27.714  57.001  1.00  0.00     0.069 A 
HETATM   19  C   UNL     1       8.823  28.980  57.529  1.00  0.00     0.107 A 
HETATM   20  C   UNL     1       7.745  29.753  57.880  1.00  0.00     0.105 A 
HETATM   21  O   UNL     1      10.009  29.604  57.763  1.00  0.00    -0.323 OA
HETATM   22  O   UNL     1       8.112  30.963  58.377  1.00  0.00    -0.323 OA
HETATM   23  C   UNL     1       6.458  29.298  57.727  1.00  0.00     0.042 A 
HETATM   24  C   UNL     1       9.549  30.863  58.302  1.00  0.00     0.352 A 
HETATM   25  C   UNL     1       6.278  28.013  57.194  1.00  0.00     0.032 A 
ENDBRANCH  15  17
ENDBRANCH   6  15
TORSDOF 2
ENDMDL
MODEL 6
REMARK VINA RESULT:      -8.6      1.440      2.169
REMARK  2 active torsions:
REMARK  status: ('A' for Active; 'I' for Inactive)
REMARK    1  A    between atoms: C_6  and  N_7 
REMARK    2  A    between atoms: N_7  and  C_8 
ROOT
HETATM    1  C   UNL     1       3.580  29.836  52.309  1.00  0.00     0.093 C 
HETATM    2  C   UNL     1       4.401  28.708  52.853  1.00  0.00     0.125 A 
HETATM    3  N   UNL     1       4.675  27.696  52.033  1.00  0.00    -0.226 NA
HETATM    4  C   UNL     1       5.391  26.724  52.617  1.00  0.00     0.114 A 
HETATM    5  C   UNL     1       5.836  26.684  53.933  1.00  0.00     0.053 A 
HETATM    6  C   UNL     1       5.517  27.824  54.719  1.00  0.00     0.143 A 
HETATM    7  N   UNL     1       4.785  28.806  54.136  1.00  0.00    -0.215 NA
HETATM    8  S   UNL     1       5.852  25.362  51.706  1.00  0.00    -0.073 SA
HETATM    9  C   UNL     1       6.655  24.674  53.030  1.00  0.00    -0.008 A 
HETATM   10  C   UNL     1       6.553  25.441  54.179  1.00  0.00    -0.028 A 
HETATM   11  C   UNL     1       7.180  24.979  55.466  1.00  0.00     0.041 C 
HETATM   12  C   UNL     1       7.613  23.505  55.425  1.00  0.00     0.005 C 
HETATM   13  C   UNL     1       8.302  23.148  54.104  1.00  0.00     0.005 C 
HETATM   14  C   UNL     1       7.355  23.355  52.916  1.00  0.00     0.047 C 
ENDROOT
BRANCH   6  15
HETATM   15  N   UNL     1       5.919  27.950  56.058  1.00  0.00    -0.340 N 
HETATM   16  H   UNL     1       5.468  27.301  56.679  1.00  0.00     0.167 HD
BRANCH  15  17
HETATM   17  C   UNL     1       6.934  28.701  56.683  1.00  0.00     0.036 A 
HETATM   18  C   UNL     1       8.237  28.617  56.157  1.00  0.00     0.069 A 
HETATM   19  C   UNL     1       9.252  29.324  56.768  1.00  0.00     0.107 A 
HETATM   20  C   UNL     1       9.028  30.098  57.878  1.00  0.00     0.105 A 
HETATM   21  O   UNL     1      10.553  29.348  56.372  1.00  0.00    -0.323 OA
HETATM   22  O   UNL     1      10.156  30.712  58.323  1.00  0.00    -0.323 OA
HETATM   23  C   UNL     1       7.777  30.201  58.438  1.00  0.00     0.042 A 
HETATM   24  C   UNL     1      11.120  30.231  57.364  1.00  0.00     0.352 A 
HETATM   25  C   UNL     1       6.730  29.489  57.835  1.00  0.00     0.032 A 
ENDBRANCH  15  17
ENDBRANCH   6  15
TORSDOF 2
ENDMDL
MODEL 7
REMARK VINA RESULT:      -8.1      4.086      6.510
REMARK  2 active torsions:
REMARK  status: ('A' for Active; 'I' for Inactive)
REMARK    1  A    between atoms: C_6  and  N_7 
REMARK    2  A    between atoms: N_7  and  C_8 
ROOT
HETATM    1  C   UNL     1       5.576  30.748  57.668  1.00  0.00     0.093 C 
HETATM    2  C   UNL     1       5.778  29.401  57.046  1.00  0.00     0.125 A 
HETATM    3  N   UNL     1       6.783  28.657  57.502  1.00  0.00    -0.226 NA
HETATM    4  C   UNL     1       6.899  27.482  56.867  1.00  0.00     0.114 A 
HETATM    5  C   UNL     1       6.108  27.009  55.826  1.00  0.00     0.053 A 
HETATM    6  C   UNL     1       5.045  27.864  55.431  1.00  0.00     0.143 A 
HETATM    7  N   UNL     1       4.929  29.058  56.064  1.00  0.00    -0.215 NA
HETATM    8  S   UNL     1       8.119  26.393  57.339  1.00  0.00    -0.073 SA
HETATM    9  C   UNL     1       7.640  25.259  56.174  1.00  0.00    -0.008 A 
HETATM   10  C   UNL     1       6.584  25.702  55.394  1.00  0.00    -0.028 A 
HETATM   11  C   UNL     1       6.035  24.843  54.288  1.00  0.00     0.041 C 
HETATM   12  C   UNL     1       6.951  23.658  53.942  1.00  0.00     0.005 C 
HETATM   13  C   UNL     1       7.500  22.974  55.198  1.00  0.00     0.005 C 
HETATM   14  C   UNL     1       8.346  23.946  56.030  1.00  0.00     0.047 C 
ENDROOT
BRANCH   6  15
HETATM   15  N   UNL     1       4.141  27.519  54.414  1.00  0.00    -0.340 N 
HETATM   16  H   UNL     1       3.396  26.917  54.722  1.00  0.00     0.167 HD
BRANCH  15  17
HETATM   17  C   UNL     1       3.981  27.964  53.087  1.00  0.00     0.036 A 
HETATM   18  C   UNL     1       4.747  27.342  52.084  1.00  0.00     0.069 A 
HETATM   19  C   UNL     1       4.625  27.780  50.781  1.00  0.00     0.107 A 
HETATM   20  C   UNL     1       3.785  28.809  50.439  1.00  0.00     0.105 A 
HETATM   21  O   UNL     1       5.291  27.274  49.708  1.00  0.00    -0.323 OA
HETATM   22  O   UNL     1       3.811  29.082  49.109  1.00  0.00    -0.323 OA
HETATM   23  C   UNL     1       3.027  29.458  51.384  1.00  0.00     0.042 A 
HETATM   24  C   UNL     1       4.768  28.107  48.650  1.00  0.00     0.352 A 
HETATM   25  C   UNL     1       3.137  29.032  52.716  1.00  0.00     0.032 A 
ENDBRANCH  15  17
ENDBRANCH   6  15
TORSDOF 2
ENDMDL
MODEL 8
REMARK VINA RESULT:      -8.0      4.051      6.983
REMARK  2 active torsions:
REMARK  status: ('A' for Active; 'I' for Inactive)
REMARK    1  A    between atoms: C_6  and  N_7 
REMARK    2  A    between atoms: N_7  and  C_8 
ROOT
HETATM    1  C   UNL     1       8.235  28.687  58.102  1.00  0.00     0.093 C 
HETATM    2  C   UNL     1       7.632  27.961  56.939  1.00  0.00     0.125 A 
HETATM    3  N   UNL     1       7.374  28.668  55.840  1.00  0.00    -0.226 NA
HETATM    4  C   UNL     1       6.813  27.939  54.865  1.00  0.00     0.114 A 
HETATM    5  C   UNL     1       6.489  26.587  54.907  1.00  0.00     0.053 A 
HETATM    6  C   UNL     1       6.831  25.917  56.111  1.00  0.00     0.143 A 
HETATM    7  N   UNL     1       7.391  26.651  57.105  1.00  0.00    -0.215 NA
HETATM    8  S   UNL     1       6.436  28.678  53.379  1.00  0.00    -0.073 SA
HETATM    9  C   UNL     1       5.829  27.229  52.744  1.00  0.00    -0.008 A 
HETATM   10  C   UNL     1       5.867  26.185  53.654  1.00  0.00    -0.028 A 
HETATM   11  C   UNL     1       5.345  24.824  53.281  1.00  0.00     0.041 C 
HETATM   12  C   UNL     1       4.517  24.836  51.986  1.00  0.00     0.005 C 
HETATM   13  C   UNL     1       5.168  25.696  50.898  1.00  0.00     0.005 C 
HETATM   14  C   UNL     1       5.289  27.157  51.349  1.00  0.00     0.047 C 
ENDROOT
BRANCH   6  15
HETATM   15  N   UNL     1       6.597  24.545  56.301  1.00  0.00    -0.340 N 
HETATM   16  H   UNL     1       5.701  24.340  56.709  1.00  0.00     0.167 HD
BRANCH  15  17
HETATM   17  C   UNL     1       7.299  23.393  55.898  1.00  0.00     0.036 A 
HETATM   18  C   UNL     1       7.217  23.007  54.547  1.00  0.00     0.069 A 
HETATM   19  C   UNL     1       7.877  21.867  54.135  1.00  0.00     0.107 A 
HETATM   20  C   UNL     1       8.602  21.095  55.008  1.00  0.00     0.105 A 
HETATM   21  O   UNL     1       7.897  21.375  52.867  1.00  0.00    -0.323 OA
HETATM   22  O   UNL     1       9.174  20.022  54.403  1.00  0.00    -0.323 OA
HETATM   23  C   UNL     1       8.700  21.422  56.339  1.00  0.00     0.042 A 
HETATM   24  C   UNL     1       8.722  20.203  53.046  1.00  0.00     0.352 A 
HETATM   25  C   UNL     1       8.036  22.575  56.780  1.00  0.00     0.032 A 
ENDBRANCH  15  17
ENDBRANCH   6  15
TORSDOF 2
ENDMDL
MODEL 9
REMARK VINA RESULT:      -8.0      4.205      7.774
REMARK  2 active torsions:
REMARK  status: ('A' for Active; 'I' for Inactive)
REMARK    1  A    between atoms: C_6  and  N_7 
REMARK    2  A    between atoms: N_7  and  C_8 
ROOT
HETATM    1  C   UNL     1      11.492  29.707  57.195  1.00  0.00     0.093 C 
HETATM    2  C   UNL     1      10.032  30.001  57.345  1.00  0.00     0.125 A 
HETATM    3  N   UNL     1       9.661  30.765  58.371  1.00  0.00    -0.226 NA
HETATM    4  C   UNL     1       8.335  30.950  58.437  1.00  0.00     0.114 A 
HETATM    5  C   UNL     1       7.371  30.432  57.580  1.00  0.00     0.053 A 
HETATM    6  C   UNL     1       7.869  29.654  56.502  1.00  0.00     0.143 A 
HETATM    7  N   UNL     1       9.209  29.456  56.434  1.00  0.00    -0.215 NA
HETATM    8  S   UNL     1       7.687  31.923  59.674  1.00  0.00    -0.073 SA
HETATM    9  C   UNL     1       6.105  31.686  59.114  1.00  0.00    -0.008 A 
HETATM   10  C   UNL     1       6.043  30.843  58.016  1.00  0.00    -0.028 A 
HETATM   11  C   UNL     1       4.720  30.492  57.393  1.00  0.00     0.041 C 
HETATM   12  C   UNL     1       3.523  30.880  58.275  1.00  0.00     0.005 C 
HETATM   13  C   UNL     1       3.696  32.270  58.895  1.00  0.00     0.005 C 
HETATM   14  C   UNL     1       4.934  32.321  59.799  1.00  0.00     0.047 C 
ENDROOT
BRANCH   6  15
HETATM   15  N   UNL     1       7.028  29.084  55.533  1.00  0.00    -0.340 N 
HETATM   16  H   UNL     1       6.533  29.761  54.978  1.00  0.00     0.167 HD
BRANCH  15  17
HETATM   17  C   UNL     1       6.850  27.761  55.082  1.00  0.00     0.036 A 
HETATM   18  C   UNL     1       7.629  27.323  53.995  1.00  0.00     0.069 A 
HETATM   19  C   UNL     1       7.453  26.040  53.521  1.00  0.00     0.107 A 
HETATM   20  C   UNL     1       6.535  25.183  54.074  1.00  0.00     0.105 A 
HETATM   21  O   UNL     1       8.135  25.474  52.488  1.00  0.00    -0.323 OA
HETATM   22  O   UNL     1       6.521  23.969  53.464  1.00  0.00    -0.323 OA
HETATM   23  C   UNL     1       5.741  25.568  55.127  1.00  0.00     0.042 A 
HETATM   24  C   UNL     1       7.537  24.160  52.458  1.00  0.00     0.352 A 
HETATM   25  C   UNL     1       5.900  26.870  55.624  1.00  0.00     0.032 A 
ENDBRANCH  15  17
ENDBRANCH   6  15
TORSDOF 2
ENDMDL
MODEL 10
REMARK VINA RESULT:      -7.8      4.109      7.620
REMARK  2 active torsions:
REMARK  status: ('A' for Active; 'I' for Inactive)
REMARK    1  A    between atoms: C_6  and  N_7 
REMARK    2  A    between atoms: N_7  and  C_8 
ROOT
HETATM    1  C   UNL     1       9.331  30.599  61.534  1.00  0.00     0.093 C 
HETATM    2  C   UNL     1       8.413  30.742  60.359  1.00  0.00     0.125 A 
HETATM    3  N   UNL     1       7.424  31.628  60.456  1.00  0.00    -0.226 NA
HETATM    4  C   UNL     1       6.642  31.666  59.368  1.00  0.00     0.114 A 
HETATM    5  C   UNL     1       6.767  30.895  58.217  1.00  0.00     0.053 A 
HETATM    6  C   UNL     1       7.870  30.001  58.200  1.00  0.00     0.143 A 
HETATM    7  N   UNL     1       8.659  29.952  59.302  1.00  0.00    -0.215 NA
HETATM    8  S   UNL     1       5.340  32.760  59.310  1.00  0.00    -0.073 SA
HETATM    9  C   UNL     1       4.897  32.244  57.758  1.00  0.00    -0.008 A 
HETATM   10  C   UNL     1       5.699  31.219  57.282  1.00  0.00    -0.028 A 
HETATM   11  C   UNL     1       5.443  30.610  55.931  1.00  0.00     0.041 C 
HETATM   12  C   UNL     1       4.077  31.006  55.346  1.00  0.00     0.005 C 
HETATM   13  C   UNL     1       3.778  32.495  55.549  1.00  0.00     0.005 C 
HETATM   14  C   UNL     1       3.730  32.849  57.040  1.00  0.00     0.047 C 
ENDROOT
BRANCH   6  15
HETATM   15  N   UNL     1       8.151  29.174  57.100  1.00  0.00    -0.340 N 
HETATM   16  H   UNL     1       8.828  29.560  56.465  1.00  0.00     0.167 HD
BRANCH  15  17
HETATM   17  C   UNL     1       7.788  27.850  56.785  1.00  0.00     0.036 A 
HETATM   18  C   UNL     1       7.532  27.538  55.436  1.00  0.00     0.069 A 
HETATM   19  C   UNL     1       7.150  26.253  55.108  1.00  0.00     0.107 A 
HETATM   20  C   UNL     1       7.005  25.276  56.060  1.00  0.00     0.105 A 
HETATM   21  O   UNL     1       6.878  25.802  53.854  1.00  0.00    -0.323 OA
HETATM   22  O   UNL     1       6.626  24.084  55.529  1.00  0.00    -0.323 OA
HETATM   23  C   UNL     1       7.229  25.534  57.391  1.00  0.00     0.042 A 
HETATM   24  C   UNL     1       6.545  24.424  54.130  1.00  0.00     0.352 A 
HETATM   25  C   UNL     1       7.616  26.834  57.748  1.00  0.00     0.032 A 
ENDBRANCH  15  17
ENDBRANCH   6  15
TORSDOF 2
ENDMDL
