MODEL 1
REMARK VINA RESULT:      -9.1      0.000      0.000
REMARK  12 active torsions:
REMARK  status: ('A' for Active; 'I' for Inactive)
REMARK    1  A    between atoms: C_2  and  O_3 
REMARK    2  A    between atoms: O_3  and  C_4 
REMARK    3  A    between atoms: C_5  and  N_6 
REMARK    4  A    between atoms: C_7  and  S_8 
REMARK    5  A    between atoms: S_8  and  C_9 
REMARK    6  A    between atoms: C_9  and  C_10 
REMARK       I    between atoms: C_10  and  N_11 
REMARK    7  A    between atoms: N_11  and  C_12 
REMARK    8  A    between atoms: C_12  and  C_13 
REMARK    9  A    between atoms: C_13  and  C_14 
REMARK   10  A    between atoms: C_17  and  S_18 
REMARK   11  A    between atoms: S_18  and  N_19 
REMARK   12  A    between atoms: C_28  and  N_29 
ROOT
HETATM    1  N   UNL     1       6.483  27.052  55.584  1.00  0.00    -0.273 N 
HETATM    2  C   UNL     1       7.067  28.130  56.175  1.00  0.00     0.177 A 
HETATM    3  N   UNL     1       6.704  29.419  55.983  1.00  0.00    -0.204 NA
HETATM    4  C   UNL     1       5.668  29.520  55.149  1.00  0.00     0.162 A 
HETATM    5  C   UNL     1       4.995  28.486  54.533  1.00  0.00     0.081 A 
HETATM    6  C   UNL     1       5.396  27.161  54.772  1.00  0.00     0.124 A 
HETATM    7  N   UNL     1       5.069  30.679  54.747  1.00  0.00    -0.260 N 
HETATM    8  H   UNL     1       5.309  31.628  55.012  1.00  0.00     0.191 HD
HETATM    9  N   UNL     1       4.048  30.479  53.902  1.00  0.00    -0.177 NA
HETATM   10  C   UNL     1       3.998  29.149  53.755  1.00  0.00     0.068 A 
HETATM   11  C   UNL     1       2.983  28.558  52.843  1.00  0.00     0.073 C 
ENDROOT
BRANCH   2  12
HETATM   12  S   UNL     1       8.423  27.942  57.348  1.00  0.00    -0.082 SA
BRANCH  12  13
HETATM   13  C   UNL     1       9.690  28.962  56.524  1.00  0.00     0.185 C 
BRANCH  13  14
HETATM   14  C   UNL     1      10.061  30.228  57.296  1.00  0.00     0.227 C 
HETATM   15  N   UNL     1       9.081  30.610  58.189  1.00  0.00    -0.360 N 
HETATM   16  H   UNL     1       8.212  30.088  58.231  1.00  0.00     0.162 HD
HETATM   17  O   UNL     1      11.129  30.823  57.168  1.00  0.00    -0.273 OA
BRANCH  15  18
HETATM   18  C   UNL     1       9.269  31.646  59.191  1.00  0.00     0.127 C 
BRANCH  18  19
HETATM   19  C   UNL     1       9.219  31.136  60.635  1.00  0.00     0.058 C 
BRANCH  19  20
HETATM   20  C   UNL     1       8.141  31.842  61.427  1.00  0.00    -0.057 A 
HETATM   21  C   UNL     1       8.323  32.132  62.788  1.00  0.00     0.009 A 
HETATM   22  C   UNL     1       7.297  32.720  63.532  1.00  0.00     0.025 A 
HETATM   23  C   UNL     1       6.088  33.037  62.911  1.00  0.00     0.074 A 
HETATM   24  C   UNL     1       5.894  32.765  61.555  1.00  0.00     0.025 A 
HETATM   25  C   UNL     1       6.921  32.173  60.817  1.00  0.00     0.009 A 
BRANCH  23  26
HETATM   26  S   UNL     1       4.758  33.699  63.875  1.00  0.00     0.239 S 
HETATM   27  O   UNL     1       4.740  33.050  65.164  1.00  0.00    -0.206 OA
HETATM   28  O   UNL     1       4.745  35.135  63.728  1.00  0.00    -0.206 OA
BRANCH  26  29
HETATM   29  N   UNL     1       3.409  33.133  63.052  1.00  0.00    -0.225 NA
HETATM   30  H   UNL     1       2.938  32.421  63.613  1.00  0.00     0.136 HD
HETATM   31  H   UNL     1       2.805  33.917  62.802  1.00  0.00     0.136 HD
ENDBRANCH  26  29
ENDBRANCH  23  26
ENDBRANCH  19  20
ENDBRANCH  18  19
ENDBRANCH  15  18
ENDBRANCH  13  14
ENDBRANCH  12  13
ENDBRANCH   2  12
BRANCH   1  32
HETATM   32  C   UNL     1       7.101  25.762  55.713  1.00  0.00     0.076 A 
HETATM   33  C   UNL     1       7.761  25.228  54.596  1.00  0.00     0.096 A 
HETATM   34  C   UNL     1       8.377  23.985  54.718  1.00  0.00     0.039 A 
HETATM   35  C   UNL     1       8.281  23.278  55.923  1.00  0.00     0.003 A 
HETATM   36  C   UNL     1       7.582  23.810  57.013  1.00  0.00     0.002 A 
HETATM   37  C   UNL     1       6.980  25.063  56.914  1.00  0.00     0.033 A 
BRANCH  33  38
HETATM   38  O   UNL     1       7.840  25.992  53.463  1.00  0.00    -0.349 OA
BRANCH  38  39
HETATM   39  C   UNL     1       7.831  25.248  52.235  1.00  0.00     0.171 C 
HETATM   40  C   UNL     1       6.588  25.596  51.441  1.00  0.00     0.034 C 
ENDBRANCH  38  39
ENDBRANCH  33  38
ENDBRANCH   1  32
BRANCH   6  41
HETATM   41  N   UNL     1       4.751  26.059  54.212  1.00  0.00    -0.384 N 
HETATM   42  H   UNL     1       5.333  25.317  53.838  1.00  0.00     0.157 HD
HETATM   43  H   UNL     1       3.878  26.188  53.712  1.00  0.00     0.157 HD
ENDBRANCH   6  41
TORSDOF 12
ENDMDL
MODEL 2
REMARK VINA RESULT:      -9.1      2.156      2.969
REMARK  12 active torsions:
REMARK  status: ('A' for Active; 'I' for Inactive)
REMARK    1  A    between atoms: C_2  and  O_3 
REMARK    2  A    between atoms: O_3  and  C_4 
REMARK    3  A    between atoms: C_5  and  N_6 
REMARK    4  A    between atoms: C_7  and  S_8 
REMARK    5  A    between atoms: S_8  and  C_9 
REMARK    6  A    between atoms: C_9  and  C_10 
REMARK       I    between atoms: C_10  and  N_11 
REMARK    7  A    between atoms: N_11  and  C_12 
REMARK    8  A    between atoms: C_12  and  C_13 
REMARK    9  A    between atoms: C_13  and  C_14 
REMARK   10  A    between atoms: C_17  and  S_18 
REMARK   11  A    between atoms: S_18  and  N_19 
REMARK   12  A    between atoms: C_28  and  N_29 
ROOT
HETATM    1  N   UNL     1       6.342  26.461  52.886  1.00  0.00    -0.273 N 
HETATM    2  C   UNL     1       6.901  27.571  53.440  1.00  0.00     0.177 A 
HETATM    3  N   UNL     1       6.654  28.845  53.057  1.00  0.00    -0.204 NA
HETATM    4  C   UNL     1       5.762  28.898  52.067  1.00  0.00     0.162 A 
HETATM    5  C   UNL     1       5.122  27.832  51.470  1.00  0.00     0.081 A 
HETATM    6  C   UNL     1       5.397  26.527  51.908  1.00  0.00     0.124 A 
HETATM    7  N   UNL     1       5.305  30.029  51.455  1.00  0.00    -0.260 N 
HETATM    8  H   UNL     1       5.564  30.991  51.651  1.00  0.00     0.191 HD
HETATM    9  N   UNL     1       4.409  29.781  50.490  1.00  0.00    -0.177 NA
HETATM   10  C   UNL     1       4.296  28.447  50.480  1.00  0.00     0.068 A 
HETATM   11  C   UNL     1       3.392  27.803  49.491  1.00  0.00     0.073 C 
ENDROOT
BRANCH   2  12
HETATM   12  S   UNL     1       8.053  27.456  54.822  1.00  0.00    -0.082 SA
BRANCH  12  13
HETATM   13  C   UNL     1       7.701  29.041  55.652  1.00  0.00     0.185 C 
BRANCH  13  14
HETATM   14  C   UNL     1       7.955  29.018  57.158  1.00  0.00     0.227 C 
HETATM   15  N   UNL     1       7.616  30.207  57.771  1.00  0.00    -0.360 N 
HETATM   16  H   UNL     1       7.292  30.986  57.207  1.00  0.00     0.162 HD
HETATM   17  O   UNL     1       8.378  28.039  57.770  1.00  0.00    -0.273 OA
BRANCH  15  18
HETATM   18  C   UNL     1       7.558  30.378  59.213  1.00  0.00     0.127 C 
BRANCH  18  19
HETATM   19  C   UNL     1       8.264  31.639  59.723  1.00  0.00     0.058 C 
BRANCH  19  20
HETATM   20  C   UNL     1       7.683  32.094  61.044  1.00  0.00    -0.057 A 
HETATM   21  C   UNL     1       6.353  32.533  61.130  1.00  0.00     0.009 A 
HETATM   22  C   UNL     1       5.843  33.019  62.336  1.00  0.00     0.025 A 
HETATM   23  C   UNL     1       6.659  33.050  63.469  1.00  0.00     0.074 A 
HETATM   24  C   UNL     1       7.981  32.605  63.403  1.00  0.00     0.025 A 
HETATM   25  C   UNL     1       8.488  32.126  62.194  1.00  0.00     0.009 A 
BRANCH  23  26
HETATM   26  S   UNL     1       6.038  33.748  64.973  1.00  0.00     0.239 S 
HETATM   27  O   UNL     1       4.715  33.229  65.224  1.00  0.00    -0.206 OA
HETATM   28  O   UNL     1       7.085  33.720  65.967  1.00  0.00    -0.206 OA
BRANCH  26  29
HETATM   29  N   UNL     1       5.833  35.361  64.556  1.00  0.00    -0.225 NA
HETATM   30  H   UNL     1       4.933  35.482  64.088  1.00  0.00     0.136 HD
HETATM   31  H   UNL     1       5.941  35.946  65.385  1.00  0.00     0.136 HD
ENDBRANCH  26  29
ENDBRANCH  23  26
ENDBRANCH  19  20
ENDBRANCH  18  19
ENDBRANCH  15  18
ENDBRANCH  13  14
ENDBRANCH  12  13
ENDBRANCH   2  12
BRANCH   1  32
HETATM   32  C   UNL     1       6.850  25.167  53.246  1.00  0.00     0.076 A 
HETATM   33  C   UNL     1       6.375  24.571  54.423  1.00  0.00     0.096 A 
HETATM   34  C   UNL     1       6.850  23.309  54.770  1.00  0.00     0.039 A 
HETATM   35  C   UNL     1       7.820  22.689  53.973  1.00  0.00     0.003 A 
HETATM   36  C   UNL     1       8.313  23.319  52.824  1.00  0.00     0.002 A 
HETATM   37  C   UNL     1       7.831  24.572  52.451  1.00  0.00     0.033 A 
BRANCH  33  38
HETATM   38  O   UNL     1       5.403  25.223  55.133  1.00  0.00    -0.349 OA
BRANCH  38  39
HETATM   39  C   UNL     1       5.578  25.195  56.558  1.00  0.00     0.171 C 
HETATM   40  C   UNL     1       5.113  26.511  57.151  1.00  0.00     0.034 C 
ENDBRANCH  38  39
ENDBRANCH  33  38
ENDBRANCH   1  32
BRANCH   6  41
HETATM   41  N   UNL     1       4.772  25.398  51.377  1.00  0.00    -0.384 N 
HETATM   42  H   UNL     1       4.931  25.195  50.396  1.00  0.00     0.157 HD
HETATM   43  H   UNL     1       3.851  25.131  51.708  1.00  0.00     0.157 HD
ENDBRANCH   6  41
TORSDOF 12
ENDMDL
MODEL 3
REMARK VINA RESULT:      -9.0      1.690      4.003
REMARK  12 active torsions:
REMARK  status: ('A' for Active; 'I' for Inactive)
REMARK    1  A    between atoms: C_2  and  O_3 
REMARK    2  A    between atoms: O_3  and  C_4 
REMARK    3  A    between atoms: C_5  and  N_6 
REMARK    4  A    between atoms: C_7  and  S_8 
REMARK    5  A    between atoms: S_8  and  C_9 
REMARK    6  A    between atoms: C_9  and  C_10 
REMARK       I    between atoms: C_10  and  N_11 
REMARK    7  A    between atoms: N_11  and  C_12 
REMARK    8  A    between atoms: C_12  and  C_13 
REMARK    9  A    between atoms: C_13  and  C_14 
REMARK   10  A    between atoms: C_17  and  S_18 
REMARK   11  A    between atoms: S_18  and  N_19 
REMARK   12  A    between atoms: C_28  and  N_29 
ROOT
HETATM    1  N   UNL     1       6.472  27.592  56.018  1.00  0.00    -0.273 N 
HETATM    2  C   UNL     1       7.428  28.046  56.873  1.00  0.00     0.177 A 
HETATM    3  N   UNL     1       8.376  27.282  57.463  1.00  0.00    -0.204 NA
HETATM    4  C   UNL     1       8.286  26.006  57.087  1.00  0.00     0.162 A 
HETATM    5  C   UNL     1       7.376  25.465  56.203  1.00  0.00     0.081 A 
HETATM    6  C   UNL     1       6.417  26.297  55.602  1.00  0.00     0.124 A 
HETATM    7  N   UNL     1       9.089  24.985  57.504  1.00  0.00    -0.260 N 
HETATM    8  H   UNL     1       9.867  25.032  58.154  1.00  0.00     0.191 HD
HETATM    9  N   UNL     1       8.766  23.804  56.960  1.00  0.00    -0.177 NA
HETATM   10  C   UNL     1       7.718  24.078  56.174  1.00  0.00     0.068 A 
HETATM   11  C   UNL     1       7.066  22.974  55.422  1.00  0.00     0.073 C 
ENDROOT
BRANCH   2  12
HETATM   12  S   UNL     1       7.555  29.793  57.303  1.00  0.00    -0.082 SA
BRANCH  12  13
HETATM   13  C   UNL     1       9.351  29.911  57.592  1.00  0.00     0.185 C 
BRANCH  13  14
HETATM   14  C   UNL     1       9.753  31.066  58.508  1.00  0.00     0.227 C 
HETATM   15  N   UNL     1       9.122  31.014  59.734  1.00  0.00    -0.360 N 
HETATM   16  H   UNL     1       8.436  30.289  59.913  1.00  0.00     0.162 HD
HETATM   17  O   UNL     1      10.577  31.928  58.207  1.00  0.00    -0.273 OA
BRANCH  15  18
HETATM   18  C   UNL     1       9.484  31.862  60.858  1.00  0.00     0.127 C 
BRANCH  18  19
HETATM   19  C   UNL     1       9.149  31.262  62.227  1.00  0.00     0.058 C 
BRANCH  19  20
HETATM   20  C   UNL     1       7.928  31.921  62.830  1.00  0.00    -0.057 A 
HETATM   21  C   UNL     1       6.639  31.585  62.387  1.00  0.00     0.009 A 
HETATM   22  C   UNL     1       5.519  32.248  62.895  1.00  0.00     0.025 A 
HETATM   23  C   UNL     1       5.683  33.238  63.866  1.00  0.00     0.074 A 
HETATM   24  C   UNL     1       6.958  33.575  64.326  1.00  0.00     0.025 A 
HETATM   25  C   UNL     1       8.074  32.914  63.811  1.00  0.00     0.009 A 
BRANCH  23  26
HETATM   26  S   UNL     1       4.272  34.137  64.445  1.00  0.00     0.239 S 
HETATM   27  O   UNL     1       4.013  33.776  65.818  1.00  0.00    -0.206 OA
HETATM   28  O   UNL     1       4.382  35.508  64.009  1.00  0.00    -0.206 OA
BRANCH  26  29
HETATM   29  N   UNL     1       3.028  33.459  63.545  1.00  0.00    -0.225 NA
HETATM   30  H   UNL     1       2.180  33.411  64.112  1.00  0.00     0.136 HD
HETATM   31  H   UNL     1       2.906  33.983  62.678  1.00  0.00     0.136 HD
ENDBRANCH  26  29
ENDBRANCH  23  26
ENDBRANCH  19  20
ENDBRANCH  18  19
ENDBRANCH  15  18
ENDBRANCH  13  14
ENDBRANCH  12  13
ENDBRANCH   2  12
BRANCH   1  32
HETATM   32  C   UNL     1       5.403  28.469  55.632  1.00  0.00     0.076 A 
HETATM   33  C   UNL     1       5.366  28.929  54.307  1.00  0.00     0.096 A 
HETATM   34  C   UNL     1       4.322  29.766  53.921  1.00  0.00     0.039 A 
HETATM   35  C   UNL     1       3.371  30.170  54.866  1.00  0.00     0.003 A 
HETATM   36  C   UNL     1       3.450  29.735  56.193  1.00  0.00     0.002 A 
HETATM   37  C   UNL     1       4.474  28.878  56.590  1.00  0.00     0.033 A 
BRANCH  33  38
HETATM   38  O   UNL     1       6.312  28.464  53.434  1.00  0.00    -0.349 OA
BRANCH  38  39
HETATM   39  C   UNL     1       5.954  28.571  52.047  1.00  0.00     0.171 C 
HETATM   40  C   UNL     1       5.567  27.204  51.518  1.00  0.00     0.034 C 
ENDBRANCH  38  39
ENDBRANCH  33  38
ENDBRANCH   1  32
BRANCH   6  41
HETATM   41  N   UNL     1       5.480  25.833  54.678  1.00  0.00    -0.384 N 
HETATM   42  H   UNL     1       4.566  25.572  55.030  1.00  0.00     0.157 HD
HETATM   43  H   UNL     1       5.788  25.281  53.885  1.00  0.00     0.157 HD
ENDBRANCH   6  41
TORSDOF 12
ENDMDL
MODEL 4
REMARK VINA RESULT:      -8.9      1.831      4.329
REMARK  12 active torsions:
REMARK  status: ('A' for Active; 'I' for Inactive)
REMARK    1  A    between atoms: C_2  and  O_3 
REMARK    2  A    between atoms: O_3  and  C_4 
REMARK    3  A    between atoms: C_5  and  N_6 
REMARK    4  A    between atoms: C_7  and  S_8 
REMARK    5  A    between atoms: S_8  and  C_9 
REMARK    6  A    between atoms: C_9  and  C_10 
REMARK       I    between atoms: C_10  and  N_11 
REMARK    7  A    between atoms: N_11  and  C_12 
REMARK    8  A    between atoms: C_12  and  C_13 
REMARK    9  A    between atoms: C_13  and  C_14 
REMARK   10  A    between atoms: C_17  and  S_18 
REMARK   11  A    between atoms: S_18  and  N_19 
REMARK   12  A    between atoms: C_28  and  N_29 
ROOT
HETATM    1  N   UNL     1       7.053  26.852  55.083  1.00  0.00    -0.273 N 
HETATM    2  C   UNL     1       7.734  27.450  56.097  1.00  0.00     0.177 A 
HETATM    3  N   UNL     1       8.367  26.803  57.102  1.00  0.00    -0.204 NA
HETATM    4  C   UNL     1       8.269  25.479  56.975  1.00  0.00     0.162 A 
HETATM    5  C   UNL     1       7.631  24.788  55.967  1.00  0.00     0.081 A 
HETATM    6  C   UNL     1       6.998  25.499  54.934  1.00  0.00     0.124 A 
HETATM    7  N   UNL     1       8.793  24.549  57.825  1.00  0.00    -0.260 N 
HETATM    8  H   UNL     1       9.329  24.710  58.671  1.00  0.00     0.191 HD
HETATM    9  N   UNL     1       8.537  23.288  57.448  1.00  0.00    -0.177 NA
HETATM   10  C   UNL     1       7.821  23.418  56.324  1.00  0.00     0.068 A 
HETATM   11  C   UNL     1       7.328  22.199  55.633  1.00  0.00     0.073 C 
ENDROOT
BRANCH   2  12
HETATM   12  S   UNL     1       7.898  29.243  56.193  1.00  0.00    -0.082 SA
BRANCH  12  13
HETATM   13  C   UNL     1       9.711  29.383  56.320  1.00  0.00     0.185 C 
BRANCH  13  14
HETATM   14  C   UNL     1      10.180  30.434  57.325  1.00  0.00     0.227 C 
HETATM   15  N   UNL     1       9.196  30.778  58.229  1.00  0.00    -0.360 N 
HETATM   16  H   UNL     1       8.270  30.376  58.137  1.00  0.00     0.162 HD
HETATM   17  O   UNL     1      11.319  30.897  57.355  1.00  0.00    -0.273 OA
BRANCH  15  18
HETATM   18  C   UNL     1       9.441  31.589  59.410  1.00  0.00     0.127 C 
BRANCH  18  19
HETATM   19  C   UNL     1       9.084  30.896  60.729  1.00  0.00     0.058 C 
BRANCH  19  20
HETATM   20  C   UNL     1       8.134  31.740  61.550  1.00  0.00    -0.057 A 
HETATM   21  C   UNL     1       8.426  32.056  62.886  1.00  0.00     0.009 A 
HETATM   22  C   UNL     1       7.512  32.775  63.661  1.00  0.00     0.025 A 
HETATM   23  C   UNL     1       6.308  33.199  63.095  1.00  0.00     0.074 A 
HETATM   24  C   UNL     1       6.008  32.903  61.763  1.00  0.00     0.025 A 
HETATM   25  C   UNL     1       6.922  32.179  60.995  1.00  0.00     0.009 A 
BRANCH  23  26
HETATM   26  S   UNL     1       5.115  34.032  64.102  1.00  0.00     0.239 S 
HETATM   27  O   UNL     1       4.233  34.799  63.254  1.00  0.00    -0.206 OA
HETATM   28  O   UNL     1       4.625  33.114  65.102  1.00  0.00    -0.206 OA
BRANCH  26  29
HETATM   29  N   UNL     1       6.061  35.152  64.919  1.00  0.00    -0.225 NA
HETATM   30  H   UNL     1       5.844  35.124  65.917  1.00  0.00     0.136 HD
HETATM   31  H   UNL     1       7.047  34.982  64.715  1.00  0.00     0.136 HD
ENDBRANCH  26  29
ENDBRANCH  23  26
ENDBRANCH  19  20
ENDBRANCH  18  19
ENDBRANCH  15  18
ENDBRANCH  13  14
ENDBRANCH  12  13
ENDBRANCH   2  12
BRANCH   1  32
HETATM   32  C   UNL     1       6.254  27.658  54.203  1.00  0.00     0.076 A 
HETATM   33  C   UNL     1       5.012  28.117  54.668  1.00  0.00     0.096 A 
HETATM   34  C   UNL     1       4.239  28.914  53.827  1.00  0.00     0.039 A 
HETATM   35  C   UNL     1       4.688  29.194  52.530  1.00  0.00     0.003 A 
HETATM   36  C   UNL     1       5.911  28.690  52.071  1.00  0.00     0.002 A 
HETATM   37  C   UNL     1       6.706  27.911  52.908  1.00  0.00     0.033 A 
BRANCH  33  38
HETATM   38  O   UNL     1       4.657  27.830  55.958  1.00  0.00    -0.349 OA
BRANCH  38  39
HETATM   39  C   UNL     1       3.791  28.798  56.572  1.00  0.00     0.171 C 
HETATM   40  C   UNL     1       4.611  29.727  57.447  1.00  0.00     0.034 C 
ENDBRANCH  38  39
ENDBRANCH  33  38
ENDBRANCH   1  32
BRANCH   6  41
HETATM   41  N   UNL     1       6.356  24.876  53.864  1.00  0.00    -0.384 N 
HETATM   42  H   UNL     1       6.685  25.096  52.930  1.00  0.00     0.157 HD
HETATM   43  H   UNL     1       5.361  24.689  53.916  1.00  0.00     0.157 HD
ENDBRANCH   6  41
TORSDOF 12
ENDMDL
MODEL 5
REMARK VINA RESULT:      -8.7      2.229      3.287
REMARK  12 active torsions:
REMARK  status: ('A' for Active; 'I' for Inactive)
REMARK    1  A    between atoms: C_2  and  O_3 
REMARK    2  A    between atoms: O_3  and  C_4 
REMARK    3  A    between atoms: C_5  and  N_6 
REMARK    4  A    between atoms: C_7  and  S_8 
REMARK    5  A    between atoms: S_8  and  C_9 
REMARK    6  A    between atoms: C_9  and  C_10 
REMARK       I    between atoms: C_10  and  N_11 
REMARK    7  A    between atoms: N_11  and  C_12 
REMARK    8  A    between atoms: C_12  and  C_13 
REMARK    9  A    between atoms: C_13  and  C_14 
REMARK   10  A    between atoms: C_17  and  S_18 
REMARK   11  A    between atoms: S_18  and  N_19 
REMARK   12  A    between atoms: C_28  and  N_29 
ROOT
HETATM    1  N   UNL     1       5.763  28.399  54.769  1.00  0.00    -0.273 N 
HETATM    2  C   UNL     1       4.689  29.079  55.255  1.00  0.00     0.177 A 
HETATM    3  N   UNL     1       3.606  29.450  54.533  1.00  0.00    -0.204 NA
HETATM    4  C   UNL     1       3.697  29.045  53.265  1.00  0.00     0.162 A 
HETATM    5  C   UNL     1       4.726  28.325  52.696  1.00  0.00     0.081 A 
HETATM    6  C   UNL     1       5.825  27.948  53.485  1.00  0.00     0.124 A 
HETATM    7  N   UNL     1       2.775  29.264  52.283  1.00  0.00    -0.260 N 
HETATM    8  H   UNL     1       1.892  29.759  52.357  1.00  0.00     0.191 HD
HETATM    9  N   UNL     1       3.130  28.742  51.101  1.00  0.00    -0.177 NA
HETATM   10  C   UNL     1       4.321  28.176  51.335  1.00  0.00     0.068 A 
HETATM   11  C   UNL     1       5.041  27.515  50.216  1.00  0.00     0.073 C 
ENDROOT
BRANCH   2  12
HETATM   12  S   UNL     1       4.578  29.549  56.992  1.00  0.00    -0.082 SA
BRANCH  12  13
HETATM   13  C   UNL     1       4.554  31.364  56.821  1.00  0.00     0.185 C 
BRANCH  13  14
HETATM   14  C   UNL     1       5.589  32.079  57.688  1.00  0.00     0.227 C 
HETATM   15  N   UNL     1       6.515  31.212  58.231  1.00  0.00    -0.360 N 
HETATM   16  H   UNL     1       6.419  30.214  58.073  1.00  0.00     0.162 HD
HETATM   17  O   UNL     1       5.623  33.296  57.856  1.00  0.00    -0.273 OA
BRANCH  15  18
HETATM   18  C   UNL     1       7.721  31.651  58.914  1.00  0.00     0.127 C 
BRANCH  18  19
HETATM   19  C   UNL     1       7.972  30.951  60.253  1.00  0.00     0.058 C 
BRANCH  19  20
HETATM   20  C   UNL     1       7.450  31.777  61.408  1.00  0.00    -0.057 A 
HETATM   21  C   UNL     1       8.197  31.912  62.589  1.00  0.00     0.009 A 
HETATM   22  C   UNL     1       7.680  32.617  63.679  1.00  0.00     0.025 A 
HETATM   23  C   UNL     1       6.418  33.207  63.584  1.00  0.00     0.074 A 
HETATM   24  C   UNL     1       5.667  33.091  62.412  1.00  0.00     0.025 A 
HETATM   25  C   UNL     1       6.186  32.382  61.328  1.00  0.00     0.009 A 
BRANCH  23  26
HETATM   26  S   UNL     1       5.728  34.023  64.996  1.00  0.00     0.239 S 
HETATM   27  O   UNL     1       5.620  35.436  64.719  1.00  0.00    -0.206 OA
HETATM   28  O   UNL     1       4.619  33.242  65.491  1.00  0.00    -0.206 OA
BRANCH  26  29
HETATM   29  N   UNL     1       6.954  33.866  66.130  1.00  0.00    -0.225 NA
HETATM   30  H   UNL     1       6.785  34.503  66.911  1.00  0.00     0.136 HD
HETATM   31  H   UNL     1       7.035  32.889  66.416  1.00  0.00     0.136 HD
ENDBRANCH  26  29
ENDBRANCH  23  26
ENDBRANCH  19  20
ENDBRANCH  18  19
ENDBRANCH  15  18
ENDBRANCH  13  14
ENDBRANCH  12  13
ENDBRANCH   2  12
BRANCH   1  32
HETATM   32  C   UNL     1       6.931  28.255  55.590  1.00  0.00     0.076 A 
HETATM   33  C   UNL     1       7.033  27.120  56.408  1.00  0.00     0.096 A 
HETATM   34  C   UNL     1       8.171  26.965  57.195  1.00  0.00     0.039 A 
HETATM   35  C   UNL     1       9.156  27.960  57.193  1.00  0.00     0.003 A 
HETATM   36  C   UNL     1       9.017  29.106  56.402  1.00  0.00     0.002 A 
HETATM   37  C   UNL     1       7.895  29.265  55.592  1.00  0.00     0.033 A 
BRANCH  33  38
HETATM   38  O   UNL     1       6.045  26.176  56.332  1.00  0.00    -0.349 OA
BRANCH  38  39
HETATM   39  C   UNL     1       6.501  24.819  56.443  1.00  0.00     0.171 C 
HETATM   40  C   UNL     1       6.701  24.236  55.058  1.00  0.00     0.034 C 
ENDBRANCH  38  39
ENDBRANCH  33  38
ENDBRANCH   1  32
BRANCH   6  41
HETATM   41  N   UNL     1       6.892  27.196  52.994  1.00  0.00    -0.384 N 
HETATM   42  H   UNL     1       7.828  27.489  53.252  1.00  0.00     0.157 HD
HETATM   43  H   UNL     1       6.831  26.781  52.071  1.00  0.00     0.157 HD
ENDBRANCH   6  41
TORSDOF 12
ENDMDL
MODEL 6
REMARK VINA RESULT:      -8.6      5.490     11.193
REMARK  12 active torsions:
REMARK  status: ('A' for Active; 'I' for Inactive)
REMARK    1  A    between atoms: C_2  and  O_3 
REMARK    2  A    between atoms: O_3  and  C_4 
REMARK    3  A    between atoms: C_5  and  N_6 
REMARK    4  A    between atoms: C_7  and  S_8 
REMARK    5  A    between atoms: S_8  and  C_9 
REMARK    6  A    between atoms: C_9  and  C_10 
REMARK       I    between atoms: C_10  and  N_11 
REMARK    7  A    between atoms: N_11  and  C_12 
REMARK    8  A    between atoms: C_12  and  C_13 
REMARK    9  A    between atoms: C_13  and  C_14 
REMARK   10  A    between atoms: C_17  and  S_18 
REMARK   11  A    between atoms: S_18  and  N_19 
REMARK   12  A    between atoms: C_28  and  N_29 
ROOT
HETATM    1  N   UNL     1       6.758  26.399  55.378  1.00  0.00    -0.273 N 
HETATM    2  C   UNL     1       6.968  26.469  54.035  1.00  0.00     0.177 A 
HETATM    3  N   UNL     1       7.562  25.511  53.286  1.00  0.00    -0.204 NA
HETATM    4  C   UNL     1       7.907  24.454  54.022  1.00  0.00     0.162 A 
HETATM    5  C   UNL     1       7.704  24.282  55.375  1.00  0.00     0.081 A 
HETATM    6  C   UNL     1       7.070  25.296  56.112  1.00  0.00     0.124 A 
HETATM    7  N   UNL     1       8.528  23.326  53.568  1.00  0.00    -0.260 N 
HETATM    8  H   UNL     1       8.820  23.115  52.619  1.00  0.00     0.191 HD
HETATM    9  N   UNL     1       8.753  22.424  54.533  1.00  0.00    -0.177 NA
HETATM   10  C   UNL     1       8.267  22.997  55.641  1.00  0.00     0.068 A 
HETATM   11  C   UNL     1       8.376  22.279  56.937  1.00  0.00     0.073 C 
ENDROOT
BRANCH   2  12
HETATM   12  S   UNL     1       6.425  27.890  53.068  1.00  0.00    -0.082 SA
BRANCH  12  13
HETATM   13  C   UNL     1       4.965  27.169  52.249  1.00  0.00     0.185 C 
BRANCH  13  14
HETATM   14  C   UNL     1       4.604  27.843  50.926  1.00  0.00     0.227 C 
HETATM   15  N   UNL     1       5.407  27.429  49.884  1.00  0.00    -0.360 N 
HETATM   16  H   UNL     1       6.170  26.786  50.066  1.00  0.00     0.162 HD
HETATM   17  O   UNL     1       3.676  28.639  50.791  1.00  0.00    -0.273 OA
BRANCH  15  18
HETATM   18  C   UNL     1       5.142  27.750  48.491  1.00  0.00     0.127 C 
BRANCH  18  19
HETATM   19  C   UNL     1       4.234  26.742  47.779  1.00  0.00     0.058 C 
BRANCH  19  20
HETATM   20  C   UNL     1       2.931  27.383  47.356  1.00  0.00    -0.057 A 
HETATM   21  C   UNL     1       1.845  26.596  46.941  1.00  0.00     0.009 A 
HETATM   22  C   UNL     1       0.668  27.195  46.485  1.00  0.00     0.025 A 
HETATM   23  C   UNL     1       0.566  28.587  46.460  1.00  0.00     0.074 A 
HETATM   24  C   UNL     1       1.633  29.385  46.880  1.00  0.00     0.025 A 
HETATM   25  C   UNL     1       2.809  28.781  47.331  1.00  0.00     0.009 A 
BRANCH  23  26
HETATM   26  S   UNL     1      -0.891  29.344  45.798  1.00  0.00     0.239 S 
HETATM   27  O   UNL     1      -2.026  28.491  46.057  1.00  0.00    -0.206 OA
HETATM   28  O   UNL     1      -0.882  30.748  46.135  1.00  0.00    -0.206 OA
BRANCH  26  29
HETATM   29  N   UNL     1      -0.614  29.258  44.145  1.00  0.00    -0.225 NA
HETATM   30  H   UNL     1      -1.479  29.004  43.664  1.00  0.00     0.136 HD
HETATM   31  H   UNL     1      -0.214  30.138  43.817  1.00  0.00     0.136 HD
ENDBRANCH  26  29
ENDBRANCH  23  26
ENDBRANCH  19  20
ENDBRANCH  18  19
ENDBRANCH  15  18
ENDBRANCH  13  14
ENDBRANCH  12  13
ENDBRANCH   2  12
BRANCH   1  32
HETATM   32  C   UNL     1       6.309  27.570  56.078  1.00  0.00     0.076 A 
HETATM   33  C   UNL     1       7.275  28.460  56.570  1.00  0.00     0.096 A 
HETATM   34  C   UNL     1       6.846  29.606  57.236  1.00  0.00     0.039 A 
HETATM   35  C   UNL     1       5.478  29.817  57.444  1.00  0.00     0.003 A 
HETATM   36  C   UNL     1       4.532  28.895  56.982  1.00  0.00     0.002 A 
HETATM   37  C   UNL     1       4.943  27.755  56.294  1.00  0.00     0.033 A 
BRANCH  33  38
HETATM   38  O   UNL     1       8.591  28.203  56.300  1.00  0.00    -0.349 OA
BRANCH  38  39
HETATM   39  C   UNL     1       9.345  29.339  55.849  1.00  0.00     0.171 C 
HETATM   40  C   UNL     1      10.602  29.476  56.686  1.00  0.00     0.034 C 
ENDBRANCH  38  39
ENDBRANCH  33  38
ENDBRANCH   1  32
BRANCH   6  41
HETATM   41  N   UNL     1       6.801  25.190  57.477  1.00  0.00    -0.384 N 
HETATM   42  H   UNL     1       5.835  25.053  57.753  1.00  0.00     0.157 HD
HETATM   43  H   UNL     1       7.346  25.731  58.139  1.00  0.00     0.157 HD
ENDBRANCH   6  41
TORSDOF 12
ENDMDL
MODEL 7
REMARK VINA RESULT:      -8.5      7.040     10.030
REMARK  12 active torsions:
REMARK  status: ('A' for Active; 'I' for Inactive)
REMARK    1  A    between atoms: C_2  and  O_3 
REMARK    2  A    between atoms: O_3  and  C_4 
REMARK    3  A    between atoms: C_5  and  N_6 
REMARK    4  A    between atoms: C_7  and  S_8 
REMARK    5  A    between atoms: S_8  and  C_9 
REMARK    6  A    between atoms: C_9  and  C_10 
REMARK       I    between atoms: C_10  and  N_11 
REMARK    7  A    between atoms: N_11  and  C_12 
REMARK    8  A    between atoms: C_12  and  C_13 
REMARK    9  A    between atoms: C_13  and  C_14 
REMARK   10  A    between atoms: C_17  and  S_18 
REMARK   11  A    between atoms: S_18  and  N_19 
REMARK   12  A    between atoms: C_28  and  N_29 
ROOT
HETATM    1  N   UNL     1       4.016  29.764  49.152  1.00  0.00    -0.273 N 
HETATM    2  C   UNL     1       3.939  30.081  50.474  1.00  0.00     0.177 A 
HETATM    3  N   UNL     1       4.447  31.199  51.040  1.00  0.00    -0.204 NA
HETATM    4  C   UNL     1       5.026  31.990  50.136  1.00  0.00     0.162 A 
HETATM    5  C   UNL     1       5.120  31.768  48.779  1.00  0.00     0.081 A 
HETATM    6  C   UNL     1       4.566  30.600  48.229  1.00  0.00     0.124 A 
HETATM    7  N   UNL     1       5.634  33.186  50.386  1.00  0.00    -0.260 N 
HETATM    8  H   UNL     1       5.743  33.655  51.279  1.00  0.00     0.191 HD
HETATM    9  N   UNL     1       6.131  33.765  49.284  1.00  0.00    -0.177 NA
HETATM   10  C   UNL     1       5.835  32.908  48.299  1.00  0.00     0.068 A 
HETATM   11  C   UNL     1       6.270  33.218  46.912  1.00  0.00     0.073 C 
ENDROOT
BRANCH   2  12
HETATM   12  S   UNL     1       3.088  29.012  51.651  1.00  0.00    -0.082 SA
BRANCH  12  13
HETATM   13  C   UNL     1       4.396  28.832  52.908  1.00  0.00     0.185 C 
BRANCH  13  14
HETATM   14  C   UNL     1       4.716  27.381  53.262  1.00  0.00     0.227 C 
HETATM   15  N   UNL     1       4.696  26.550  52.161  1.00  0.00    -0.360 N 
HETATM   16  H   UNL     1       4.434  26.926  51.256  1.00  0.00     0.162 HD
HETATM   17  O   UNL     1       4.999  26.995  54.395  1.00  0.00    -0.273 OA
BRANCH  15  18
HETATM   18  C   UNL     1       5.170  25.176  52.184  1.00  0.00     0.127 C 
BRANCH  18  19
HETATM   19  C   UNL     1       6.696  25.041  52.213  1.00  0.00     0.058 C 
BRANCH  19  20
HETATM   20  C   UNL     1       7.135  24.028  53.248  1.00  0.00    -0.057 A 
HETATM   21  C   UNL     1       7.683  22.796  52.859  1.00  0.00     0.009 A 
HETATM   22  C   UNL     1       8.022  21.836  53.815  1.00  0.00     0.025 A 
HETATM   23  C   UNL     1       7.830  22.113  55.170  1.00  0.00     0.074 A 
HETATM   24  C   UNL     1       7.297  23.339  55.575  1.00  0.00     0.025 A 
HETATM   25  C   UNL     1       6.956  24.293  54.615  1.00  0.00     0.009 A 
BRANCH  23  26
HETATM   26  S   UNL     1       8.176  20.863  56.375  1.00  0.00     0.239 S 
HETATM   27  O   UNL     1       8.476  21.494  57.638  1.00  0.00    -0.206 OA
HETATM   28  O   UNL     1       7.200  19.808  56.246  1.00  0.00    -0.206 OA
BRANCH  26  29
HETATM   29  N   UNL     1       9.627  20.228  55.818  1.00  0.00    -0.225 NA
HETATM   30  H   UNL     1      10.404  20.798  56.156  1.00  0.00     0.136 HD
HETATM   31  H   UNL     1       9.698  19.246  56.089  1.00  0.00     0.136 HD
ENDBRANCH  26  29
ENDBRANCH  23  26
ENDBRANCH  19  20
ENDBRANCH  18  19
ENDBRANCH  15  18
ENDBRANCH  13  14
ENDBRANCH  12  13
ENDBRANCH   2  12
BRANCH   1  32
HETATM   32  C   UNL     1       3.622  28.452  48.722  1.00  0.00     0.076 A 
HETATM   33  C   UNL     1       2.276  28.238  48.389  1.00  0.00     0.096 A 
HETATM   34  C   UNL     1       1.890  26.973  47.954  1.00  0.00     0.039 A 
HETATM   35  C   UNL     1       2.831  25.937  47.910  1.00  0.00     0.003 A 
HETATM   36  C   UNL     1       4.160  26.160  48.288  1.00  0.00     0.002 A 
HETATM   37  C   UNL     1       4.568  27.426  48.703  1.00  0.00     0.033 A 
BRANCH  33  38
HETATM   38  O   UNL     1       1.422  29.307  48.425  1.00  0.00    -0.349 OA
BRANCH  38  39
HETATM   39  C   UNL     1       1.019  29.799  47.138  1.00  0.00     0.171 C 
HETATM   40  C   UNL     1       0.940  31.313  47.176  1.00  0.00     0.034 C 
ENDBRANCH  38  39
ENDBRANCH  33  38
ENDBRANCH   1  32
BRANCH   6  41
HETATM   41  N   UNL     1       4.595  30.313  46.864  1.00  0.00    -0.384 N 
HETATM   42  H   UNL     1       5.054  30.983  46.256  1.00  0.00     0.157 HD
HETATM   43  H   UNL     1       3.808  29.840  46.434  1.00  0.00     0.157 HD
ENDBRANCH   6  41
TORSDOF 12
ENDMDL
MODEL 8
REMARK VINA RESULT:      -8.4      2.570      4.797
REMARK  12 active torsions:
REMARK  status: ('A' for Active; 'I' for Inactive)
REMARK    1  A    between atoms: C_2  and  O_3 
REMARK    2  A    between atoms: O_3  and  C_4 
REMARK    3  A    between atoms: C_5  and  N_6 
REMARK    4  A    between atoms: C_7  and  S_8 
REMARK    5  A    between atoms: S_8  and  C_9 
REMARK    6  A    between atoms: C_9  and  C_10 
REMARK       I    between atoms: C_10  and  N_11 
REMARK    7  A    between atoms: N_11  and  C_12 
REMARK    8  A    between atoms: C_12  and  C_13 
REMARK    9  A    between atoms: C_13  and  C_14 
REMARK   10  A    between atoms: C_17  and  S_18 
REMARK   11  A    between atoms: S_18  and  N_19 
REMARK   12  A    between atoms: C_28  and  N_29 
ROOT
HETATM    1  N   UNL     1       6.960  28.621  55.458  1.00  0.00    -0.273 N 
HETATM    2  C   UNL     1       6.009  28.777  56.419  1.00  0.00     0.177 A 
HETATM    3  N   UNL     1       6.229  29.257  57.665  1.00  0.00    -0.204 NA
HETATM    4  C   UNL     1       7.507  29.591  57.846  1.00  0.00     0.162 A 
HETATM    5  C   UNL     1       8.527  29.500  56.923  1.00  0.00     0.081 A 
HETATM    6  C   UNL     1       8.253  29.010  55.636  1.00  0.00     0.124 A 
HETATM    7  N   UNL     1       8.051  30.098  58.991  1.00  0.00    -0.260 N 
HETATM    8  H   UNL     1       7.582  30.298  59.868  1.00  0.00     0.191 HD
HETATM    9  N   UNL     1       9.365  30.342  58.886  1.00  0.00    -0.177 NA
HETATM   10  C   UNL     1       9.671  29.973  57.636  1.00  0.00     0.068 A 
HETATM   11  C   UNL     1      11.079  30.078  57.173  1.00  0.00     0.073 C 
ENDROOT
BRANCH   2  12
HETATM   12  S   UNL     1       4.280  28.374  56.108  1.00  0.00    -0.082 SA
BRANCH  12  13
HETATM   13  C   UNL     1       3.695  29.982  55.476  1.00  0.00     0.185 C 
BRANCH  13  14
HETATM   14  C   UNL     1       3.419  31.011  56.571  1.00  0.00     0.227 C 
HETATM   15  N   UNL     1       3.580  32.309  56.131  1.00  0.00    -0.360 N 
HETATM   16  H   UNL     1       3.903  32.479  55.185  1.00  0.00     0.162 HD
HETATM   17  O   UNL     1       3.056  30.723  57.710  1.00  0.00    -0.273 OA
BRANCH  15  18
HETATM   18  C   UNL     1       3.176  33.473  56.902  1.00  0.00     0.127 C 
BRANCH  18  19
HETATM   19  C   UNL     1       4.344  34.269  57.492  1.00  0.00     0.058 C 
BRANCH  19  20
HETATM   20  C   UNL     1       4.641  33.834  58.910  1.00  0.00    -0.057 A 
HETATM   21  C   UNL     1       5.659  32.904  59.178  1.00  0.00     0.009 A 
HETATM   22  C   UNL     1       5.882  32.452  60.481  1.00  0.00     0.025 A 
HETATM   23  C   UNL     1       5.099  32.945  61.527  1.00  0.00     0.074 A 
HETATM   24  C   UNL     1       4.091  33.879  61.279  1.00  0.00     0.025 A 
HETATM   25  C   UNL     1       3.868  34.323  59.975  1.00  0.00     0.009 A 
BRANCH  23  26
HETATM   26  S   UNL     1       5.325  32.305  63.162  1.00  0.00     0.239 S 
HETATM   27  O   UNL     1       6.730  32.058  63.383  1.00  0.00    -0.206 OA
HETATM   28  O   UNL     1       4.518  33.074  64.079  1.00  0.00    -0.206 OA
BRANCH  26  29
HETATM   29  N   UNL     1       4.600  30.795  63.054  1.00  0.00    -0.225 NA
HETATM   30  H   UNL     1       3.966  30.661  63.844  1.00  0.00     0.136 HD
HETATM   31  H   UNL     1       4.143  30.698  62.147  1.00  0.00     0.136 HD
ENDBRANCH  26  29
ENDBRANCH  23  26
ENDBRANCH  19  20
ENDBRANCH  18  19
ENDBRANCH  15  18
ENDBRANCH  13  14
ENDBRANCH  12  13
ENDBRANCH   2  12
BRANCH   1  32
HETATM   32  C   UNL     1       6.631  27.908  54.256  1.00  0.00     0.076 A 
HETATM   33  C   UNL     1       6.832  26.520  54.231  1.00  0.00     0.096 A 
HETATM   34  C   UNL     1       6.499  25.818  53.075  1.00  0.00     0.039 A 
HETATM   35  C   UNL     1       6.026  26.512  51.955  1.00  0.00     0.003 A 
HETATM   36  C   UNL     1       5.873  27.903  51.985  1.00  0.00     0.002 A 
HETATM   37  C   UNL     1       6.179  28.616  53.142  1.00  0.00     0.033 A 
BRANCH  33  38
HETATM   38  O   UNL     1       7.266  25.907  55.376  1.00  0.00    -0.349 OA
BRANCH  38  39
HETATM   39  C   UNL     1       6.743  24.587  55.587  1.00  0.00     0.171 C 
HETATM   40  C   UNL     1       7.876  23.646  55.951  1.00  0.00     0.034 C 
ENDBRANCH  38  39
ENDBRANCH  33  38
ENDBRANCH   1  32
BRANCH   6  41
HETATM   41  N   UNL     1       9.221  28.913  54.636  1.00  0.00    -0.384 N 
HETATM   42  H   UNL     1       9.225  28.071  54.070  1.00  0.00     0.157 HD
HETATM   43  H   UNL     1      10.142  29.309  54.789  1.00  0.00     0.157 HD
ENDBRANCH   6  41
TORSDOF 12
ENDMDL
MODEL 9
REMARK VINA RESULT:      -8.3      3.643     11.069
REMARK  12 active torsions:
REMARK  status: ('A' for Active; 'I' for Inactive)
REMARK    1  A    between atoms: C_2  and  O_3 
REMARK    2  A    between atoms: O_3  and  C_4 
REMARK    3  A    between atoms: C_5  and  N_6 
REMARK    4  A    between atoms: C_7  and  S_8 
REMARK    5  A    between atoms: S_8  and  C_9 
REMARK    6  A    between atoms: C_9  and  C_10 
REMARK       I    between atoms: C_10  and  N_11 
REMARK    7  A    between atoms: N_11  and  C_12 
REMARK    8  A    between atoms: C_12  and  C_13 
REMARK    9  A    between atoms: C_13  and  C_14 
REMARK   10  A    between atoms: C_17  and  S_18 
REMARK   11  A    between atoms: S_18  and  N_19 
REMARK   12  A    between atoms: C_28  and  N_29 
ROOT
HETATM    1  N   UNL     1       4.717  35.902  63.115  1.00  0.00    -0.273 N 
HETATM    2  C   UNL     1       3.966  35.335  62.132  1.00  0.00     0.177 A 
HETATM    3  N   UNL     1       3.806  35.833  60.884  1.00  0.00    -0.204 NA
HETATM    4  C   UNL     1       4.501  36.957  60.709  1.00  0.00     0.162 A 
HETATM    5  C   UNL     1       5.312  37.583  61.633  1.00  0.00     0.081 A 
HETATM    6  C   UNL     1       5.462  37.024  62.913  1.00  0.00     0.124 A 
HETATM    7  N   UNL     1       4.548  37.705  59.569  1.00  0.00    -0.260 N 
HETATM    8  H   UNL     1       4.071  37.531  58.690  1.00  0.00     0.191 HD
HETATM    9  N   UNL     1       5.331  38.788  59.680  1.00  0.00    -0.177 NA
HETATM   10  C   UNL     1       5.794  38.732  60.935  1.00  0.00     0.068 A 
HETATM   11  C   UNL     1       6.688  39.813  61.426  1.00  0.00     0.073 C 
ENDROOT
BRANCH   2  12
HETATM   12  S   UNL     1       3.095  33.778  62.392  1.00  0.00    -0.082 SA
BRANCH  12  13
HETATM   13  C   UNL     1       4.414  32.605  61.936  1.00  0.00     0.185 C 
BRANCH  13  14
HETATM   14  C   UNL     1       4.499  32.324  60.436  1.00  0.00     0.227 C 
HETATM   15  N   UNL     1       5.788  32.068  60.018  1.00  0.00    -0.360 N 
HETATM   16  H   UNL     1       6.552  32.132  60.682  1.00  0.00     0.162 HD
HETATM   17  O   UNL     1       3.525  32.291  59.686  1.00  0.00    -0.273 OA
BRANCH  15  18
HETATM   18  C   UNL     1       6.116  31.565  58.694  1.00  0.00     0.127 C 
BRANCH  18  19
HETATM   19  C   UNL     1       7.435  30.788  58.628  1.00  0.00     0.058 C 
BRANCH  19  20
HETATM   20  C   UNL     1       7.251  29.457  57.932  1.00  0.00    -0.057 A 
HETATM   21  C   UNL     1       8.345  28.609  57.705  1.00  0.00     0.009 A 
HETATM   22  C   UNL     1       8.183  27.414  56.999  1.00  0.00     0.025 A 
HETATM   23  C   UNL     1       6.917  27.053  56.534  1.00  0.00     0.074 A 
HETATM   24  C   UNL     1       5.815  27.880  56.762  1.00  0.00     0.025 A 
HETATM   25  C   UNL     1       5.984  29.076  57.463  1.00  0.00     0.009 A 
BRANCH  23  26
HETATM   26  S   UNL     1       6.729  25.584  55.564  1.00  0.00     0.239 S 
HETATM   27  O   UNL     1       7.415  25.757  54.306  1.00  0.00    -0.206 OA
HETATM   28  O   UNL     1       6.939  24.435  56.412  1.00  0.00    -0.206 OA
BRANCH  26  29
HETATM   29  N   UNL     1       5.090  25.605  55.205  1.00  0.00    -0.225 NA
HETATM   30  H   UNL     1       4.644  24.766  55.580  1.00  0.00     0.136 HD
HETATM   31  H   UNL     1       4.674  26.472  55.548  1.00  0.00     0.136 HD
ENDBRANCH  26  29
ENDBRANCH  23  26
ENDBRANCH  19  20
ENDBRANCH  18  19
ENDBRANCH  15  18
ENDBRANCH  13  14
ENDBRANCH  12  13
ENDBRANCH   2  12
BRANCH   1  32
HETATM   32  C   UNL     1       4.631  35.383  64.451  1.00  0.00     0.076 A 
HETATM   33  C   UNL     1       5.637  34.511  64.891  1.00  0.00     0.096 A 
HETATM   34  C   UNL     1       5.569  34.016  66.191  1.00  0.00     0.039 A 
HETATM   35  C   UNL     1       4.482  34.355  67.006  1.00  0.00     0.003 A 
HETATM   36  C   UNL     1       3.465  35.193  66.533  1.00  0.00     0.002 A 
HETATM   37  C   UNL     1       3.531  35.714  65.243  1.00  0.00     0.033 A 
BRANCH  33  38
HETATM   38  O   UNL     1       6.685  34.253  64.048  1.00  0.00    -0.349 OA
BRANCH  38  39
HETATM   39  C   UNL     1       7.542  33.180  64.467  1.00  0.00     0.171 C 
HETATM   40  C   UNL     1       7.959  32.364  63.259  1.00  0.00     0.034 C 
ENDBRANCH  38  39
ENDBRANCH  33  38
ENDBRANCH   1  32
BRANCH   6  41
HETATM   41  N   UNL     1       6.284  37.578  63.894  1.00  0.00    -0.384 N 
HETATM   42  H   UNL     1       6.124  37.291  64.854  1.00  0.00     0.157 HD
HETATM   43  H   UNL     1       6.604  38.536  63.799  1.00  0.00     0.157 HD
ENDBRANCH   6  41
TORSDOF 12
ENDMDL
MODEL 10
REMARK VINA RESULT:      -8.3      3.829     10.104
REMARK  12 active torsions:
REMARK  status: ('A' for Active; 'I' for Inactive)
REMARK    1  A    between atoms: C_2  and  O_3 
REMARK    2  A    between atoms: O_3  and  C_4 
REMARK    3  A    between atoms: C_5  and  N_6 
REMARK    4  A    between atoms: C_7  and  S_8 
REMARK    5  A    between atoms: S_8  and  C_9 
REMARK    6  A    between atoms: C_9  and  C_10 
REMARK       I    between atoms: C_10  and  N_11 
REMARK    7  A    between atoms: N_11  and  C_12 
REMARK    8  A    between atoms: C_12  and  C_13 
REMARK    9  A    between atoms: C_13  and  C_14 
REMARK   10  A    between atoms: C_17  and  S_18 
REMARK   11  A    between atoms: S_18  and  N_19 
REMARK   12  A    between atoms: C_28  and  N_29 
ROOT
HETATM    1  N   UNL     1       5.031  32.091  58.050  1.00  0.00    -0.273 N 
HETATM    2  C   UNL     1       6.110  31.265  57.967  1.00  0.00     0.177 A 
HETATM    3  N   UNL     1       7.091  31.167  58.893  1.00  0.00    -0.204 NA
HETATM    4  C   UNL     1       6.869  31.970  59.934  1.00  0.00     0.162 A 
HETATM    5  C   UNL     1       5.792  32.811  60.118  1.00  0.00     0.081 A 
HETATM    6  C   UNL     1       4.787  32.871  59.138  1.00  0.00     0.124 A 
HETATM    7  N   UNL     1       7.672  32.109  61.030  1.00  0.00    -0.260 N 
HETATM    8  H   UNL     1       8.547  31.634  61.224  1.00  0.00     0.191 HD
HETATM    9  N   UNL     1       7.198  32.990  61.922  1.00  0.00    -0.177 NA
HETATM   10  C   UNL     1       6.060  33.434  61.375  1.00  0.00     0.068 A 
HETATM   11  C   UNL     1       5.267  34.468  62.090  1.00  0.00     0.073 C 
ENDROOT
BRANCH   2  12
HETATM   12  S   UNL     1       6.336  30.147  56.572  1.00  0.00    -0.082 SA
BRANCH  12  13
HETATM   13  C   UNL     1       5.816  28.579  57.343  1.00  0.00     0.185 C 
BRANCH  13  14
HETATM   14  C   UNL     1       5.543  27.459  56.340  1.00  0.00     0.227 C 
HETATM   15  N   UNL     1       6.017  27.751  55.078  1.00  0.00    -0.360 N 
HETATM   16  H   UNL     1       6.440  28.655  54.900  1.00  0.00     0.162 HD
HETATM   17  O   UNL     1       4.996  26.396  56.628  1.00  0.00    -0.273 OA
BRANCH  15  18
HETATM   18  C   UNL     1       6.078  26.778  54.000  1.00  0.00     0.127 C 
BRANCH  18  19
HETATM   19  C   UNL     1       7.490  26.265  53.699  1.00  0.00     0.058 C 
BRANCH  19  20
HETATM   20  C   UNL     1       7.618  24.793  54.022  1.00  0.00    -0.057 A 
HETATM   21  C   UNL     1       7.473  24.332  55.340  1.00  0.00     0.009 A 
HETATM   22  C   UNL     1       7.662  22.982  55.645  1.00  0.00     0.025 A 
HETATM   23  C   UNL     1       7.978  22.081  54.625  1.00  0.00     0.074 A 
HETATM   24  C   UNL     1       8.113  22.521  53.307  1.00  0.00     0.025 A 
HETATM   25  C   UNL     1       7.929  23.873  53.009  1.00  0.00     0.009 A 
BRANCH  23  26
HETATM   26  S   UNL     1       8.304  20.388  55.026  1.00  0.00     0.239 S 
HETATM   27  O   UNL     1       7.284  19.912  55.930  1.00  0.00    -0.206 OA
HETATM   28  O   UNL     1       8.661  19.683  53.818  1.00  0.00    -0.206 OA
BRANCH  26  29
HETATM   29  N   UNL     1       9.711  20.504  55.933  1.00  0.00    -0.225 NA
HETATM   30  H   UNL     1      10.382  19.800  55.618  1.00  0.00     0.136 HD
HETATM   31  H   UNL     1      10.073  21.457  55.886  1.00  0.00     0.136 HD
ENDBRANCH  26  29
ENDBRANCH  23  26
ENDBRANCH  19  20
ENDBRANCH  18  19
ENDBRANCH  15  18
ENDBRANCH  13  14
ENDBRANCH  12  13
ENDBRANCH   2  12
BRANCH   1  32
HETATM   32  C   UNL     1       4.180  32.248  56.904  1.00  0.00     0.076 A 
HETATM   33  C   UNL     1       4.335  33.396  56.113  1.00  0.00     0.096 A 
HETATM   34  C   UNL     1       3.525  33.547  54.991  1.00  0.00     0.039 A 
HETATM   35  C   UNL     1       2.547  32.586  54.707  1.00  0.00     0.003 A 
HETATM   36  C   UNL     1       2.379  31.468  55.532  1.00  0.00     0.002 A 
HETATM   37  C   UNL     1       3.197  31.291  56.646  1.00  0.00     0.033 A 
BRANCH  33  38
HETATM   38  O   UNL     1       5.334  34.274  56.436  1.00  0.00    -0.349 OA
BRANCH  38  39
HETATM   39  C   UNL     1       5.138  35.612  55.951  1.00  0.00     0.171 C 
HETATM   40  C   UNL     1       4.585  36.478  57.066  1.00  0.00     0.034 C 
ENDBRANCH  38  39
ENDBRANCH  33  38
ENDBRANCH   1  32
BRANCH   6  41
HETATM   41  N   UNL     1       3.652  33.674  59.260  1.00  0.00    -0.384 N 
HETATM   42  H   UNL     1       3.796  34.664  59.425  1.00  0.00     0.157 HD
HETATM   43  H   UNL     1       2.819  33.301  59.701  1.00  0.00     0.157 HD
ENDBRANCH   6  41
TORSDOF 12
ENDMDL
