MODEL 1
REMARK VINA RESULT:     -10.3      0.000      0.000
REMARK  3 active torsions:
REMARK  status: ('A' for Active; 'I' for Inactive)
REMARK    1  A    between atoms: O_2  and  C_3 
REMARK    2  A    between atoms: C_4  and  N_5 
REMARK       I    between atoms: N_5  and  C_6 
REMARK       I    between atoms: C_6  and  N_7 
REMARK    3  A    between atoms: C_10  and  C_11 
ROOT
HETATM    1  N   UNL     1       7.202  29.381  57.728  1.00  0.00    -0.306 N 
HETATM    2  C   UNL     1       6.232  28.483  57.343  1.00  0.00     0.323 C 
HETATM    3  N   UNL     1       6.737  27.234  56.955  1.00  0.00    -0.330 N 
HETATM    4  C   UNL     1       5.724  26.346  56.407  1.00  0.00     0.155 C 
HETATM    5  C   UNL     1       6.243  24.983  56.083  1.00  0.00     0.001 C 
HETATM    6  C   UNL     1       7.459  24.500  56.402  1.00  0.00    -0.046 C 
HETATM    7  C   UNL     1       8.439  25.404  57.105  1.00  0.00     0.059 C 
HETATM    8  C   UNL     1       7.768  26.605  57.780  1.00  0.00     0.132 C 
HETATM    9  O   UNL     1       5.035  28.754  57.302  1.00  0.00    -0.247 OA
HETATM   10  H   UNL     1       8.014  29.401  57.122  1.00  0.00     0.171 HD
ENDROOT
BRANCH   1  11
HETATM   11  C   UNL     1       6.917  30.587  58.404  1.00  0.00     0.071 A 
HETATM   12  C   UNL     1       7.656  30.920  59.548  1.00  0.00     0.095 A 
HETATM   13  C   UNL     1       7.349  32.065  60.286  1.00  0.00     0.041 A 
HETATM   14  C   UNL     1       6.311  32.898  59.866  1.00  0.00     0.026 A 
HETATM   15  C   UNL     1       5.587  32.579  58.717  1.00  0.00     0.036 A 
HETATM   16  C   UNL     1       5.885  31.431  57.984  1.00  0.00     0.056 A 
HETATM   17 CL   UNL     1       4.294  33.600  58.217  1.00  0.00    -0.084 Cl
BRANCH  12  18
HETATM   18  O   UNL     1       8.690  30.099  59.926  1.00  0.00    -0.354 OA
HETATM   19  C   UNL     1       9.199  30.497  61.203  1.00  0.00     0.210 C 
ENDBRANCH  12  18
ENDBRANCH   1  11
BRANCH   6  20
HETATM   20  C   UNL     1       7.860  23.130  56.182  1.00  0.00    -0.002 A 
HETATM   21  C   UNL     1       7.966  22.362  54.967  1.00  0.00     0.003 A 
HETATM   22  C   UNL     1       8.464  21.101  55.317  1.00  0.00     0.043 A 
HETATM   23  C   UNL     1       7.703  22.592  53.596  1.00  0.00     0.014 A 
HETATM   24  C   UNL     1       8.726  20.089  54.386  1.00  0.00     0.030 A 
HETATM   25  N   UNL     1       8.625  21.089  56.680  1.00  0.00    -0.364 N 
HETATM   26  C   UNL     1       8.473  20.359  53.041  1.00  0.00     0.002 A 
HETATM   27  C   UNL     1       7.965  21.592  52.649  1.00  0.00     0.001 A 
HETATM   28  H   UNL     1       8.969  20.299  57.209  1.00  0.00     0.165 HD
HETATM   29  C   UNL     1       8.276  22.299  57.207  1.00  0.00     0.101 A 
ENDBRANCH   6  20
TORSDOF 3
ENDMDL
MODEL 2
REMARK VINA RESULT:     -10.2      5.824      7.748
REMARK  3 active torsions:
REMARK  status: ('A' for Active; 'I' for Inactive)
REMARK    1  A    between atoms: O_2  and  C_3 
REMARK    2  A    between atoms: C_4  and  N_5 
REMARK       I    between atoms: N_5  and  C_6 
REMARK       I    between atoms: C_6  and  N_7 
REMARK    3  A    between atoms: C_10  and  C_11 
ROOT
HETATM    1  N   UNL     1       3.830  27.561  50.815  1.00  0.00    -0.306 N 
HETATM    2  C   UNL     1       5.057  27.836  51.373  1.00  0.00     0.323 C 
HETATM    3  N   UNL     1       5.471  26.896  52.327  1.00  0.00    -0.330 N 
HETATM    4  C   UNL     1       6.692  27.273  53.020  1.00  0.00     0.155 C 
HETATM    5  C   UNL     1       7.184  26.227  53.966  1.00  0.00     0.001 C 
HETATM    6  C   UNL     1       6.703  24.975  54.087  1.00  0.00    -0.046 C 
HETATM    7  C   UNL     1       5.523  24.566  53.243  1.00  0.00     0.059 C 
HETATM    8  C   UNL     1       5.314  25.473  52.026  1.00  0.00     0.132 C 
HETATM    9  O   UNL     1       5.720  28.832  51.098  1.00  0.00    -0.247 OA
HETATM   10  H   UNL     1       3.126  27.268  51.482  1.00  0.00     0.171 HD
ENDROOT
BRANCH   1  11
HETATM   11  C   UNL     1       3.342  28.208  49.658  1.00  0.00     0.071 A 
HETATM   12  C   UNL     1       3.513  27.594  48.410  1.00  0.00     0.095 A 
HETATM   13  C   UNL     1       3.113  28.241  47.238  1.00  0.00     0.041 A 
HETATM   14  C   UNL     1       2.516  29.499  47.314  1.00  0.00     0.026 A 
HETATM   15  C   UNL     1       2.327  30.104  48.558  1.00  0.00     0.036 A 
HETATM   16  C   UNL     1       2.735  29.464  49.728  1.00  0.00     0.056 A 
HETATM   17 CL   UNL     1       1.610  31.666  48.643  1.00  0.00    -0.084 Cl
BRANCH  12  18
HETATM   18  O   UNL     1       4.078  26.343  48.362  1.00  0.00    -0.354 OA
HETATM   19  C   UNL     1       3.113  25.378  47.931  1.00  0.00     0.210 C 
ENDBRANCH  12  18
ENDBRANCH   1  11
BRANCH   6  20
HETATM   20  C   UNL     1       7.304  23.962  54.923  1.00  0.00    -0.002 A 
HETATM   21  C   UNL     1       7.744  22.625  54.615  1.00  0.00     0.003 A 
HETATM   22  C   UNL     1       8.312  22.097  55.781  1.00  0.00     0.043 A 
HETATM   23  C   UNL     1       7.734  21.792  53.471  1.00  0.00     0.014 A 
HETATM   24  C   UNL     1       8.876  20.818  55.854  1.00  0.00     0.030 A 
HETATM   25  N   UNL     1       8.197  23.052  56.760  1.00  0.00    -0.364 N 
HETATM   26  C   UNL     1       8.867  20.034  54.701  1.00  0.00     0.002 A 
HETATM   27  C   UNL     1       8.301  20.511  53.524  1.00  0.00     0.001 A 
HETATM   28  H   UNL     1       8.522  22.941  57.710  1.00  0.00     0.165 HD
HETATM   29  C   UNL     1       7.605  24.175  56.256  1.00  0.00     0.101 A 
ENDBRANCH   6  20
TORSDOF 3
ENDMDL
MODEL 3
REMARK VINA RESULT:     -10.0      1.873      3.128
REMARK  3 active torsions:
REMARK  status: ('A' for Active; 'I' for Inactive)
REMARK    1  A    between atoms: O_2  and  C_3 
REMARK    2  A    between atoms: C_4  and  N_5 
REMARK       I    between atoms: N_5  and  C_6 
REMARK       I    between atoms: C_6  and  N_7 
REMARK    3  A    between atoms: C_10  and  C_11 
ROOT
HETATM    1  N   UNL     1       4.915  28.824  57.464  1.00  0.00    -0.306 N 
HETATM    2  C   UNL     1       6.262  28.555  57.380  1.00  0.00     0.323 C 
HETATM    3  N   UNL     1       6.563  27.190  57.266  1.00  0.00    -0.330 N 
HETATM    4  C   UNL     1       7.987  26.904  57.332  1.00  0.00     0.155 C 
HETATM    5  C   UNL     1       8.313  25.462  57.115  1.00  0.00     0.001 C 
HETATM    6  C   UNL     1       7.452  24.505  56.720  1.00  0.00    -0.046 C 
HETATM    7  C   UNL     1       6.004  24.867  56.516  1.00  0.00     0.059 C 
HETATM    8  C   UNL     1       5.783  26.374  56.337  1.00  0.00     0.132 C 
HETATM    9  O   UNL     1       7.132  29.419  57.439  1.00  0.00    -0.247 OA
HETATM   10  H   UNL     1       4.406  28.205  58.084  1.00  0.00     0.171 HD
ENDROOT
BRANCH   1  11
HETATM   11  C   UNL     1       4.373  30.119  57.313  1.00  0.00     0.071 A 
HETATM   12  C   UNL     1       3.831  30.492  56.076  1.00  0.00     0.095 A 
HETATM   13  C   UNL     1       3.357  31.790  55.869  1.00  0.00     0.041 A 
HETATM   14  C   UNL     1       3.403  32.716  56.912  1.00  0.00     0.026 A 
HETATM   15  C   UNL     1       3.925  32.340  58.151  1.00  0.00     0.036 A 
HETATM   16  C   UNL     1       4.408  31.048  58.357  1.00  0.00     0.056 A 
HETATM   17 CL   UNL     1       3.998  33.493  59.427  1.00  0.00    -0.084 Cl
BRANCH  12  18
HETATM   18  O   UNL     1       3.771  29.556  55.073  1.00  0.00    -0.354 OA
HETATM   19  C   UNL     1       3.639  30.198  53.801  1.00  0.00     0.210 C 
ENDBRANCH  12  18
ENDBRANCH   1  11
BRANCH   6  20
HETATM   20  C   UNL     1       7.850  23.155  56.395  1.00  0.00    -0.002 A 
HETATM   21  C   UNL     1       7.917  22.470  55.128  1.00  0.00     0.003 A 
HETATM   22  C   UNL     1       8.430  21.191  55.376  1.00  0.00     0.043 A 
HETATM   23  C   UNL     1       7.606  22.790  53.786  1.00  0.00     0.014 A 
HETATM   24  C   UNL     1       8.663  20.245  54.370  1.00  0.00     0.030 A 
HETATM   25  N   UNL     1       8.637  21.088  56.729  1.00  0.00    -0.364 N 
HETATM   26  C   UNL     1       8.364  20.603  53.056  1.00  0.00     0.002 A 
HETATM   27  C   UNL     1       7.839  21.857  52.765  1.00  0.00     0.001 A 
HETATM   28  H   UNL     1       9.002  20.267  57.192  1.00  0.00     0.165 HD
HETATM   29  C   UNL     1       8.303  22.259  57.347  1.00  0.00     0.101 A 
ENDBRANCH   6  20
TORSDOF 3
ENDMDL
MODEL 4
REMARK VINA RESULT:      -9.8      5.445      6.838
REMARK  3 active torsions:
REMARK  status: ('A' for Active; 'I' for Inactive)
REMARK    1  A    between atoms: O_2  and  C_3 
REMARK    2  A    between atoms: C_4  and  N_5 
REMARK       I    between atoms: N_5  and  C_6 
REMARK       I    between atoms: C_6  and  N_7 
REMARK    3  A    between atoms: C_10  and  C_11 
ROOT
HETATM    1  N   UNL     1       3.767  28.161  51.736  1.00  0.00    -0.306 N 
HETATM    2  C   UNL     1       5.118  28.185  51.994  1.00  0.00     0.323 C 
HETATM    3  N   UNL     1       5.556  27.146  52.829  1.00  0.00    -0.330 N 
HETATM    4  C   UNL     1       6.951  27.266  53.218  1.00  0.00     0.155 C 
HETATM    5  C   UNL     1       7.442  26.110  54.028  1.00  0.00     0.001 C 
HETATM    6  C   UNL     1       6.775  24.963  54.260  1.00  0.00    -0.046 C 
HETATM    7  C   UNL     1       5.379  24.811  53.714  1.00  0.00     0.059 C 
HETATM    8  C   UNL     1       5.070  25.790  52.576  1.00  0.00     0.132 C 
HETATM    9  O   UNL     1       5.875  29.054  51.570  1.00  0.00    -0.247 OA
HETATM   10  H   UNL     1       3.191  27.975  52.550  1.00  0.00     0.171 HD
ENDROOT
BRANCH   1  11
HETATM   11  C   UNL     1       3.158  28.933  50.723  1.00  0.00     0.071 A 
HETATM   12  C   UNL     1       2.695  30.219  51.030  1.00  0.00     0.095 A 
HETATM   13  C   UNL     1       2.019  30.980  50.073  1.00  0.00     0.041 A 
HETATM   14  C   UNL     1       1.823  30.461  48.792  1.00  0.00     0.026 A 
HETATM   15  C   UNL     1       2.300  29.188  48.479  1.00  0.00     0.036 A 
HETATM   16  C   UNL     1       2.967  28.423  49.436  1.00  0.00     0.056 A 
HETATM   17 CL   UNL     1       2.037  28.546  46.903  1.00  0.00    -0.084 Cl
BRANCH  12  18
HETATM   18  O   UNL     1       2.923  30.719  52.289  1.00  0.00    -0.354 OA
HETATM   19  C   UNL     1       3.795  31.852  52.223  1.00  0.00     0.210 C 
ENDBRANCH  12  18
ENDBRANCH   1  11
BRANCH   6  20
HETATM   20  C   UNL     1       7.350  23.824  54.937  1.00  0.00    -0.002 A 
HETATM   21  C   UNL     1       7.765  22.539  54.433  1.00  0.00     0.003 A 
HETATM   22  C   UNL     1       8.315  21.831  55.509  1.00  0.00     0.043 A 
HETATM   23  C   UNL     1       7.744  21.887  53.178  1.00  0.00     0.014 A 
HETATM   24  C   UNL     1       8.853  20.543  55.392  1.00  0.00     0.030 A 
HETATM   25  N   UNL     1       8.215  22.632  56.619  1.00  0.00    -0.364 N 
HETATM   26  C   UNL     1       8.834  19.941  54.134  1.00  0.00     0.002 A 
HETATM   27  C   UNL     1       8.284  20.600  53.040  1.00  0.00     0.001 A 
HETATM   28  H   UNL     1       8.533  22.372  57.543  1.00  0.00     0.165 HD
HETATM   29  C   UNL     1       7.648  23.829  56.288  1.00  0.00     0.101 A 
ENDBRANCH   6  20
TORSDOF 3
ENDMDL
MODEL 5
REMARK VINA RESULT:      -9.8      2.877      4.620
REMARK  3 active torsions:
REMARK  status: ('A' for Active; 'I' for Inactive)
REMARK    1  A    between atoms: O_2  and  C_3 
REMARK    2  A    between atoms: C_4  and  N_5 
REMARK       I    between atoms: N_5  and  C_6 
REMARK       I    between atoms: C_6  and  N_7 
REMARK    3  A    between atoms: C_10  and  C_11 
ROOT
HETATM    1  N   UNL     1       6.798  31.264  60.442  1.00  0.00    -0.306 N 
HETATM    2  C   UNL     1       7.785  31.318  59.484  1.00  0.00     0.323 C 
HETATM    3  N   UNL     1       7.746  30.257  58.568  1.00  0.00    -0.330 N 
HETATM    4  C   UNL     1       8.878  30.238  57.656  1.00  0.00     0.155 C 
HETATM    5  C   UNL     1       8.788  29.165  56.621  1.00  0.00     0.001 C 
HETATM    6  C   UNL     1       7.721  28.379  56.383  1.00  0.00    -0.046 C 
HETATM    7  C   UNL     1       6.501  28.525  57.256  1.00  0.00     0.059 C 
HETATM    8  C   UNL     1       6.456  29.863  58.003  1.00  0.00     0.132 C 
HETATM    9  O   UNL     1       8.649  32.189  59.448  1.00  0.00    -0.247 OA
HETATM   10  H   UNL     1       6.653  30.343  60.838  1.00  0.00     0.171 HD
ENDROOT
BRANCH   1  11
HETATM   11  C   UNL     1       6.479  32.349  61.288  1.00  0.00     0.071 A 
HETATM   12  C   UNL     1       5.588  33.330  60.834  1.00  0.00     0.095 A 
HETATM   13  C   UNL     1       5.310  34.455  61.613  1.00  0.00     0.041 A 
HETATM   14  C   UNL     1       5.910  34.592  62.865  1.00  0.00     0.026 A 
HETATM   15  C   UNL     1       6.783  33.607  63.327  1.00  0.00     0.036 A 
HETATM   16  C   UNL     1       7.069  32.487  62.547  1.00  0.00     0.056 A 
HETATM   17 CL   UNL     1       7.536  33.792  64.864  1.00  0.00    -0.084 Cl
BRANCH  12  18
HETATM   18  O   UNL     1       4.988  33.160  59.609  1.00  0.00    -0.354 OA
HETATM   19  C   UNL     1       3.596  32.873  59.773  1.00  0.00     0.210 C 
ENDBRANCH  12  18
ENDBRANCH   1  11
BRANCH   6  20
HETATM   20  C   UNL     1       7.639  27.449  55.281  1.00  0.00    -0.002 A 
HETATM   21  C   UNL     1       7.515  26.013  55.267  1.00  0.00     0.003 A 
HETATM   22  C   UNL     1       7.415  25.620  53.927  1.00  0.00     0.043 A 
HETATM   23  C   UNL     1       7.469  24.989  56.242  1.00  0.00     0.014 A 
HETATM   24  C   UNL     1       7.253  24.289  53.522  1.00  0.00     0.030 A 
HETATM   25  N   UNL     1       7.503  26.755  53.159  1.00  0.00    -0.364 N 
HETATM   26  C   UNL     1       7.191  23.309  54.513  1.00  0.00     0.002 A 
HETATM   27  C   UNL     1       7.301  23.652  55.855  1.00  0.00     0.001 A 
HETATM   28  H   UNL     1       7.464  26.769  52.150  1.00  0.00     0.165 HD
HETATM   29  C   UNL     1       7.629  27.855  53.959  1.00  0.00     0.101 A 
ENDBRANCH   6  20
TORSDOF 3
ENDMDL
MODEL 6
REMARK VINA RESULT:      -9.6      2.731      3.736
REMARK  3 active torsions:
REMARK  status: ('A' for Active; 'I' for Inactive)
REMARK    1  A    between atoms: O_2  and  C_3 
REMARK    2  A    between atoms: C_4  and  N_5 
REMARK       I    between atoms: N_5  and  C_6 
REMARK       I    between atoms: C_6  and  N_7 
REMARK    3  A    between atoms: C_10  and  C_11 
ROOT
HETATM    1  N   UNL     1       4.321  28.915  55.611  1.00  0.00    -0.306 N 
HETATM    2  C   UNL     1       5.664  28.741  55.856  1.00  0.00     0.323 C 
HETATM    3  N   UNL     1       6.046  27.400  56.003  1.00  0.00    -0.330 N 
HETATM    4  C   UNL     1       7.431  27.235  56.412  1.00  0.00     0.155 C 
HETATM    5  C   UNL     1       7.864  25.806  56.476  1.00  0.00     0.001 C 
HETATM    6  C   UNL     1       7.159  24.743  56.045  1.00  0.00    -0.046 C 
HETATM    7  C   UNL     1       5.776  24.965  55.488  1.00  0.00     0.059 C 
HETATM    8  C   UNL     1       5.531  26.414  55.054  1.00  0.00     0.132 C 
HETATM    9  O   UNL     1       6.458  29.670  55.976  1.00  0.00    -0.247 OA
HETATM   10  H   UNL     1       3.716  28.344  56.189  1.00  0.00     0.171 HD
ENDROOT
BRANCH   1  11
HETATM   11  C   UNL     1       3.766  30.135  55.166  1.00  0.00     0.071 A 
HETATM   12  C   UNL     1       3.041  30.924  56.069  1.00  0.00     0.095 A 
HETATM   13  C   UNL     1       2.413  32.097  55.645  1.00  0.00     0.041 A 
HETATM   14  C   UNL     1       2.529  32.498  54.313  1.00  0.00     0.026 A 
HETATM   15  C   UNL     1       3.266  31.724  53.417  1.00  0.00     0.036 A 
HETATM   16  C   UNL     1       3.886  30.547  53.836  1.00  0.00     0.056 A 
HETATM   17 CL   UNL     1       3.386  32.213  51.771  1.00  0.00    -0.084 Cl
BRANCH  12  18
HETATM   18  O   UNL     1       2.965  30.523  57.381  1.00  0.00    -0.354 OA
HETATM   19  C   UNL     1       3.760  31.378  58.209  1.00  0.00     0.210 C 
ENDBRANCH  12  18
ENDBRANCH   1  11
BRANCH   6  20
HETATM   20  C   UNL     1       7.681  23.397  56.008  1.00  0.00    -0.002 A 
HETATM   21  C   UNL     1       7.858  22.485  54.906  1.00  0.00     0.003 A 
HETATM   22  C   UNL     1       8.465  21.331  55.417  1.00  0.00     0.043 A 
HETATM   23  C   UNL     1       7.578  22.503  53.519  1.00  0.00     0.014 A 
HETATM   24  C   UNL     1       8.818  20.230  54.628  1.00  0.00     0.030 A 
HETATM   25  N   UNL     1       8.623  21.516  56.768  1.00  0.00    -0.364 N 
HETATM   26  C   UNL     1       8.546  20.293  53.261  1.00  0.00     0.002 A 
HETATM   27  C   UNL     1       7.931  21.412  52.712  1.00  0.00     0.001 A 
HETATM   28  H   UNL     1       9.035  20.839  57.395  1.00  0.00     0.165 HD
HETATM   29  C   UNL     1       8.167  22.751  57.131  1.00  0.00     0.101 A 
ENDBRANCH   6  20
TORSDOF 3
ENDMDL
MODEL 7
REMARK VINA RESULT:      -9.4      1.889      2.547
REMARK  3 active torsions:
REMARK  status: ('A' for Active; 'I' for Inactive)
REMARK    1  A    between atoms: O_2  and  C_3 
REMARK    2  A    between atoms: C_4  and  N_5 
REMARK       I    between atoms: N_5  and  C_6 
REMARK       I    between atoms: C_6  and  N_7 
REMARK    3  A    between atoms: C_10  and  C_11 
ROOT
HETATM    1  N   UNL     1       6.689  30.797  57.896  1.00  0.00    -0.306 N 
HETATM    2  C   UNL     1       5.703  29.950  57.442  1.00  0.00     0.323 C 
HETATM    3  N   UNL     1       6.150  29.012  56.501  1.00  0.00    -0.330 N 
HETATM    4  C   UNL     1       5.077  28.225  55.915  1.00  0.00     0.155 C 
HETATM    5  C   UNL     1       5.562  27.161  54.984  1.00  0.00     0.001 C 
HETATM    6  C   UNL     1       6.845  26.795  54.796  1.00  0.00    -0.046 C 
HETATM    7  C   UNL     1       7.928  27.538  55.534  1.00  0.00     0.059 C 
HETATM    8  C   UNL     1       7.405  28.305  56.754  1.00  0.00     0.132 C 
HETATM    9  O   UNL     1       4.529  30.026  57.792  1.00  0.00    -0.247 OA
HETATM   10  H   UNL     1       7.297  31.155  57.169  1.00  0.00     0.171 HD
ENDROOT
BRANCH   1  11
HETATM   11  C   UNL     1       6.535  31.628  59.027  1.00  0.00     0.071 A 
HETATM   12  C   UNL     1       7.433  31.501  60.095  1.00  0.00     0.095 A 
HETATM   13  C   UNL     1       7.265  32.253  61.260  1.00  0.00     0.041 A 
HETATM   14  C   UNL     1       6.205  33.155  61.352  1.00  0.00     0.026 A 
HETATM   15  C   UNL     1       5.321  33.298  60.282  1.00  0.00     0.036 A 
HETATM   16  C   UNL     1       5.481  32.541  59.121  1.00  0.00     0.056 A 
HETATM   17 CL   UNL     1       4.003  34.398  60.409  1.00  0.00    -0.084 Cl
BRANCH  12  18
HETATM   18  O   UNL     1       8.485  30.626  59.971  1.00  0.00    -0.354 OA
HETATM   19  C   UNL     1       9.158  30.478  61.225  1.00  0.00     0.210 C 
ENDBRANCH  12  18
ENDBRANCH   1  11
BRANCH   6  20
HETATM   20  C   UNL     1       7.246  25.670  53.984  1.00  0.00    -0.002 A 
HETATM   21  C   UNL     1       7.436  24.282  54.325  1.00  0.00     0.003 A 
HETATM   22  C   UNL     1       7.767  23.608  53.144  1.00  0.00     0.043 A 
HETATM   23  C   UNL     1       7.360  23.509  55.507  1.00  0.00     0.014 A 
HETATM   24  C   UNL     1       7.998  22.228  53.081  1.00  0.00     0.030 A 
HETATM   25  N   UNL     1       7.806  24.541  52.137  1.00  0.00    -0.364 N 
HETATM   26  C   UNL     1       7.894  21.495  54.263  1.00  0.00     0.002 A 
HETATM   27  C   UNL     1       7.583  22.125  55.462  1.00  0.00     0.001 A 
HETATM   28  H   UNL     1       8.024  24.334  51.172  1.00  0.00     0.165 HD
HETATM   29  C   UNL     1       7.488  25.775  52.626  1.00  0.00     0.101 A 
ENDBRANCH   6  20
TORSDOF 3
ENDMDL
MODEL 8
REMARK VINA RESULT:      -9.4      5.262      6.255
REMARK  3 active torsions:
REMARK  status: ('A' for Active; 'I' for Inactive)
REMARK    1  A    between atoms: O_2  and  C_3 
REMARK    2  A    between atoms: C_4  and  N_5 
REMARK       I    between atoms: N_5  and  C_6 
REMARK       I    between atoms: C_6  and  N_7 
REMARK    3  A    between atoms: C_10  and  C_11 
ROOT
HETATM    1  N   UNL     1       5.751  29.323  51.194  1.00  0.00    -0.306 N 
HETATM    2  C   UNL     1       5.142  28.090  51.148  1.00  0.00     0.323 C 
HETATM    3  N   UNL     1       5.791  27.107  51.908  1.00  0.00    -0.330 N 
HETATM    4  C   UNL     1       5.231  25.776  51.733  1.00  0.00     0.155 C 
HETATM    5  C   UNL     1       5.860  24.748  52.615  1.00  0.00     0.001 C 
HETATM    6  C   UNL     1       6.731  24.984  53.615  1.00  0.00    -0.046 C 
HETATM    7  C   UNL     1       7.181  26.400  53.867  1.00  0.00     0.059 C 
HETATM    8  C   UNL     1       6.239  27.445  53.259  1.00  0.00     0.132 C 
HETATM    9  O   UNL     1       4.144  27.851  50.474  1.00  0.00    -0.247 OA
HETATM   10  H   UNL     1       6.760  29.291  51.107  1.00  0.00     0.171 HD
ENDROOT
BRANCH   1  11
HETATM   11  C   UNL     1       5.137  30.508  50.734  1.00  0.00     0.071 A 
HETATM   12  C   UNL     1       4.307  31.229  51.605  1.00  0.00     0.095 A 
HETATM   13  C   UNL     1       3.623  32.362  51.160  1.00  0.00     0.041 A 
HETATM   14  C   UNL     1       3.784  32.794  49.844  1.00  0.00     0.026 A 
HETATM   15  C   UNL     1       4.625  32.089  48.981  1.00  0.00     0.036 A 
HETATM   16  C   UNL     1       5.302  30.951  49.419  1.00  0.00     0.056 A 
HETATM   17 CL   UNL     1       4.804  32.615  47.351  1.00  0.00    -0.084 Cl
BRANCH  12  18
HETATM   18  O   UNL     1       4.185  30.800  52.904  1.00  0.00    -0.354 OA
HETATM   19  C   UNL     1       3.252  31.622  53.612  1.00  0.00     0.210 C 
ENDBRANCH  12  18
ENDBRANCH   1  11
BRANCH   6  20
HETATM   20  C   UNL     1       7.204  23.966  54.523  1.00  0.00    -0.002 A 
HETATM   21  C   UNL     1       7.699  22.635  54.272  1.00  0.00     0.003 A 
HETATM   22  C   UNL     1       8.084  22.097  55.506  1.00  0.00     0.043 A 
HETATM   23  C   UNL     1       7.873  21.816  53.132  1.00  0.00     0.014 A 
HETATM   24  C   UNL     1       8.642  20.821  55.652  1.00  0.00     0.030 A 
HETATM   25  N   UNL     1       7.811  23.040  56.466  1.00  0.00    -0.364 N 
HETATM   26  C   UNL     1       8.817  20.051  54.502  1.00  0.00     0.002 A 
HETATM   27  C   UNL     1       8.436  20.538  53.258  1.00  0.00     0.001 A 
HETATM   28  H   UNL     1       7.986  22.919  57.454  1.00  0.00     0.165 HD
HETATM   29  C   UNL     1       7.294  24.164  55.889  1.00  0.00     0.101 A 
ENDBRANCH   6  20
TORSDOF 3
ENDMDL
MODEL 9
REMARK VINA RESULT:      -9.3      1.890      3.242
REMARK  3 active torsions:
REMARK  status: ('A' for Active; 'I' for Inactive)
REMARK    1  A    between atoms: O_2  and  C_3 
REMARK    2  A    between atoms: C_4  and  N_5 
REMARK       I    between atoms: N_5  and  C_6 
REMARK       I    between atoms: C_6  and  N_7 
REMARK    3  A    between atoms: C_10  and  C_11 
ROOT
HETATM    1  N   UNL     1       5.341  29.875  57.703  1.00  0.00    -0.306 N 
HETATM    2  C   UNL     1       6.605  29.330  57.691  1.00  0.00     0.323 C 
HETATM    3  N   UNL     1       6.661  28.038  57.147  1.00  0.00    -0.330 N 
HETATM    4  C   UNL     1       7.967  27.413  57.277  1.00  0.00     0.155 C 
HETATM    5  C   UNL     1       8.053  26.077  56.614  1.00  0.00     0.001 C 
HETATM    6  C   UNL     1       7.120  25.526  55.813  1.00  0.00    -0.046 C 
HETATM    7  C   UNL     1       5.832  26.272  55.579  1.00  0.00     0.059 C 
HETATM    8  C   UNL     1       5.935  27.765  55.907  1.00  0.00     0.132 C 
HETATM    9  O   UNL     1       7.594  29.897  58.147  1.00  0.00    -0.247 OA
HETATM   10  H   UNL     1       4.616  29.235  58.006  1.00  0.00     0.171 HD
ENDROOT
BRANCH   1  11
HETATM   11  C   UNL     1       5.090  31.242  57.948  1.00  0.00     0.071 A 
HETATM   12  C   UNL     1       4.850  32.097  56.864  1.00  0.00     0.095 A 
HETATM   13  C   UNL     1       4.675  33.468  57.063  1.00  0.00     0.041 A 
HETATM   14  C   UNL     1       4.716  33.988  58.357  1.00  0.00     0.026 A 
HETATM   15  C   UNL     1       4.936  33.136  59.440  1.00  0.00     0.036 A 
HETATM   16  C   UNL     1       5.121  31.768  59.243  1.00  0.00     0.056 A 
HETATM   17 CL   UNL     1       5.007  33.787  61.032  1.00  0.00    -0.084 Cl
BRANCH  12  18
HETATM   18  O   UNL     1       4.786  31.559  55.601  1.00  0.00    -0.354 OA
HETATM   19  C   UNL     1       4.613  32.593  54.628  1.00  0.00     0.210 C 
ENDBRANCH  12  18
ENDBRANCH   1  11
BRANCH   6  20
HETATM   20  C   UNL     1       7.313  24.291  55.090  1.00  0.00    -0.002 A 
HETATM   21  C   UNL     1       7.740  22.991  55.543  1.00  0.00     0.003 A 
HETATM   22  C   UNL     1       7.694  22.132  54.438  1.00  0.00     0.043 A 
HETATM   23  C   UNL     1       8.160  22.433  56.773  1.00  0.00     0.014 A 
HETATM   24  C   UNL     1       8.016  20.771  54.504  1.00  0.00     0.030 A 
HETATM   25  N   UNL     1       7.287  22.876  53.358  1.00  0.00    -0.364 N 
HETATM   26  C   UNL     1       8.405  20.252  55.739  1.00  0.00     0.002 A 
HETATM   27  C   UNL     1       8.480  21.071  56.859  1.00  0.00     0.001 A 
HETATM   28  H   UNL     1       7.168  22.511  52.423  1.00  0.00     0.165 HD
HETATM   29  C   UNL     1       7.048  24.165  53.738  1.00  0.00     0.101 A 
ENDBRANCH   6  20
TORSDOF 3
ENDMDL
MODEL 10
REMARK VINA RESULT:      -9.3      2.012      3.074
REMARK  3 active torsions:
REMARK  status: ('A' for Active; 'I' for Inactive)
REMARK    1  A    between atoms: O_2  and  C_3 
REMARK    2  A    between atoms: C_4  and  N_5 
REMARK       I    between atoms: N_5  and  C_6 
REMARK       I    between atoms: C_6  and  N_7 
REMARK    3  A    between atoms: C_10  and  C_11 
ROOT
HETATM    1  N   UNL     1       5.129  30.949  58.445  1.00  0.00    -0.306 N 
HETATM    2  C   UNL     1       6.445  30.713  58.122  1.00  0.00     0.323 C 
HETATM    3  N   UNL     1       6.730  29.369  57.843  1.00  0.00    -0.330 N 
HETATM    4  C   UNL     1       8.147  29.105  57.652  1.00  0.00     0.155 C 
HETATM    5  C   UNL     1       8.440  27.693  57.261  1.00  0.00     0.001 C 
HETATM    6  C   UNL     1       7.531  26.756  56.929  1.00  0.00    -0.046 C 
HETATM    7  C   UNL     1       6.068  27.108  56.995  1.00  0.00     0.059 C 
HETATM    8  C   UNL     1       5.813  28.619  56.985  1.00  0.00     0.132 C 
HETATM    9  O   UNL     1       7.309  31.586  58.113  1.00  0.00    -0.247 OA
HETATM   10  H   UNL     1       4.730  30.270  59.084  1.00  0.00     0.171 HD
ENDROOT
BRANCH   1  11
HETATM   11  C   UNL     1       4.563  32.241  58.497  1.00  0.00     0.071 A 
HETATM   12  C   UNL     1       4.469  32.896  59.733  1.00  0.00     0.095 A 
HETATM   13  C   UNL     1       3.846  34.142  59.833  1.00  0.00     0.041 A 
HETATM   14  C   UNL     1       3.331  34.750  58.688  1.00  0.00     0.026 A 
HETATM   15  C   UNL     1       3.441  34.108  57.453  1.00  0.00     0.036 A 
HETATM   16  C   UNL     1       4.054  32.860  57.352  1.00  0.00     0.056 A 
HETATM   17 CL   UNL     1       2.785  34.854  56.047  1.00  0.00    -0.084 Cl
BRANCH  12  18
HETATM   18  O   UNL     1       5.007  32.290  60.842  1.00  0.00    -0.354 OA
HETATM   19  C   UNL     1       6.062  33.091  61.383  1.00  0.00     0.210 C 
ENDBRANCH  12  18
ENDBRANCH   1  11
BRANCH   6  20
HETATM   20  C   UNL     1       7.877  25.446  56.429  1.00  0.00    -0.002 A 
HETATM   21  C   UNL     1       7.774  24.885  55.105  1.00  0.00     0.003 A 
HETATM   22  C   UNL     1       8.310  23.593  55.161  1.00  0.00     0.043 A 
HETATM   23  C   UNL     1       7.291  25.327  53.852  1.00  0.00     0.014 A 
HETATM   24  C   UNL     1       8.405  22.748  54.048  1.00  0.00     0.030 A 
HETATM   25  N   UNL     1       8.693  23.365  56.459  1.00  0.00    -0.364 N 
HETATM   26  C   UNL     1       7.937  23.226  52.824  1.00  0.00     0.002 A 
HETATM   27  C   UNL     1       7.384  24.497  52.725  1.00  0.00     0.001 A 
HETATM   28  H   UNL     1       9.112  22.507  56.790  1.00  0.00     0.165 HD
HETATM   29  C   UNL     1       8.448  24.469  57.224  1.00  0.00     0.101 A 
ENDBRANCH   6  20
TORSDOF 3
ENDMDL
