MODEL 1
REMARK VINA RESULT:      -8.2      0.000      0.000
REMARK  5 active torsions:
REMARK  status: ('A' for Active; 'I' for Inactive)
REMARK    1  A    between atoms: C_2  and  O_3 
REMARK    2  A    between atoms: O_3  and  C_4 
REMARK    3  A    between atoms: C_10  and  N_11 
REMARK       I    between atoms: N_11  and  C_12 
REMARK       I    between atoms: C_12  and  N_13 
REMARK    4  A    between atoms: N_13  and  C_14 
REMARK    5  A    between atoms: C_14  and  C_15 
ROOT
HETATM    1  N   UNL     1       7.315  26.432  55.362  1.00  0.00    -0.306 N 
HETATM    2  C   UNL     1       6.321  27.347  55.570  1.00  0.00     0.321 C 
HETATM    3  N   UNL     1       6.411  28.093  56.706  1.00  0.00    -0.337 N 
HETATM    4  O   UNL     1       5.352  27.552  54.844  1.00  0.00    -0.247 OA
HETATM    5  H   UNL     1       8.174  26.557  55.897  1.00  0.00     0.171 HD
HETATM    6  H   UNL     1       5.636  28.736  56.802  1.00  0.00     0.164 HD
ENDROOT
BRANCH   1   7
HETATM    7  C   UNL     1       7.424  25.497  54.304  1.00  0.00     0.071 A 
HETATM    8  C   UNL     1       7.409  24.126  54.631  1.00  0.00     0.117 A 
HETATM    9  C   UNL     1       7.634  23.162  53.635  1.00  0.00     0.069 A 
HETATM   10 CL   UNL     1       7.798  21.480  53.999  1.00  0.00    -0.081 Cl
HETATM   11  C   UNL     1       7.772  23.553  52.302  1.00  0.00     0.027 A 
HETATM   12  C   UNL     1       7.710  24.902  51.965  1.00  0.00     0.004 A 
HETATM   13  C   UNL     1       7.546  25.869  52.962  1.00  0.00     0.032 A 
BRANCH   8  14
HETATM   14  O   UNL     1       7.251  23.782  55.955  1.00  0.00    -0.343 OA
BRANCH  14  15
HETATM   15  C   UNL     1       8.484  23.368  56.574  1.00  0.00     0.121 C 
HETATM   16  C   UNL     1       8.306  22.015  57.258  1.00  0.00     0.040 C 
HETATM   17  C   UNL     1       8.846  24.432  57.607  1.00  0.00     0.040 C 
ENDBRANCH  14  15
ENDBRANCH   8  14
ENDBRANCH   1   7
BRANCH   3  18
HETATM   18  C   UNL     1       7.309  27.928  57.830  1.00  0.00     0.183 C 
BRANCH  18  19
HETATM   19  C   UNL     1       8.467  28.895  57.784  1.00  0.00     0.053 A 
HETATM   20  N   UNL     1       9.355  28.726  56.771  1.00  0.00    -0.264 NA
HETATM   21  C   UNL     1      10.370  29.612  56.667  1.00  0.00     0.118 A 
HETATM   22  C   UNL     1      10.553  30.668  57.536  1.00  0.00     0.043 A 
HETATM   23  C   UNL     1       9.630  30.822  58.560  1.00  0.00     0.037 A 
HETATM   24 CL   UNL     1       9.801  32.123  59.673  1.00  0.00    -0.084 Cl
HETATM   25  C   UNL     1       8.565  29.938  58.694  1.00  0.00     0.052 A 
ENDBRANCH  18  19
ENDBRANCH   3  18
TORSDOF 5
ENDMDL
MODEL 2
REMARK VINA RESULT:      -8.0      4.155      7.216
REMARK  5 active torsions:
REMARK  status: ('A' for Active; 'I' for Inactive)
REMARK    1  A    between atoms: C_2  and  O_3 
REMARK    2  A    between atoms: O_3  and  C_4 
REMARK    3  A    between atoms: C_10  and  N_11 
REMARK       I    between atoms: N_11  and  C_12 
REMARK       I    between atoms: C_12  and  N_13 
REMARK    4  A    between atoms: N_13  and  C_14 
REMARK    5  A    between atoms: C_14  and  C_15 
ROOT
HETATM    1  N   UNL     1       6.769  23.903  52.774  1.00  0.00    -0.306 N 
HETATM    2  C   UNL     1       7.401  24.925  52.123  1.00  0.00     0.321 C 
HETATM    3  N   UNL     1       6.599  25.846  51.519  1.00  0.00    -0.337 N 
HETATM    4  O   UNL     1       8.613  25.086  52.018  1.00  0.00    -0.247 OA
HETATM    5  H   UNL     1       5.785  24.041  53.003  1.00  0.00     0.171 HD
HETATM    6  H   UNL     1       7.133  26.562  51.044  1.00  0.00     0.164 HD
ENDROOT
BRANCH   1   7
HETATM    7  C   UNL     1       7.361  22.792  53.423  1.00  0.00     0.071 A 
HETATM    8  C   UNL     1       7.402  22.795  54.832  1.00  0.00     0.117 A 
HETATM    9  C   UNL     1       8.084  21.777  55.519  1.00  0.00     0.069 A 
HETATM   10 CL   UNL     1       8.318  21.816  57.231  1.00  0.00    -0.081 Cl
HETATM   11  C   UNL     1       8.634  20.705  54.814  1.00  0.00     0.027 A 
HETATM   12  C   UNL     1       8.527  20.659  53.427  1.00  0.00     0.004 A 
HETATM   13  C   UNL     1       7.902  21.701  52.735  1.00  0.00     0.032 A 
BRANCH   8  14
HETATM   14  O   UNL     1       6.831  23.861  55.490  1.00  0.00    -0.343 OA
BRANCH  14  15
HETATM   15  C   UNL     1       7.765  24.930  55.734  1.00  0.00     0.121 C 
HETATM   16  C   UNL     1       8.160  24.963  57.208  1.00  0.00     0.040 C 
HETATM   17  C   UNL     1       7.065  26.232  55.352  1.00  0.00     0.040 C 
ENDBRANCH  14  15
ENDBRANCH   8  14
ENDBRANCH   1   7
BRANCH   3  18
HETATM   18  C   UNL     1       5.168  25.799  51.301  1.00  0.00     0.183 C 
BRANCH  18  19
HETATM   19  C   UNL     1       4.767  26.445  49.997  1.00  0.00     0.053 A 
HETATM   20  N   UNL     1       5.267  27.683  49.757  1.00  0.00    -0.264 NA
HETATM   21  C   UNL     1       4.974  28.264  48.573  1.00  0.00     0.118 A 
HETATM   22  C   UNL     1       4.192  27.670  47.604  1.00  0.00     0.043 A 
HETATM   23  C   UNL     1       3.696  26.402  47.871  1.00  0.00     0.037 A 
HETATM   24 CL   UNL     1       2.719  25.605  46.700  1.00  0.00    -0.084 Cl
HETATM   25  C   UNL     1       3.984  25.766  49.073  1.00  0.00     0.052 A 
ENDBRANCH  18  19
ENDBRANCH   3  18
TORSDOF 5
ENDMDL
MODEL 3
REMARK VINA RESULT:      -8.0      1.704      3.281
REMARK  5 active torsions:
REMARK  status: ('A' for Active; 'I' for Inactive)
REMARK    1  A    between atoms: C_2  and  O_3 
REMARK    2  A    between atoms: O_3  and  C_4 
REMARK    3  A    between atoms: C_10  and  N_11 
REMARK       I    between atoms: N_11  and  C_12 
REMARK       I    between atoms: C_12  and  N_13 
REMARK    4  A    between atoms: N_13  and  C_14 
REMARK    5  A    between atoms: C_14  and  C_15 
ROOT
HETATM    1  N   UNL     1       6.152  25.655  55.881  1.00  0.00    -0.306 N 
HETATM    2  C   UNL     1       5.082  25.860  56.706  1.00  0.00     0.321 C 
HETATM    3  N   UNL     1       4.483  27.082  56.629  1.00  0.00    -0.337 N 
HETATM    4  O   UNL     1       4.618  25.062  57.515  1.00  0.00    -0.247 OA
HETATM    5  H   UNL     1       6.254  26.292  55.092  1.00  0.00     0.171 HD
HETATM    6  H   UNL     1       3.711  27.168  57.277  1.00  0.00     0.164 HD
ENDROOT
BRANCH   1   7
HETATM    7  C   UNL     1       6.983  24.510  55.810  1.00  0.00     0.071 A 
HETATM    8  C   UNL     1       7.004  23.783  54.602  1.00  0.00     0.117 A 
HETATM    9  C   UNL     1       7.716  22.576  54.518  1.00  0.00     0.069 A 
HETATM   10 CL   UNL     1       7.641  21.555  53.125  1.00  0.00    -0.081 Cl
HETATM   11  C   UNL     1       8.489  22.144  55.597  1.00  0.00     0.027 A 
HETATM   12  C   UNL     1       8.532  22.899  56.766  1.00  0.00     0.004 A 
HETATM   13  C   UNL     1       7.777  24.071  56.874  1.00  0.00     0.032 A 
BRANCH   8  14
HETATM   14  O   UNL     1       6.243  24.254  53.555  1.00  0.00    -0.343 OA
BRANCH  14  15
HETATM   15  C   UNL     1       6.811  25.424  52.935  1.00  0.00     0.121 C 
HETATM   16  C   UNL     1       5.827  26.024  51.935  1.00  0.00     0.040 C 
HETATM   17  C   UNL     1       8.080  24.976  52.215  1.00  0.00     0.040 C 
ENDBRANCH  14  15
ENDBRANCH   8  14
ENDBRANCH   1   7
BRANCH   3  18
HETATM   18  C   UNL     1       4.933  28.270  55.934  1.00  0.00     0.183 C 
BRANCH  18  19
HETATM   19  C   UNL     1       6.325  28.680  56.347  1.00  0.00     0.053 A 
HETATM   20  N   UNL     1       7.281  28.630  55.385  1.00  0.00    -0.264 NA
HETATM   21  C   UNL     1       8.526  29.047  55.708  1.00  0.00     0.118 A 
HETATM   22  C   UNL     1       8.873  29.513  56.958  1.00  0.00     0.043 A 
HETATM   23  C   UNL     1       7.878  29.560  57.924  1.00  0.00     0.037 A 
HETATM   24 CL   UNL     1       8.248  30.137  59.502  1.00  0.00    -0.084 Cl
HETATM   25  C   UNL     1       6.583  29.150  57.628  1.00  0.00     0.052 A 
ENDBRANCH  18  19
ENDBRANCH   3  18
TORSDOF 5
ENDMDL
MODEL 4
REMARK VINA RESULT:      -7.9      1.972      2.885
REMARK  5 active torsions:
REMARK  status: ('A' for Active; 'I' for Inactive)
REMARK    1  A    between atoms: C_2  and  O_3 
REMARK    2  A    between atoms: O_3  and  C_4 
REMARK    3  A    between atoms: C_10  and  N_11 
REMARK       I    between atoms: N_11  and  C_12 
REMARK       I    between atoms: C_12  and  N_13 
REMARK    4  A    between atoms: N_13  and  C_14 
REMARK    5  A    between atoms: C_14  and  C_15 
ROOT
HETATM    1  N   UNL     1       7.208  25.024  53.785  1.00  0.00    -0.306 N 
HETATM    2  C   UNL     1       5.982  25.624  53.708  1.00  0.00     0.321 C 
HETATM    3  N   UNL     1       5.976  26.986  53.652  1.00  0.00    -0.337 N 
HETATM    4  O   UNL     1       4.892  25.061  53.698  1.00  0.00    -0.247 OA
HETATM    5  H   UNL     1       8.015  25.588  53.519  1.00  0.00     0.171 HD
HETATM    6  H   UNL     1       5.038  27.361  53.612  1.00  0.00     0.164 HD
ENDROOT
BRANCH   1   7
HETATM    7  C   UNL     1       7.489  23.642  53.918  1.00  0.00     0.071 A 
HETATM    8  C   UNL     1       7.421  23.075  55.207  1.00  0.00     0.117 A 
HETATM    9  C   UNL     1       7.806  21.740  55.410  1.00  0.00     0.069 A 
HETATM   10 CL   UNL     1       7.911  21.040  56.987  1.00  0.00    -0.081 Cl
HETATM   11  C   UNL     1       8.159  20.941  54.321  1.00  0.00     0.027 A 
HETATM   12  C   UNL     1       8.153  21.477  53.036  1.00  0.00     0.004 A 
HETATM   13  C   UNL     1       7.827  22.821  52.837  1.00  0.00     0.032 A 
BRANCH   8  14
HETATM   14  O   UNL     1       7.050  23.893  56.250  1.00  0.00    -0.343 OA
BRANCH  14  15
HETATM   15  C   UNL     1       8.042  24.893  56.554  1.00  0.00     0.121 C 
HETATM   16  C   UNL     1       9.312  24.235  57.087  1.00  0.00     0.040 C 
HETATM   17  C   UNL     1       7.442  25.809  57.617  1.00  0.00     0.040 C 
ENDBRANCH  14  15
ENDBRANCH   8  14
ENDBRANCH   1   7
BRANCH   3  18
HETATM   18  C   UNL     1       7.076  27.906  53.854  1.00  0.00     0.183 C 
BRANCH  18  19
HETATM   19  C   UNL     1       7.049  28.536  55.226  1.00  0.00     0.053 A 
HETATM   20  N   UNL     1       5.840  28.592  55.841  1.00  0.00    -0.264 NA
HETATM   21  C   UNL     1       5.792  29.097  57.094  1.00  0.00     0.118 A 
HETATM   22  C   UNL     1       6.899  29.560  57.773  1.00  0.00     0.043 A 
HETATM   23  C   UNL     1       8.125  29.487  57.125  1.00  0.00     0.037 A 
HETATM   24 CL   UNL     1       9.544  30.043  57.922  1.00  0.00    -0.084 Cl
HETATM   25  C   UNL     1       8.217  28.964  55.840  1.00  0.00     0.052 A 
ENDBRANCH  18  19
ENDBRANCH   3  18
TORSDOF 5
ENDMDL
MODEL 5
REMARK VINA RESULT:      -7.8      3.700      6.607
REMARK  5 active torsions:
REMARK  status: ('A' for Active; 'I' for Inactive)
REMARK    1  A    between atoms: C_2  and  O_3 
REMARK    2  A    between atoms: O_3  and  C_4 
REMARK    3  A    between atoms: C_10  and  N_11 
REMARK       I    between atoms: N_11  and  C_12 
REMARK       I    between atoms: C_12  and  N_13 
REMARK    4  A    between atoms: N_13  and  C_14 
REMARK    5  A    between atoms: C_14  and  C_15 
ROOT
HETATM    1  N   UNL     1       6.398  26.410  55.893  1.00  0.00    -0.306 N 
HETATM    2  C   UNL     1       5.958  25.600  56.902  1.00  0.00     0.321 C 
HETATM    3  N   UNL     1       6.870  24.734  57.426  1.00  0.00    -0.337 N 
HETATM    4  O   UNL     1       4.824  25.566  57.371  1.00  0.00    -0.247 OA
HETATM    5  H   UNL     1       7.407  26.515  55.793  1.00  0.00     0.171 HD
HETATM    6  H   UNL     1       6.471  24.157  58.155  1.00  0.00     0.164 HD
ENDROOT
BRANCH   1   7
HETATM    7  C   UNL     1       5.644  27.344  55.140  1.00  0.00     0.071 A 
HETATM    8  C   UNL     1       5.938  27.476  53.768  1.00  0.00     0.117 A 
HETATM    9  C   UNL     1       5.304  28.471  53.005  1.00  0.00     0.069 A 
HETATM   10 CL   UNL     1       5.745  28.797  51.366  1.00  0.00    -0.081 Cl
HETATM   11  C   UNL     1       4.308  29.262  53.578  1.00  0.00     0.027 A 
HETATM   12  C   UNL     1       3.960  29.081  54.914  1.00  0.00     0.004 A 
HETATM   13  C   UNL     1       4.631  28.133  55.692  1.00  0.00     0.032 A 
BRANCH   8  14
HETATM   14  O   UNL     1       6.914  26.663  53.237  1.00  0.00    -0.343 OA
BRANCH  14  15
HETATM   15  C   UNL     1       6.393  25.712  52.289  1.00  0.00     0.121 C 
HETATM   16  C   UNL     1       5.311  24.853  52.941  1.00  0.00     0.040 C 
HETATM   17  C   UNL     1       7.561  24.835  51.847  1.00  0.00     0.040 C 
ENDBRANCH  14  15
ENDBRANCH   8  14
ENDBRANCH   1   7
BRANCH   3  18
HETATM   18  C   UNL     1       8.195  24.410  56.940  1.00  0.00     0.183 C 
BRANCH  18  19
HETATM   19  C   UNL     1       8.263  23.024  56.347  1.00  0.00     0.053 A 
HETATM   20  N   UNL     1       8.414  21.998  57.224  1.00  0.00    -0.264 NA
HETATM   21  C   UNL     1       8.419  20.740  56.729  1.00  0.00     0.118 A 
HETATM   22  C   UNL     1       8.287  20.447  55.388  1.00  0.00     0.043 A 
HETATM   23  C   UNL     1       8.130  21.512  54.512  1.00  0.00     0.037 A 
HETATM   24 CL   UNL     1       7.954  21.211  52.828  1.00  0.00    -0.084 Cl
HETATM   25  C   UNL     1       8.108  22.820  54.983  1.00  0.00     0.052 A 
ENDBRANCH  18  19
ENDBRANCH   3  18
TORSDOF 5
ENDMDL
MODEL 6
REMARK VINA RESULT:      -7.7      1.837      2.371
REMARK  5 active torsions:
REMARK  status: ('A' for Active; 'I' for Inactive)
REMARK    1  A    between atoms: C_2  and  O_3 
REMARK    2  A    between atoms: O_3  and  C_4 
REMARK    3  A    between atoms: C_10  and  N_11 
REMARK       I    between atoms: N_11  and  C_12 
REMARK       I    between atoms: C_12  and  N_13 
REMARK    4  A    between atoms: N_13  and  C_14 
REMARK    5  A    between atoms: C_14  and  C_15 
ROOT
HETATM    1  N   UNL     1       7.106  26.971  55.657  1.00  0.00    -0.306 N 
HETATM    2  C   UNL     1       7.868  28.084  55.435  1.00  0.00     0.321 C 
HETATM    3  N   UNL     1       8.250  28.787  56.538  1.00  0.00    -0.337 N 
HETATM    4  O   UNL     1       8.229  28.517  54.345  1.00  0.00    -0.247 OA
HETATM    5  H   UNL     1       7.110  26.591  56.603  1.00  0.00     0.171 HD
HETATM    6  H   UNL     1       8.796  29.603  56.298  1.00  0.00     0.164 HD
ENDROOT
BRANCH   1   7
HETATM    7  C   UNL     1       6.530  26.109  54.692  1.00  0.00     0.071 A 
HETATM    8  C   UNL     1       7.185  24.890  54.421  1.00  0.00     0.117 A 
HETATM    9  C   UNL     1       6.722  24.057  53.389  1.00  0.00     0.069 A 
HETATM   10 CL   UNL     1       7.580  22.640  52.895  1.00  0.00    -0.081 Cl
HETATM   11  C   UNL     1       5.554  24.382  52.699  1.00  0.00     0.027 A 
HETATM   12  C   UNL     1       4.861  25.547  53.017  1.00  0.00     0.004 A 
HETATM   13  C   UNL     1       5.351  26.409  54.002  1.00  0.00     0.032 A 
BRANCH   8  14
HETATM   14  O   UNL     1       8.324  24.599  55.138  1.00  0.00    -0.343 OA
BRANCH  14  15
HETATM   15  C   UNL     1       8.042  23.933  56.384  1.00  0.00     0.121 C 
HETATM   16  C   UNL     1       8.815  24.593  57.523  1.00  0.00     0.040 C 
HETATM   17  C   UNL     1       8.483  22.481  56.225  1.00  0.00     0.040 C 
ENDBRANCH  14  15
ENDBRANCH   8  14
ENDBRANCH   1   7
BRANCH   3  18
HETATM   18  C   UNL     1       7.806  28.635  57.908  1.00  0.00     0.183 C 
BRANCH  18  19
HETATM   19  C   UNL     1       7.760  29.953  58.643  1.00  0.00     0.053 A 
HETATM   20  N   UNL     1       6.714  30.770  58.355  1.00  0.00    -0.264 NA
HETATM   21  C   UNL     1       6.613  31.931  59.038  1.00  0.00     0.118 A 
HETATM   22  C   UNL     1       7.514  32.330  60.003  1.00  0.00     0.043 A 
HETATM   23  C   UNL     1       8.572  31.476  60.283  1.00  0.00     0.037 A 
HETATM   24 CL   UNL     1       9.726  31.914  61.481  1.00  0.00    -0.084 Cl
HETATM   25  C   UNL     1       8.705  30.267  59.610  1.00  0.00     0.052 A 
ENDBRANCH  18  19
ENDBRANCH   3  18
TORSDOF 5
ENDMDL
MODEL 7
REMARK VINA RESULT:      -7.7      1.963      7.468
REMARK  5 active torsions:
REMARK  status: ('A' for Active; 'I' for Inactive)
REMARK    1  A    between atoms: C_2  and  O_3 
REMARK    2  A    between atoms: O_3  and  C_4 
REMARK    3  A    between atoms: C_10  and  N_11 
REMARK       I    between atoms: N_11  and  C_12 
REMARK       I    between atoms: C_12  and  N_13 
REMARK    4  A    between atoms: N_13  and  C_14 
REMARK    5  A    between atoms: C_14  and  C_15 
ROOT
HETATM    1  N   UNL     1       8.198  27.988  56.347  1.00  0.00    -0.306 N 
HETATM    2  C   UNL     1       7.888  27.866  55.022  1.00  0.00     0.321 C 
HETATM    3  N   UNL     1       7.158  26.771  54.668  1.00  0.00    -0.337 N 
HETATM    4  O   UNL     1       8.213  28.634  54.121  1.00  0.00    -0.247 OA
HETATM    5  H   UNL     1       7.647  27.434  57.002  1.00  0.00     0.171 HD
HETATM    6  H   UNL     1       6.980  26.737  53.674  1.00  0.00     0.164 HD
ENDROOT
BRANCH   1   7
HETATM    7  C   UNL     1       8.991  28.988  56.962  1.00  0.00     0.071 A 
HETATM    8  C   UNL     1       8.383  29.809  57.933  1.00  0.00     0.117 A 
HETATM    9  C   UNL     1       9.090  30.890  58.484  1.00  0.00     0.069 A 
HETATM   10 CL   UNL     1       8.347  32.034  59.546  1.00  0.00    -0.081 Cl
HETATM   11  C   UNL     1      10.430  31.092  58.150  1.00  0.00     0.027 A 
HETATM   12  C   UNL     1      11.058  30.235  57.250  1.00  0.00     0.004 A 
HETATM   13  C   UNL     1      10.340  29.194  56.654  1.00  0.00     0.032 A 
BRANCH   8  14
HETATM   14  O   UNL     1       7.065  29.565  58.248  1.00  0.00    -0.343 OA
BRANCH  14  15
HETATM   15  C   UNL     1       6.147  30.211  57.346  1.00  0.00     0.121 C 
HETATM   16  C   UNL     1       5.526  31.437  58.011  1.00  0.00     0.040 C 
HETATM   17  C   UNL     1       5.061  29.194  57.008  1.00  0.00     0.040 C 
ENDBRANCH  14  15
ENDBRANCH   8  14
ENDBRANCH   1   7
BRANCH   3  18
HETATM   18  C   UNL     1       6.821  25.611  55.467  1.00  0.00     0.183 C 
BRANCH  18  19
HETATM   19  C   UNL     1       7.217  24.319  54.794  1.00  0.00     0.053 A 
HETATM   20  N   UNL     1       7.559  24.401  53.482  1.00  0.00    -0.264 NA
HETATM   21  C   UNL     1       7.975  23.273  52.866  1.00  0.00     0.118 A 
HETATM   22  C   UNL     1       8.064  22.048  53.495  1.00  0.00     0.043 A 
HETATM   23  C   UNL     1       7.713  21.991  54.837  1.00  0.00     0.037 A 
HETATM   24 CL   UNL     1       7.809  20.493  55.679  1.00  0.00    -0.084 Cl
HETATM   25  C   UNL     1       7.291  23.132  55.509  1.00  0.00     0.052 A 
ENDBRANCH  18  19
ENDBRANCH   3  18
TORSDOF 5
ENDMDL
MODEL 8
REMARK VINA RESULT:      -7.7      3.573      6.847
REMARK  5 active torsions:
REMARK  status: ('A' for Active; 'I' for Inactive)
REMARK    1  A    between atoms: C_2  and  O_3 
REMARK    2  A    between atoms: O_3  and  C_4 
REMARK    3  A    between atoms: C_10  and  N_11 
REMARK       I    between atoms: N_11  and  C_12 
REMARK       I    between atoms: C_12  and  N_13 
REMARK    4  A    between atoms: N_13  and  C_14 
REMARK    5  A    between atoms: C_14  and  C_15 
ROOT
HETATM    1  N   UNL     1       6.536  26.669  54.358  1.00  0.00    -0.306 N 
HETATM    2  C   UNL     1       6.984  27.720  53.607  1.00  0.00     0.321 C 
HETATM    3  N   UNL     1       6.166  28.138  52.600  1.00  0.00    -0.337 N 
HETATM    4  O   UNL     1       8.051  28.312  53.740  1.00  0.00    -0.247 OA
HETATM    5  H   UNL     1       5.540  26.459  54.308  1.00  0.00     0.171 HD
HETATM    6  H   UNL     1       6.567  28.905  52.078  1.00  0.00     0.164 HD
ENDROOT
BRANCH   1   7
HETATM    7  C   UNL     1       7.212  26.008  55.412  1.00  0.00     0.071 A 
HETATM    8  C   UNL     1       7.411  24.617  55.299  1.00  0.00     0.117 A 
HETATM    9  C   UNL     1       7.967  23.895  56.368  1.00  0.00     0.069 A 
HETATM   10 CL   UNL     1       8.077  22.170  56.358  1.00  0.00    -0.081 Cl
HETATM   11  C   UNL     1       8.420  24.567  57.504  1.00  0.00     0.027 A 
HETATM   12  C   UNL     1       8.297  25.952  57.587  1.00  0.00     0.004 A 
HETATM   13  C   UNL     1       7.689  26.666  56.550  1.00  0.00     0.032 A 
BRANCH   8  14
HETATM   14  O   UNL     1       6.966  23.995  54.154  1.00  0.00    -0.343 OA
BRANCH  14  15
HETATM   15  C   UNL     1       8.027  23.731  53.216  1.00  0.00     0.121 C 
HETATM   16  C   UNL     1       7.827  24.552  51.944  1.00  0.00     0.040 C 
HETATM   17  C   UNL     1       7.975  22.241  52.889  1.00  0.00     0.040 C 
ENDBRANCH  14  15
ENDBRANCH   8  14
ENDBRANCH   1   7
BRANCH   3  18
HETATM   18  C   UNL     1       4.969  27.506  52.084  1.00  0.00     0.183 C 
BRANCH  18  19
HETATM   19  C   UNL     1       4.900  27.557  50.577  1.00  0.00     0.053 A 
HETATM   20  N   UNL     1       5.535  28.597  49.978  1.00  0.00    -0.264 NA
HETATM   21  C   UNL     1       5.542  28.639  48.627  1.00  0.00     0.118 A 
HETATM   22  C   UNL     1       4.937  27.689  47.831  1.00  0.00     0.043 A 
HETATM   23  C   UNL     1       4.299  26.633  48.467  1.00  0.00     0.037 A 
HETATM   24 CL   UNL     1       3.530  25.412  47.529  1.00  0.00    -0.084 Cl
HETATM   25  C   UNL     1       4.279  26.548  49.855  1.00  0.00     0.052 A 
ENDBRANCH  18  19
ENDBRANCH   3  18
TORSDOF 5
ENDMDL
MODEL 9
REMARK VINA RESULT:      -7.7      2.233      6.910
REMARK  5 active torsions:
REMARK  status: ('A' for Active; 'I' for Inactive)
REMARK    1  A    between atoms: C_2  and  O_3 
REMARK    2  A    between atoms: O_3  and  C_4 
REMARK    3  A    between atoms: C_10  and  N_11 
REMARK       I    between atoms: N_11  and  C_12 
REMARK       I    between atoms: C_12  and  N_13 
REMARK    4  A    between atoms: N_13  and  C_14 
REMARK    5  A    between atoms: C_14  and  C_15 
ROOT
HETATM    1  N   UNL     1       6.451  26.736  56.426  1.00  0.00    -0.306 N 
HETATM    2  C   UNL     1       5.890  25.657  57.050  1.00  0.00     0.321 C 
HETATM    3  N   UNL     1       6.690  24.565  57.208  1.00  0.00    -0.337 N 
HETATM    4  O   UNL     1       4.739  25.570  57.467  1.00  0.00    -0.247 OA
HETATM    5  H   UNL     1       7.469  26.763  56.377  1.00  0.00     0.171 HD
HETATM    6  H   UNL     1       6.206  23.802  57.661  1.00  0.00     0.164 HD
ENDROOT
BRANCH   1   7
HETATM    7  C   UNL     1       5.825  27.960  56.084  1.00  0.00     0.071 A 
HETATM    8  C   UNL     1       6.105  29.090  56.879  1.00  0.00     0.117 A 
HETATM    9  C   UNL     1       5.420  30.295  56.655  1.00  0.00     0.069 A 
HETATM   10 CL   UNL     1       5.591  31.661  57.701  1.00  0.00    -0.081 Cl
HETATM   11  C   UNL     1       4.536  30.408  55.582  1.00  0.00     0.027 A 
HETATM   12  C   UNL     1       4.315  29.316  54.747  1.00  0.00     0.004 A 
HETATM   13  C   UNL     1       4.950  28.097  55.002  1.00  0.00     0.032 A 
BRANCH   8  14
HETATM   14  O   UNL     1       6.998  28.941  57.916  1.00  0.00    -0.343 OA
BRANCH  14  15
HETATM   15  C   UNL     1       8.209  29.696  57.721  1.00  0.00     0.121 C 
HETATM   16  C   UNL     1       9.300  28.805  57.132  1.00  0.00     0.040 C 
HETATM   17  C   UNL     1       8.640  30.213  59.092  1.00  0.00     0.040 C 
ENDBRANCH  14  15
ENDBRANCH   8  14
ENDBRANCH   1   7
BRANCH   3  18
HETATM   18  C   UNL     1       7.997  24.310  56.639  1.00  0.00     0.183 C 
BRANCH  18  19
HETATM   19  C   UNL     1       7.918  23.873  55.197  1.00  0.00     0.053 A 
HETATM   20  N   UNL     1       7.899  24.861  54.266  1.00  0.00    -0.264 NA
HETATM   21  C   UNL     1       7.887  24.502  52.963  1.00  0.00     0.118 A 
HETATM   22  C   UNL     1       7.887  23.191  52.533  1.00  0.00     0.043 A 
HETATM   23  C   UNL     1       7.911  22.199  53.503  1.00  0.00     0.037 A 
HETATM   24 CL   UNL     1       7.917  20.545  53.030  1.00  0.00    -0.084 Cl
HETATM   25  C   UNL     1       7.935  22.528  54.854  1.00  0.00     0.052 A 
ENDBRANCH  18  19
ENDBRANCH   3  18
TORSDOF 5
ENDMDL
MODEL 10
REMARK VINA RESULT:      -7.7      4.038      7.030
REMARK  5 active torsions:
REMARK  status: ('A' for Active; 'I' for Inactive)
REMARK    1  A    between atoms: C_2  and  O_3 
REMARK    2  A    between atoms: O_3  and  C_4 
REMARK    3  A    between atoms: C_10  and  N_11 
REMARK       I    between atoms: N_11  and  C_12 
REMARK       I    between atoms: C_12  and  N_13 
REMARK    4  A    between atoms: N_13  and  C_14 
REMARK    5  A    between atoms: C_14  and  C_15 
ROOT
HETATM    1  N   UNL     1       6.535  25.177  52.811  1.00  0.00    -0.306 N 
HETATM    2  C   UNL     1       5.177  25.335  52.839  1.00  0.00     0.321 C 
HETATM    3  N   UNL     1       4.669  26.348  52.083  1.00  0.00    -0.337 N 
HETATM    4  O   UNL     1       4.376  24.667  53.487  1.00  0.00    -0.247 OA
HETATM    5  H   UNL     1       7.034  25.619  52.040  1.00  0.00     0.171 HD
HETATM    6  H   UNL     1       3.664  26.416  52.164  1.00  0.00     0.164 HD
ENDROOT
BRANCH   1   7
HETATM    7  C   UNL     1       7.314  24.251  53.548  1.00  0.00     0.071 A 
HETATM    8  C   UNL     1       7.724  24.619  54.846  1.00  0.00     0.117 A 
HETATM    9  C   UNL     1       8.597  23.790  55.570  1.00  0.00     0.069 A 
HETATM   10 CL   UNL     1       9.271  24.264  57.089  1.00  0.00    -0.081 Cl
HETATM   11  C   UNL     1       8.978  22.553  55.049  1.00  0.00     0.027 A 
HETATM   12  C   UNL     1       8.512  22.152  53.800  1.00  0.00     0.004 A 
HETATM   13  C   UNL     1       7.692  23.000  53.051  1.00  0.00     0.032 A 
BRANCH   8  14
HETATM   14  O   UNL     1       7.310  25.840  55.329  1.00  0.00    -0.343 OA
BRANCH  14  15
HETATM   15  C   UNL     1       6.808  25.764  56.677  1.00  0.00     0.121 C 
HETATM   16  C   UNL     1       5.308  25.480  56.669  1.00  0.00     0.040 C 
HETATM   17  C   UNL     1       7.081  27.115  57.333  1.00  0.00     0.040 C 
ENDBRANCH  14  15
ENDBRANCH   8  14
ENDBRANCH   1   7
BRANCH   3  18
HETATM   18  C   UNL     1       5.377  27.409  51.396  1.00  0.00     0.183 C 
BRANCH  18  19
HETATM   19  C   UNL     1       4.995  27.501  49.939  1.00  0.00     0.053 A 
HETATM   20  N   UNL     1       5.451  28.586  49.262  1.00  0.00    -0.264 NA
HETATM   21  C   UNL     1       5.176  28.669  47.942  1.00  0.00     0.118 A 
HETATM   22  C   UNL     1       4.455  27.716  47.252  1.00  0.00     0.043 A 
HETATM   23  C   UNL     1       4.004  26.614  47.964  1.00  0.00     0.037 A 
HETATM   24 CL   UNL     1       3.105  25.388  47.159  1.00  0.00    -0.084 Cl
HETATM   25  C   UNL     1       4.276  26.487  49.322  1.00  0.00     0.052 A 
ENDBRANCH  18  19
ENDBRANCH   3  18
TORSDOF 5
ENDMDL
