MODEL 1
REMARK VINA RESULT:      -8.6      0.000      0.000
REMARK  2 active torsions:
REMARK  status: ('A' for Active; 'I' for Inactive)
REMARK    1  A    between atoms: C_6  and  C_7 
REMARK    2  A    between atoms: C_7  and  N_8 
ROOT
HETATM    1  N   UNL     1       6.965  25.401  53.983  1.00  0.00    -0.203 NA
HETATM    2  S   UNL     1       5.769  26.063  52.973  1.00  0.00     0.219 S 
HETATM    3  O   UNL     1       4.540  25.339  53.173  1.00  0.00    -0.211 OA
HETATM    4  O   UNL     1       6.353  26.298  51.670  1.00  0.00    -0.211 OA
HETATM    5  C   UNL     1       5.691  27.665  53.759  1.00  0.00     0.164 C 
HETATM    6  C   UNL     1       6.516  27.532  55.029  1.00  0.00     0.116 C 
HETATM    7  O   UNL     1       5.533  27.198  56.035  1.00  0.00    -0.369 OA
HETATM    8  C   UNL     1       4.437  28.100  55.764  1.00  0.00     0.149 C 
HETATM    9  C   UNL     1       4.851  29.483  56.312  1.00  0.00     0.264 C 
HETATM   10  N   UNL     1       6.125  29.953  55.627  1.00  0.00    -0.070 N 
HETATM   11  H   UNL     1       5.895  30.367  54.713  1.00  0.00     0.277 HD
HETATM   12  H   UNL     1       6.526  30.726  56.179  1.00  0.00     0.277 HD
HETATM   13  C   UNL     1       7.168  28.859  55.476  1.00  0.00     0.273 C 
HETATM   14  C   UNL     1       7.570  26.433  54.848  1.00  0.00     0.148 C 
HETATM   15  C   UNL     1       4.308  28.081  54.240  1.00  0.00     0.058 C 
ENDROOT
BRANCH   1  16
HETATM   16  C   UNL     1       7.965  24.520  53.326  1.00  0.00     0.145 C 
BRANCH  16  17
HETATM   17  C   UNL     1       7.959  23.089  53.797  1.00  0.00    -0.043 A 
HETATM   18  C   UNL     1       8.099  22.787  55.159  1.00  0.00     0.032 A 
HETATM   19  C   UNL     1       8.144  21.458  55.581  1.00  0.00     0.034 A 
HETATM   20  C   UNL     1       8.048  20.419  54.660  1.00  0.00     0.024 A 
HETATM   21 CL   UNL     1       8.335  21.103  57.254  1.00  0.00    -0.084 Cl
HETATM   22  C   UNL     1       7.898  20.709  53.304  1.00  0.00     0.002 A 
HETATM   23  C   UNL     1       7.852  22.036  52.875  1.00  0.00     0.008 A 
ENDBRANCH  16  17
ENDBRANCH   1  16
TORSDOF 2
ENDMDL
MODEL 2
REMARK VINA RESULT:      -8.3      3.232      6.816
REMARK  2 active torsions:
REMARK  status: ('A' for Active; 'I' for Inactive)
REMARK    1  A    between atoms: C_6  and  C_7 
REMARK    2  A    between atoms: C_7  and  N_8 
ROOT
HETATM    1  N   UNL     1       7.971  24.907  56.549  1.00  0.00    -0.203 NA
HETATM    2  S   UNL     1       6.988  24.948  55.163  1.00  0.00     0.219 S 
HETATM    3  O   UNL     1       7.649  25.725  54.147  1.00  0.00    -0.211 OA
HETATM    4  O   UNL     1       5.622  25.179  55.581  1.00  0.00    -0.211 OA
HETATM    5  C   UNL     1       7.084  23.205  54.784  1.00  0.00     0.164 C 
HETATM    6  C   UNL     1       8.155  22.650  55.709  1.00  0.00     0.116 C 
HETATM    7  O   UNL     1       9.355  22.700  54.903  1.00  0.00    -0.369 OA
HETATM    8  C   UNL     1       8.931  22.202  53.616  1.00  0.00     0.149 C 
HETATM    9  C   UNL     1       8.819  20.667  53.746  1.00  0.00     0.264 C 
HETATM   10  N   UNL     1       7.811  20.310  54.827  1.00  0.00    -0.070 N 
HETATM   11  H   UNL     1       6.857  20.362  54.443  1.00  0.00     0.277 HD
HETATM   12  H   UNL     1       7.943  19.319  55.083  1.00  0.00     0.277 HD
HETATM   13  C   UNL     1       7.936  21.165  56.076  1.00  0.00     0.273 C 
HETATM   14  C   UNL     1       8.253  23.520  56.967  1.00  0.00     0.148 C 
HETATM   15  C   UNL     1       7.578  22.876  53.382  1.00  0.00     0.058 C 
ENDROOT
BRANCH   1  16
HETATM   16  C   UNL     1       7.562  25.792  57.670  1.00  0.00     0.145 C 
BRANCH  16  17
HETATM   17  C   UNL     1       7.656  27.267  57.384  1.00  0.00    -0.043 A 
HETATM   18  C   UNL     1       8.888  27.854  57.065  1.00  0.00     0.032 A 
HETATM   19  C   UNL     1       8.975  29.230  56.852  1.00  0.00     0.034 A 
HETATM   20  C   UNL     1       7.843  30.035  56.948  1.00  0.00     0.024 A 
HETATM   21 CL   UNL     1      10.499  29.939  56.480  1.00  0.00    -0.084 Cl
HETATM   22  C   UNL     1       6.611  29.459  57.254  1.00  0.00     0.002 A 
HETATM   23  C   UNL     1       6.517  28.083  57.469  1.00  0.00     0.008 A 
ENDBRANCH  16  17
ENDBRANCH   1  16
TORSDOF 2
ENDMDL
MODEL 3
REMARK VINA RESULT:      -8.1      3.779      6.971
REMARK  2 active torsions:
REMARK  status: ('A' for Active; 'I' for Inactive)
REMARK    1  A    between atoms: C_6  and  C_7 
REMARK    2  A    between atoms: C_7  and  N_8 
ROOT
HETATM    1  N   UNL     1       7.853  26.345  56.664  1.00  0.00    -0.203 NA
HETATM    2  S   UNL     1       6.650  25.859  55.566  1.00  0.00     0.219 S 
HETATM    3  O   UNL     1       7.002  26.333  54.252  1.00  0.00    -0.211 OA
HETATM    4  O   UNL     1       5.358  26.087  56.176  1.00  0.00    -0.211 OA
HETATM    5  C   UNL     1       6.938  24.102  55.698  1.00  0.00     0.164 C 
HETATM    6  C   UNL     1       8.224  23.963  56.498  1.00  0.00     0.116 C 
HETATM    7  O   UNL     1       9.245  23.864  55.479  1.00  0.00    -0.369 OA
HETATM    8  C   UNL     1       8.684  22.950  54.511  1.00  0.00     0.149 C 
HETATM    9  C   UNL     1       8.826  21.531  55.102  1.00  0.00     0.264 C 
HETATM   10  N   UNL     1       8.085  21.443  56.427  1.00  0.00    -0.070 N 
HETATM   11  H   UNL     1       7.082  21.287  56.254  1.00  0.00     0.277 HD
HETATM   12  H   UNL     1       8.406  20.600  56.926  1.00  0.00     0.277 HD
HETATM   13  C   UNL     1       8.295  22.656  57.318  1.00  0.00     0.273 C 
HETATM   14  C   UNL     1       8.407  25.190  57.399  1.00  0.00     0.148 C 
HETATM   15  C   UNL     1       7.225  23.394  54.381  1.00  0.00     0.058 C 
ENDROOT
BRANCH   1  16
HETATM   16  C   UNL     1       7.516  27.496  57.540  1.00  0.00     0.145 C 
BRANCH  16  17
HETATM   17  C   UNL     1       8.553  28.587  57.583  1.00  0.00    -0.043 A 
HETATM   18  C   UNL     1       8.429  29.653  58.485  1.00  0.00     0.032 A 
HETATM   19  C   UNL     1       9.367  30.686  58.482  1.00  0.00     0.034 A 
HETATM   20  C   UNL     1      10.436  30.671  57.590  1.00  0.00     0.024 A 
HETATM   21 CL   UNL     1       9.191  31.998  59.583  1.00  0.00    -0.084 Cl
HETATM   22  C   UNL     1      10.574  29.610  56.696  1.00  0.00     0.002 A 
HETATM   23  C   UNL     1       9.639  28.573  56.693  1.00  0.00     0.008 A 
ENDBRANCH  16  17
ENDBRANCH   1  16
TORSDOF 2
ENDMDL
MODEL 4
REMARK VINA RESULT:      -7.8      2.487      3.630
REMARK  2 active torsions:
REMARK  status: ('A' for Active; 'I' for Inactive)
REMARK    1  A    between atoms: C_6  and  C_7 
REMARK    2  A    between atoms: C_7  and  N_8 
ROOT
HETATM    1  N   UNL     1       6.502  27.419  55.604  1.00  0.00    -0.203 NA
HETATM    2  S   UNL     1       5.665  28.803  56.128  1.00  0.00     0.219 S 
HETATM    3  O   UNL     1       4.899  28.466  57.300  1.00  0.00    -0.211 OA
HETATM    4  O   UNL     1       5.101  29.460  54.969  1.00  0.00    -0.211 OA
HETATM    5  C   UNL     1       7.103  29.765  56.571  1.00  0.00     0.164 C 
HETATM    6  C   UNL     1       8.274  28.799  56.493  1.00  0.00     0.116 C 
HETATM    7  O   UNL     1       8.407  28.321  57.851  1.00  0.00    -0.369 OA
HETATM    8  C   UNL     1       8.277  29.514  58.655  1.00  0.00     0.149 C 
HETATM    9  C   UNL     1       9.620  30.269  58.556  1.00  0.00     0.264 C 
HETATM   10  N   UNL     1       9.914  30.619  57.105  1.00  0.00    -0.070 N 
HETATM   11  H   UNL     1       9.398  31.471  56.843  1.00  0.00     0.277 HD
HETATM   12  H   UNL     1      10.910  30.872  57.025  1.00  0.00     0.277 HD
HETATM   13  C   UNL     1       9.611  29.487  56.138  1.00  0.00     0.273 C 
HETATM   14  C   UNL     1       7.952  27.675  55.501  1.00  0.00     0.148 C 
HETATM   15  C   UNL     1       7.121  30.276  58.006  1.00  0.00     0.058 C 
ENDROOT
BRANCH   1  16
HETATM   16  C   UNL     1       5.939  26.722  54.419  1.00  0.00     0.145 C 
BRANCH  16  17
HETATM   17  C   UNL     1       6.637  25.441  54.044  1.00  0.00    -0.043 A 
HETATM   18  C   UNL     1       6.705  24.375  54.951  1.00  0.00     0.032 A 
HETATM   19  C   UNL     1       7.398  23.211  54.614  1.00  0.00     0.034 A 
HETATM   20  C   UNL     1       8.025  23.094  53.376  1.00  0.00     0.024 A 
HETATM   21 CL   UNL     1       7.490  21.918  55.745  1.00  0.00    -0.084 Cl
HETATM   22  C   UNL     1       7.954  24.145  52.463  1.00  0.00     0.002 A 
HETATM   23  C   UNL     1       7.263  25.312  52.794  1.00  0.00     0.008 A 
ENDBRANCH  16  17
ENDBRANCH   1  16
TORSDOF 2
ENDMDL
MODEL 5
REMARK VINA RESULT:      -7.7      6.345      9.838
REMARK  2 active torsions:
REMARK  status: ('A' for Active; 'I' for Inactive)
REMARK    1  A    between atoms: C_6  and  C_7 
REMARK    2  A    between atoms: C_7  and  N_8 
ROOT
HETATM    1  N   UNL     1       7.041  31.413  59.414  1.00  0.00    -0.203 NA
HETATM    2  S   UNL     1       8.674  31.043  59.120  1.00  0.00     0.219 S 
HETATM    3  O   UNL     1       9.135  30.133  60.137  1.00  0.00    -0.211 OA
HETATM    4  O   UNL     1       9.363  32.268  58.776  1.00  0.00    -0.211 OA
HETATM    5  C   UNL     1       8.423  30.184  57.575  1.00  0.00     0.164 C 
HETATM    6  C   UNL     1       6.918  30.012  57.449  1.00  0.00     0.116 C 
HETATM    7  O   UNL     1       6.683  28.697  58.003  1.00  0.00    -0.369 OA
HETATM    8  C   UNL     1       7.732  27.885  57.431  1.00  0.00     0.149 C 
HETATM    9  C   UNL     1       7.322  27.586  55.973  1.00  0.00     0.264 C 
HETATM   10  N   UNL     1       7.158  28.887  55.202  1.00  0.00    -0.070 N 
HETATM   11  H   UNL     1       8.080  29.223  54.890  1.00  0.00     0.277 HD
HETATM   12  H   UNL     1       6.636  28.689  54.335  1.00  0.00     0.277 HD
HETATM   13  C   UNL     1       6.429  29.965  55.985  1.00  0.00     0.273 C 
HETATM   14  C   UNL     1       6.204  31.118  58.234  1.00  0.00     0.148 C 
HETATM   15  C   UNL     1       8.979  28.767  57.526  1.00  0.00     0.058 C 
ENDROOT
BRANCH   1  16
HETATM   16  C   UNL     1       6.768  32.742  60.017  1.00  0.00     0.145 C 
BRANCH  16  17
HETATM   17  C   UNL     1       6.824  32.782  61.521  1.00  0.00    -0.043 A 
HETATM   18  C   UNL     1       5.696  33.150  62.267  1.00  0.00     0.032 A 
HETATM   19  C   UNL     1       5.772  33.234  63.658  1.00  0.00     0.034 A 
HETATM   20  C   UNL     1       6.964  32.951  64.321  1.00  0.00     0.024 A 
HETATM   21 CL   UNL     1       4.384  33.706  64.559  1.00  0.00    -0.084 Cl
HETATM   22  C   UNL     1       8.089  32.573  63.588  1.00  0.00     0.002 A 
HETATM   23  C   UNL     1       8.019  32.488  62.197  1.00  0.00     0.008 A 
ENDBRANCH  16  17
ENDBRANCH   1  16
TORSDOF 2
ENDMDL
MODEL 6
REMARK VINA RESULT:      -7.6      2.041      2.684
REMARK  2 active torsions:
REMARK  status: ('A' for Active; 'I' for Inactive)
REMARK    1  A    between atoms: C_6  and  C_7 
REMARK    2  A    between atoms: C_7  and  N_8 
ROOT
HETATM    1  N   UNL     1       5.997  25.968  54.906  1.00  0.00    -0.203 NA
HETATM    2  S   UNL     1       5.920  26.109  56.598  1.00  0.00     0.219 S 
HETATM    3  O   UNL     1       7.260  26.121  57.125  1.00  0.00    -0.211 OA
HETATM    4  O   UNL     1       4.882  25.224  57.082  1.00  0.00    -0.211 OA
HETATM    5  C   UNL     1       5.211  27.747  56.643  1.00  0.00     0.164 C 
HETATM    6  C   UNL     1       5.274  28.254  55.211  1.00  0.00     0.116 C 
HETATM    7  O   UNL     1       6.515  28.994  55.170  1.00  0.00    -0.369 OA
HETATM    8  C   UNL     1       6.505  29.760  56.395  1.00  0.00     0.149 C 
HETATM    9  C   UNL     1       5.536  30.942  56.175  1.00  0.00     0.264 C 
HETATM   10  N   UNL     1       4.146  30.420  55.847  1.00  0.00    -0.070 N 
HETATM   11  H   UNL     1       3.658  30.162  56.716  1.00  0.00     0.277 HD
HETATM   12  H   UNL     1       3.593  31.194  55.447  1.00  0.00     0.277 HD
HETATM   13  C   UNL     1       4.152  29.258  54.868  1.00  0.00     0.273 C 
HETATM   14  C   UNL     1       5.265  27.065  54.243  1.00  0.00     0.148 C 
HETATM   15  C   UNL     1       6.002  28.771  57.448  1.00  0.00     0.058 C 
ENDROOT
BRANCH   1  16
HETATM   16  C   UNL     1       5.691  24.628  54.345  1.00  0.00     0.145 C 
BRANCH  16  17
HETATM   17  C   UNL     1       6.853  23.670  54.315  1.00  0.00    -0.043 A 
HETATM   18  C   UNL     1       7.162  22.891  55.439  1.00  0.00     0.032 A 
HETATM   19  C   UNL     1       8.271  22.044  55.421  1.00  0.00     0.034 A 
HETATM   20  C   UNL     1       9.079  21.959  54.290  1.00  0.00     0.024 A 
HETATM   21 CL   UNL     1       8.650  21.109  56.815  1.00  0.00    -0.084 Cl
HETATM   22  C   UNL     1       8.773  22.721  53.164  1.00  0.00     0.002 A 
HETATM   23  C   UNL     1       7.666  23.571  53.175  1.00  0.00     0.008 A 
ENDBRANCH  16  17
ENDBRANCH   1  16
TORSDOF 2
ENDMDL
MODEL 7
REMARK VINA RESULT:      -7.5      3.620      4.694
REMARK  2 active torsions:
REMARK  status: ('A' for Active; 'I' for Inactive)
REMARK    1  A    between atoms: C_6  and  C_7 
REMARK    2  A    between atoms: C_7  and  N_8 
ROOT
HETATM    1  N   UNL     1       5.283  26.213  51.608  1.00  0.00    -0.203 NA
HETATM    2  S   UNL     1       5.045  27.661  52.466  1.00  0.00     0.219 S 
HETATM    3  O   UNL     1       6.329  28.185  52.856  1.00  0.00    -0.211 OA
HETATM    4  O   UNL     1       3.949  27.468  53.390  1.00  0.00    -0.211 OA
HETATM    5  C   UNL     1       4.367  28.604  51.109  1.00  0.00     0.164 C 
HETATM    6  C   UNL     1       4.578  27.742  49.875  1.00  0.00     0.116 C 
HETATM    7  O   UNL     1       5.831  28.223  49.338  1.00  0.00    -0.369 OA
HETATM    8  C   UNL     1       5.717  29.661  49.423  1.00  0.00     0.149 C 
HETATM    9  C   UNL     1       4.797  30.105  48.265  1.00  0.00     0.264 C 
HETATM   10  N   UNL     1       3.435  29.442  48.399  1.00  0.00    -0.070 N 
HETATM   11  H   UNL     1       2.860  29.963  49.077  1.00  0.00     0.277 HD
HETATM   12  H   UNL     1       2.938  29.531  47.500  1.00  0.00     0.277 HD
HETATM   13  C   UNL     1       3.514  27.973  48.779  1.00  0.00     0.273 C 
HETATM   14  C   UNL     1       4.639  26.265  50.280  1.00  0.00     0.148 C 
HETATM   15  C   UNL     1       5.095  29.905  50.799  1.00  0.00     0.058 C 
ENDROOT
BRANCH   1  16
HETATM   16  C   UNL     1       5.007  24.957  52.351  1.00  0.00     0.145 C 
BRANCH  16  17
HETATM   17  C   UNL     1       6.132  24.479  53.231  1.00  0.00    -0.043 A 
HETATM   18  C   UNL     1       6.159  24.806  54.594  1.00  0.00     0.032 A 
HETATM   19  C   UNL     1       7.231  24.402  55.390  1.00  0.00     0.034 A 
HETATM   20  C   UNL     1       8.281  23.668  54.845  1.00  0.00     0.024 A 
HETATM   21 CL   UNL     1       7.260  24.827  57.058  1.00  0.00    -0.084 Cl
HETATM   22  C   UNL     1       8.258  23.328  53.493  1.00  0.00     0.002 A 
HETATM   23  C   UNL     1       7.189  23.730  52.691  1.00  0.00     0.008 A 
ENDBRANCH  16  17
ENDBRANCH   1  16
TORSDOF 2
ENDMDL
MODEL 8
REMARK VINA RESULT:      -7.4      3.263      6.712
REMARK  2 active torsions:
REMARK  status: ('A' for Active; 'I' for Inactive)
REMARK    1  A    between atoms: C_6  and  C_7 
REMARK    2  A    between atoms: C_7  and  N_8 
ROOT
HETATM    1  N   UNL     1       7.276  25.583  55.593  1.00  0.00    -0.203 NA
HETATM    2  S   UNL     1       6.797  25.199  54.008  1.00  0.00     0.219 S 
HETATM    3  O   UNL     1       7.745  25.768  53.086  1.00  0.00    -0.211 OA
HETATM    4  O   UNL     1       5.367  25.398  53.905  1.00  0.00    -0.211 OA
HETATM    5  C   UNL     1       7.026  23.433  54.138  1.00  0.00     0.164 C 
HETATM    6  C   UNL     1       7.743  23.216  55.461  1.00  0.00     0.116 C 
HETATM    7  O   UNL     1       9.139  23.181  55.085  1.00  0.00    -0.369 OA
HETATM    8  C   UNL     1       9.161  22.352  53.903  1.00  0.00     0.149 C 
HETATM    9  C   UNL     1       9.026  20.890  54.380  1.00  0.00     0.264 C 
HETATM   10  N   UNL     1       7.725  20.711  55.146  1.00  0.00    -0.070 N 
HETATM   11  H   UNL     1       6.947  20.583  54.484  1.00  0.00     0.277 HD
HETATM   12  H   UNL     1       7.776  19.827  55.676  1.00  0.00     0.277 HD
HETATM   13  C   UNL     1       7.430  21.849  56.108  1.00  0.00     0.273 C 
HETATM   14  C   UNL     1       7.419  24.368  56.419  1.00  0.00     0.148 C 
HETATM   15  C   UNL     1       7.952  22.824  53.094  1.00  0.00     0.058 C 
ENDROOT
BRANCH   1  16
HETATM   16  C   UNL     1       6.517  26.669  56.264  1.00  0.00     0.145 C 
BRANCH  16  17
HETATM   17  C   UNL     1       7.358  27.803  56.788  1.00  0.00    -0.043 A 
HETATM   18  C   UNL     1       6.754  28.955  57.311  1.00  0.00     0.032 A 
HETATM   19  C   UNL     1       7.540  30.022  57.746  1.00  0.00     0.034 A 
HETATM   20  C   UNL     1       8.929  29.956  57.671  1.00  0.00     0.024 A 
HETATM   21 CL   UNL     1       6.784  31.438  58.368  1.00  0.00    -0.084 Cl
HETATM   22  C   UNL     1       9.539  28.810  57.163  1.00  0.00     0.002 A 
HETATM   23  C   UNL     1       8.759  27.740  56.724  1.00  0.00     0.008 A 
ENDBRANCH  16  17
ENDBRANCH   1  16
TORSDOF 2
ENDMDL
MODEL 9
REMARK VINA RESULT:      -7.3      2.616      3.672
REMARK  2 active torsions:
REMARK  status: ('A' for Active; 'I' for Inactive)
REMARK    1  A    between atoms: C_6  and  C_7 
REMARK    2  A    between atoms: C_7  and  N_8 
ROOT
HETATM    1  N   UNL     1       6.994  27.124  55.880  1.00  0.00    -0.203 NA
HETATM    2  S   UNL     1       7.577  28.274  56.988  1.00  0.00     0.219 S 
HETATM    3  O   UNL     1       8.542  29.111  56.323  1.00  0.00    -0.211 OA
HETATM    4  O   UNL     1       7.833  27.605  58.245  1.00  0.00    -0.211 OA
HETATM    5  C   UNL     1       6.037  29.149  57.216  1.00  0.00     0.164 C 
HETATM    6  C   UNL     1       5.098  28.596  56.155  1.00  0.00     0.116 C 
HETATM    7  O   UNL     1       5.247  29.525  55.057  1.00  0.00    -0.369 OA
HETATM    8  C   UNL     1       5.223  30.823  55.693  1.00  0.00     0.149 C 
HETATM    9  C   UNL     1       3.748  31.124  56.037  1.00  0.00     0.264 C 
HETATM   10  N   UNL     1       3.202  30.051  56.966  1.00  0.00    -0.070 N 
HETATM   11  H   UNL     1       3.485  30.255  57.935  1.00  0.00     0.277 HD
HETATM   12  H   UNL     1       2.172  30.115  56.968  1.00  0.00     0.277 HD
HETATM   13  C   UNL     1       3.611  28.643  56.570  1.00  0.00     0.273 C 
HETATM   14  C   UNL     1       5.522  27.171  55.782  1.00  0.00     0.148 C 
HETATM   15  C   UNL     1       6.096  30.644  56.936  1.00  0.00     0.058 C 
ENDROOT
BRANCH   1  16
HETATM   16  C   UNL     1       7.535  25.748  56.017  1.00  0.00     0.145 C 
BRANCH  16  17
HETATM   17  C   UNL     1       7.615  24.964  54.734  1.00  0.00    -0.043 A 
HETATM   18  C   UNL     1       7.620  23.563  54.754  1.00  0.00     0.032 A 
HETATM   19  C   UNL     1       7.746  22.845  53.564  1.00  0.00     0.034 A 
HETATM   20  C   UNL     1       7.864  23.509  52.345  1.00  0.00     0.024 A 
HETATM   21 CL   UNL     1       7.770  21.125  53.606  1.00  0.00    -0.084 Cl
HETATM   22  C   UNL     1       7.849  24.903  52.314  1.00  0.00     0.002 A 
HETATM   23  C   UNL     1       7.724  25.627  53.501  1.00  0.00     0.008 A 
ENDBRANCH  16  17
ENDBRANCH   1  16
TORSDOF 2
ENDMDL
MODEL 10
REMARK VINA RESULT:      -7.3      5.345      8.256
REMARK  2 active torsions:
REMARK  status: ('A' for Active; 'I' for Inactive)
REMARK    1  A    between atoms: C_6  and  C_7 
REMARK    2  A    between atoms: C_7  and  N_8 
ROOT
HETATM    1  N   UNL     1       8.004  29.988  58.175  1.00  0.00    -0.203 NA
HETATM    2  S   UNL     1       8.655  29.005  56.950  1.00  0.00     0.219 S 
HETATM    3  O   UNL     1       8.810  27.668  57.461  1.00  0.00    -0.211 OA
HETATM    4  O   UNL     1       9.718  29.737  56.296  1.00  0.00    -0.211 OA
HETATM    5  C   UNL     1       7.259  29.097  55.840  1.00  0.00     0.164 C 
HETATM    6  C   UNL     1       6.153  29.769  56.638  1.00  0.00     0.116 C 
HETATM    7  O   UNL     1       5.408  28.657  57.184  1.00  0.00    -0.369 OA
HETATM    8  C   UNL     1       5.287  27.740  56.074  1.00  0.00     0.149 C 
HETATM    9  C   UNL     1       4.190  28.305  55.146  1.00  0.00     0.264 C 
HETATM   10  N   UNL     1       4.580  29.694  54.665  1.00  0.00    -0.070 N 
HETATM   11  H   UNL     1       5.232  29.616  53.872  1.00  0.00     0.277 HD
HETATM   12  H   UNL     1       3.741  30.153  54.279  1.00  0.00     0.277 HD
HETATM   13  C   UNL     1       5.166  30.569  55.760  1.00  0.00     0.273 C 
HETATM   14  C   UNL     1       6.768  30.658  57.726  1.00  0.00     0.148 C 
HETATM   15  C   UNL     1       6.673  27.753  55.427  1.00  0.00     0.058 C 
ENDROOT
BRANCH   1  16
HETATM   16  C   UNL     1       8.956  30.900  58.859  1.00  0.00     0.145 C 
BRANCH  16  17
HETATM   17  C   UNL     1       8.591  31.253  60.277  1.00  0.00    -0.043 A 
HETATM   18  C   UNL     1       7.811  32.385  60.551  1.00  0.00     0.032 A 
HETATM   19  C   UNL     1       7.521  32.734  61.870  1.00  0.00     0.034 A 
HETATM   20  C   UNL     1       7.996  31.963  62.928  1.00  0.00     0.024 A 
HETATM   21 CL   UNL     1       6.578  34.137  62.192  1.00  0.00    -0.084 Cl
HETATM   22  C   UNL     1       8.763  30.828  62.665  1.00  0.00     0.002 A 
HETATM   23  C   UNL     1       9.058  30.475  61.348  1.00  0.00     0.008 A 
ENDBRANCH  16  17
ENDBRANCH   1  16
TORSDOF 2
ENDMDL
