MODEL 1
REMARK VINA RESULT:      -9.3      0.000      0.000
REMARK  10 active torsions:
REMARK  status: ('A' for Active; 'I' for Inactive)
REMARK    1  A    between atoms: C_3  and  N_4 
REMARK    2  A    between atoms: C_5  and  S_6 
REMARK    3  A    between atoms: S_6  and  C_7 
REMARK    4  A    between atoms: C_7  and  C_8 
REMARK       I    between atoms: C_8  and  N_9 
REMARK    5  A    between atoms: N_9  and  C_10 
REMARK    6  A    between atoms: C_10  and  C_11 
REMARK    7  A    between atoms: C_11  and  C_12 
REMARK    8  A    between atoms: C_15  and  S_16 
REMARK    9  A    between atoms: S_16  and  N_17 
REMARK   10  A    between atoms: C_26  and  N_27 
ROOT
HETATM    1  N   UNL     1       7.697  25.129  55.419  1.00  0.00    -0.275 N 
HETATM    2  C   UNL     1       7.549  25.194  54.065  1.00  0.00     0.177 A 
HETATM    3  N   UNL     1       7.793  24.178  53.208  1.00  0.00    -0.204 NA
HETATM    4  C   UNL     1       8.081  23.045  53.850  1.00  0.00     0.162 A 
HETATM    5  C   UNL     1       8.194  22.871  55.213  1.00  0.00     0.081 A 
HETATM    6  C   UNL     1       8.032  23.976  56.065  1.00  0.00     0.124 A 
HETATM    7  N   UNL     1       8.310  21.829  53.273  1.00  0.00    -0.260 N 
HETATM    8  H   UNL     1       8.306  21.595  52.286  1.00  0.00     0.191 HD
HETATM    9  N   UNL     1       8.559  20.862  54.167  1.00  0.00    -0.177 NA
HETATM   10  C   UNL     1       8.482  21.479  55.353  1.00  0.00     0.068 A 
HETATM   11  C   UNL     1       8.688  20.688  56.594  1.00  0.00     0.073 C 
ENDROOT
BRANCH   2  12
HETATM   12  S   UNL     1       7.015  26.717  53.259  1.00  0.00    -0.082 SA
BRANCH  12  13
HETATM   13  C   UNL     1       5.417  26.177  52.571  1.00  0.00     0.185 C 
BRANCH  13  14
HETATM   14  C   UNL     1       4.446  27.331  52.341  1.00  0.00     0.227 C 
HETATM   15  N   UNL     1       4.191  27.681  51.037  1.00  0.00    -0.360 N 
HETATM   16  H   UNL     1       3.491  28.410  50.931  1.00  0.00     0.162 HD
HETATM   17  O   UNL     1       3.885  27.936  53.256  1.00  0.00    -0.273 OA
BRANCH  15  18
HETATM   18  C   UNL     1       4.567  26.893  49.873  1.00  0.00     0.127 C 
BRANCH  18  19
HETATM   19  C   UNL     1       4.648  27.700  48.577  1.00  0.00     0.058 C 
BRANCH  19  20
HETATM   20  C   UNL     1       3.282  27.764  47.933  1.00  0.00    -0.057 A 
HETATM   21  C   UNL     1       2.604  26.584  47.593  1.00  0.00     0.009 A 
HETATM   22  C   UNL     1       1.396  26.640  46.893  1.00  0.00     0.025 A 
HETATM   23  C   UNL     1       0.860  27.879  46.538  1.00  0.00     0.074 A 
HETATM   24  C   UNL     1       1.519  29.063  46.880  1.00  0.00     0.025 A 
HETATM   25  C   UNL     1       2.725  29.003  47.580  1.00  0.00     0.009 A 
BRANCH  23  26
HETATM   26  S   UNL     1      -0.607  27.945  45.549  1.00  0.00     0.239 S 
HETATM   27  O   UNL     1      -0.621  26.810  44.656  1.00  0.00    -0.206 OA
HETATM   28  O   UNL     1      -1.726  28.272  46.401  1.00  0.00    -0.206 OA
BRANCH  26  29
HETATM   29  N   UNL     1      -0.331  29.294  44.592  1.00  0.00    -0.225 NA
HETATM   30  H   UNL     1      -1.220  29.701  44.299  1.00  0.00     0.136 HD
HETATM   31  H   UNL     1       0.275  29.953  45.084  1.00  0.00     0.136 HD
ENDBRANCH  26  29
ENDBRANCH  23  26
ENDBRANCH  19  20
ENDBRANCH  18  19
ENDBRANCH  15  18
ENDBRANCH  13  14
ENDBRANCH  12  13
ENDBRANCH   2  12
BRANCH   1  32
HETATM   32  C   UNL     1       7.478  26.309  56.212  1.00  0.00     0.051 A 
HETATM   33  C   UNL     1       6.183  26.622  56.665  1.00  0.00    -0.035 A 
HETATM   34  C   UNL     1       4.987  25.739  56.448  1.00  0.00     0.050 C 
HETATM   35  C   UNL     1       6.026  27.801  57.405  1.00  0.00     0.011 A 
HETATM   36  C   UNL     1       7.114  28.649  57.637  1.00  0.00     0.024 A 
HETATM   37  C   UNL     1       8.378  28.323  57.147  1.00  0.00     0.036 A 
HETATM   38  C   UNL     1       8.575  27.147  56.429  1.00  0.00     0.054 A 
HETATM   39 CL   UNL     1       9.699  29.385  57.414  1.00  0.00    -0.084 Cl
ENDBRANCH   1  32
BRANCH   6  40
HETATM   40  N   UNL     1       8.205  23.898  57.441  1.00  0.00    -0.384 N 
HETATM   41  H   UNL     1       8.522  23.025  57.847  1.00  0.00     0.157 HD
HETATM   42  H   UNL     1       8.376  24.715  58.014  1.00  0.00     0.157 HD
ENDBRANCH   6  40
TORSDOF 10
ENDMDL
MODEL 2
REMARK VINA RESULT:      -9.3      3.941      8.807
REMARK  10 active torsions:
REMARK  status: ('A' for Active; 'I' for Inactive)
REMARK    1  A    between atoms: C_3  and  N_4 
REMARK    2  A    between atoms: C_5  and  S_6 
REMARK    3  A    between atoms: S_6  and  C_7 
REMARK    4  A    between atoms: C_7  and  C_8 
REMARK       I    between atoms: C_8  and  N_9 
REMARK    5  A    between atoms: N_9  and  C_10 
REMARK    6  A    between atoms: C_10  and  C_11 
REMARK    7  A    between atoms: C_11  and  C_12 
REMARK    8  A    between atoms: C_15  and  S_16 
REMARK    9  A    between atoms: S_16  and  N_17 
REMARK   10  A    between atoms: C_26  and  N_27 
ROOT
HETATM    1  N   UNL     1       5.559  29.497  55.836  1.00  0.00    -0.275 N 
HETATM    2  C   UNL     1       5.091  29.334  54.565  1.00  0.00     0.177 A 
HETATM    3  N   UNL     1       4.013  29.965  54.049  1.00  0.00    -0.204 NA
HETATM    4  C   UNL     1       3.520  30.874  54.890  1.00  0.00     0.162 A 
HETATM    5  C   UNL     1       3.962  31.149  56.166  1.00  0.00     0.081 A 
HETATM    6  C   UNL     1       5.022  30.400  56.704  1.00  0.00     0.124 A 
HETATM    7  N   UNL     1       2.478  31.721  54.639  1.00  0.00    -0.260 N 
HETATM    8  H   UNL     1       1.919  31.791  53.795  1.00  0.00     0.191 HD
HETATM    9  N   UNL     1       2.210  32.542  55.664  1.00  0.00    -0.177 NA
HETATM   10  C   UNL     1       3.111  32.212  56.597  1.00  0.00     0.068 A 
HETATM   11  C   UNL     1       3.120  32.951  57.887  1.00  0.00     0.073 C 
ENDROOT
BRANCH   2  12
HETATM   12  S   UNL     1       5.889  28.193  53.418  1.00  0.00    -0.082 SA
BRANCH  12  13
HETATM   13  C   UNL     1       4.527  27.909  52.243  1.00  0.00     0.185 C 
BRANCH  13  14
HETATM   14  C   UNL     1       5.012  27.629  50.823  1.00  0.00     0.227 C 
HETATM   15  N   UNL     1       5.779  26.504  50.637  1.00  0.00    -0.360 N 
HETATM   16  H   UNL     1       6.025  26.324  49.668  1.00  0.00     0.162 HD
HETATM   17  O   UNL     1       4.740  28.348  49.861  1.00  0.00    -0.273 OA
BRANCH  15  18
HETATM   18  C   UNL     1       5.951  25.440  51.615  1.00  0.00     0.127 C 
BRANCH  18  19
HETATM   19  C   UNL     1       7.412  25.122  51.935  1.00  0.00     0.058 C 
BRANCH  19  20
HETATM   20  C   UNL     1       7.475  24.059  53.008  1.00  0.00    -0.057 A 
HETATM   21  C   UNL     1       7.119  24.364  54.330  1.00  0.00     0.009 A 
HETATM   22  C   UNL     1       7.287  23.418  55.343  1.00  0.00     0.025 A 
HETATM   23  C   UNL     1       7.808  22.159  55.034  1.00  0.00     0.074 A 
HETATM   24  C   UNL     1       8.157  21.838  53.720  1.00  0.00     0.025 A 
HETATM   25  C   UNL     1       7.986  22.785  52.710  1.00  0.00     0.009 A 
BRANCH  23  26
HETATM   26  S   UNL     1       8.132  21.004  56.337  1.00  0.00     0.239 S 
HETATM   27  O   UNL     1       8.430  21.734  57.546  1.00  0.00    -0.206 OA
HETATM   28  O   UNL     1       7.136  19.960  56.289  1.00  0.00    -0.206 OA
BRANCH  26  29
HETATM   29  N   UNL     1       9.574  20.306  55.841  1.00  0.00    -0.225 NA
HETATM   30  H   UNL     1       9.928  20.787  55.013  1.00  0.00     0.136 HD
HETATM   31  H   UNL     1      10.238  20.289  56.616  1.00  0.00     0.136 HD
ENDBRANCH  26  29
ENDBRANCH  23  26
ENDBRANCH  19  20
ENDBRANCH  18  19
ENDBRANCH  15  18
ENDBRANCH  13  14
ENDBRANCH  12  13
ENDBRANCH   2  12
BRANCH   1  32
HETATM   32  C   UNL     1       6.671  28.704  56.286  1.00  0.00     0.051 A 
HETATM   33  C   UNL     1       6.452  27.409  56.793  1.00  0.00    -0.035 A 
HETATM   34  C   UNL     1       5.108  26.739  56.819  1.00  0.00     0.050 C 
HETATM   35  C   UNL     1       7.571  26.697  57.247  1.00  0.00     0.011 A 
HETATM   36  C   UNL     1       8.842  27.280  57.234  1.00  0.00     0.024 A 
HETATM   37  C   UNL     1       9.018  28.577  56.753  1.00  0.00     0.036 A 
HETATM   38  C   UNL     1       7.934  29.304  56.271  1.00  0.00     0.054 A 
HETATM   39 CL   UNL     1      10.579  29.291  56.767  1.00  0.00    -0.084 Cl
ENDBRANCH   1  32
BRANCH   6  40
HETATM   40  N   UNL     1       5.475  30.564  58.007  1.00  0.00    -0.384 N 
HETATM   41  H   UNL     1       5.290  31.439  58.485  1.00  0.00     0.157 HD
HETATM   42  H   UNL     1       5.656  29.780  58.622  1.00  0.00     0.157 HD
ENDBRANCH   6  40
TORSDOF 10
ENDMDL
MODEL 3
REMARK VINA RESULT:      -9.3      6.256     10.961
REMARK  10 active torsions:
REMARK  status: ('A' for Active; 'I' for Inactive)
REMARK    1  A    between atoms: C_3  and  N_4 
REMARK    2  A    between atoms: C_5  and  S_6 
REMARK    3  A    between atoms: S_6  and  C_7 
REMARK    4  A    between atoms: C_7  and  C_8 
REMARK       I    between atoms: C_8  and  N_9 
REMARK    5  A    between atoms: N_9  and  C_10 
REMARK    6  A    between atoms: C_10  and  C_11 
REMARK    7  A    between atoms: C_11  and  C_12 
REMARK    8  A    between atoms: C_15  and  S_16 
REMARK    9  A    between atoms: S_16  and  N_17 
REMARK   10  A    between atoms: C_26  and  N_27 
ROOT
HETATM    1  N   UNL     1       6.692  26.993  55.170  1.00  0.00    -0.275 N 
HETATM    2  C   UNL     1       7.542  27.549  56.080  1.00  0.00     0.177 A 
HETATM    3  N   UNL     1       8.325  26.853  56.935  1.00  0.00    -0.204 NA
HETATM    4  C   UNL     1       8.268  25.541  56.705  1.00  0.00     0.162 A 
HETATM    5  C   UNL     1       7.485  24.897  55.771  1.00  0.00     0.081 A 
HETATM    6  C   UNL     1       6.610  25.648  54.969  1.00  0.00     0.124 A 
HETATM    7  N   UNL     1       8.989  24.578  57.351  1.00  0.00    -0.260 N 
HETATM    8  H   UNL     1       9.665  24.701  58.098  1.00  0.00     0.191 HD
HETATM    9  N   UNL     1       8.740  23.342  56.899  1.00  0.00    -0.177 NA
HETATM   10  C   UNL     1       7.834  23.521  55.930  1.00  0.00     0.068 A 
HETATM   11  C   UNL     1       7.334  22.338  55.179  1.00  0.00     0.073 C 
ENDROOT
BRANCH   2  12
HETATM   12  S   UNL     1       7.687  29.339  56.249  1.00  0.00    -0.082 SA
BRANCH  12  13
HETATM   13  C   UNL     1       8.522  29.446  57.864  1.00  0.00     0.185 C 
BRANCH  13  14
HETATM   14  C   UNL     1       9.910  30.076  57.778  1.00  0.00     0.227 C 
HETATM   15  N   UNL     1      10.065  31.320  58.340  1.00  0.00    -0.360 N 
HETATM   16  H   UNL     1      11.019  31.671  58.315  1.00  0.00     0.162 HD
HETATM   17  O   UNL     1      10.873  29.520  57.248  1.00  0.00    -0.273 OA
BRANCH  15  18
HETATM   18  C   UNL     1       9.101  31.965  59.217  1.00  0.00     0.127 C 
BRANCH  18  19
HETATM   19  C   UNL     1       9.445  31.856  60.703  1.00  0.00     0.058 C 
BRANCH  19  20
HETATM   20  C   UNL     1       8.238  32.235  61.531  1.00  0.00    -0.057 A 
HETATM   21  C   UNL     1       7.032  32.586  60.906  1.00  0.00     0.009 A 
HETATM   22  C   UNL     1       5.952  33.048  61.662  1.00  0.00     0.025 A 
HETATM   23  C   UNL     1       6.075  33.153  63.049  1.00  0.00     0.074 A 
HETATM   24  C   UNL     1       7.265  32.796  63.686  1.00  0.00     0.025 A 
HETATM   25  C   UNL     1       8.342  32.334  62.927  1.00  0.00     0.009 A 
BRANCH  23  26
HETATM   26  S   UNL     1       4.749  33.851  63.993  1.00  0.00     0.239 S 
HETATM   27  O   UNL     1       4.968  35.272  64.129  1.00  0.00    -0.206 OA
HETATM   28  O   UNL     1       3.501  33.304  63.513  1.00  0.00    -0.206 OA
BRANCH  26  29
HETATM   29  N   UNL     1       5.004  33.186  65.511  1.00  0.00    -0.225 NA
HETATM   30  H   UNL     1       5.872  32.648  65.514  1.00  0.00     0.136 HD
HETATM   31  H   UNL     1       4.979  33.919  66.221  1.00  0.00     0.136 HD
ENDBRANCH  26  29
ENDBRANCH  23  26
ENDBRANCH  19  20
ENDBRANCH  18  19
ENDBRANCH  15  18
ENDBRANCH  13  14
ENDBRANCH  12  13
ENDBRANCH   2  12
BRANCH   1  32
HETATM   32  C   UNL     1       5.856  27.849  54.371  1.00  0.00     0.051 A 
HETATM   33  C   UNL     1       4.642  28.333  54.895  1.00  0.00    -0.035 A 
HETATM   34  C   UNL     1       4.182  28.086  56.304  1.00  0.00     0.050 C 
HETATM   35  C   UNL     1       3.854  29.136  54.059  1.00  0.00     0.011 A 
HETATM   36  C   UNL     1       4.248  29.399  52.743  1.00  0.00     0.024 A 
HETATM   37  C   UNL     1       5.442  28.877  52.247  1.00  0.00     0.036 A 
HETATM   38  C   UNL     1       6.261  28.097  53.057  1.00  0.00     0.054 A 
HETATM   39 CL   UNL     1       5.900  29.184  50.622  1.00  0.00    -0.084 Cl
ENDBRANCH   1  32
BRANCH   6  40
HETATM   40  N   UNL     1       5.735  25.067  54.059  1.00  0.00    -0.384 N 
HETATM   41  H   UNL     1       5.516  25.564  53.202  1.00  0.00     0.157 HD
HETATM   42  H   UNL     1       5.580  24.068  54.017  1.00  0.00     0.157 HD
ENDBRANCH   6  40
TORSDOF 10
ENDMDL
MODEL 4
REMARK VINA RESULT:      -9.0      6.033     11.549
REMARK  10 active torsions:
REMARK  status: ('A' for Active; 'I' for Inactive)
REMARK    1  A    between atoms: C_3  and  N_4 
REMARK    2  A    between atoms: C_5  and  S_6 
REMARK    3  A    between atoms: S_6  and  C_7 
REMARK    4  A    between atoms: C_7  and  C_8 
REMARK       I    between atoms: C_8  and  N_9 
REMARK    5  A    between atoms: N_9  and  C_10 
REMARK    6  A    between atoms: C_10  and  C_11 
REMARK    7  A    between atoms: C_11  and  C_12 
REMARK    8  A    between atoms: C_15  and  S_16 
REMARK    9  A    between atoms: S_16  and  N_17 
REMARK   10  A    between atoms: C_26  and  N_27 
ROOT
HETATM    1  N   UNL     1       6.111  26.886  54.919  1.00  0.00    -0.275 N 
HETATM    2  C   UNL     1       6.724  27.861  55.650  1.00  0.00     0.177 A 
HETATM    3  N   UNL     1       6.485  29.186  55.529  1.00  0.00    -0.204 NA
HETATM    4  C   UNL     1       5.478  29.435  54.692  1.00  0.00     0.162 A 
HETATM    5  C   UNL     1       4.764  28.513  53.957  1.00  0.00     0.081 A 
HETATM    6  C   UNL     1       5.110  27.154  54.034  1.00  0.00     0.124 A 
HETATM    7  N   UNL     1       4.952  30.663  54.408  1.00  0.00    -0.260 N 
HETATM    8  H   UNL     1       5.239  31.565  54.774  1.00  0.00     0.191 HD
HETATM    9  N   UNL     1       3.932  30.610  53.541  1.00  0.00    -0.177 NA
HETATM   10  C   UNL     1       3.799  29.307  53.265  1.00  0.00     0.068 A 
HETATM   11  C   UNL     1       2.727  28.871  52.332  1.00  0.00     0.073 C 
ENDROOT
BRANCH   2  12
HETATM   12  S   UNL     1       7.981  27.454  56.878  1.00  0.00    -0.082 SA
BRANCH  12  13
HETATM   13  C   UNL     1       8.026  29.010  57.824  1.00  0.00     0.185 C 
BRANCH  13  14
HETATM   14  C   UNL     1       9.338  29.771  57.657  1.00  0.00     0.227 C 
HETATM   15  N   UNL     1       9.709  30.607  58.684  1.00  0.00    -0.360 N 
HETATM   16  H   UNL     1      10.618  31.043  58.558  1.00  0.00     0.162 HD
HETATM   17  O   UNL     1      10.065  29.659  56.669  1.00  0.00    -0.273 OA
BRANCH  15  18
HETATM   18  C   UNL     1       9.094  30.632  60.002  1.00  0.00     0.127 C 
BRANCH  18  19
HETATM   19  C   UNL     1       9.422  31.885  60.816  1.00  0.00     0.058 C 
BRANCH  19  20
HETATM   20  C   UNL     1       8.216  32.287  61.634  1.00  0.00    -0.057 A 
HETATM   21  C   UNL     1       7.028  32.678  60.999  1.00  0.00     0.009 A 
HETATM   22  C   UNL     1       5.953  33.161  61.748  1.00  0.00     0.025 A 
HETATM   23  C   UNL     1       6.062  33.247  63.138  1.00  0.00     0.074 A 
HETATM   24  C   UNL     1       7.235  32.851  63.784  1.00  0.00     0.025 A 
HETATM   25  C   UNL     1       8.307  32.368  63.032  1.00  0.00     0.009 A 
BRANCH  23  26
HETATM   26  S   UNL     1       4.744  33.971  64.074  1.00  0.00     0.239 S 
HETATM   27  O   UNL     1       5.041  35.366  64.298  1.00  0.00    -0.206 OA
HETATM   28  O   UNL     1       3.486  33.526  63.523  1.00  0.00    -0.206 OA
BRANCH  26  29
HETATM   29  N   UNL     1       4.906  33.211  65.560  1.00  0.00    -0.225 NA
HETATM   30  H   UNL     1       4.141  32.548  65.697  1.00  0.00     0.136 HD
HETATM   31  H   UNL     1       5.831  32.785  65.636  1.00  0.00     0.136 HD
ENDBRANCH  26  29
ENDBRANCH  23  26
ENDBRANCH  19  20
ENDBRANCH  18  19
ENDBRANCH  15  18
ENDBRANCH  13  14
ENDBRANCH  12  13
ENDBRANCH   2  12
BRANCH   1  32
HETATM   32  C   UNL     1       6.515  25.516  55.091  1.00  0.00     0.051 A 
HETATM   33  C   UNL     1       6.068  24.787  56.209  1.00  0.00    -0.035 A 
HETATM   34  C   UNL     1       5.099  25.323  57.223  1.00  0.00     0.050 C 
HETATM   35  C   UNL     1       6.519  23.466  56.339  1.00  0.00     0.011 A 
HETATM   36  C   UNL     1       7.416  22.923  55.413  1.00  0.00     0.024 A 
HETATM   37  C   UNL     1       7.862  23.686  54.334  1.00  0.00     0.036 A 
HETATM   38  C   UNL     1       7.415  24.991  54.160  1.00  0.00     0.054 A 
HETATM   39 CL   UNL     1       8.984  23.017  53.220  1.00  0.00    -0.084 Cl
ENDBRANCH   1  32
BRANCH   6  40
HETATM   40  N   UNL     1       4.490  26.174  53.269  1.00  0.00    -0.384 N 
HETATM   41  H   UNL     1       4.984  25.788  52.471  1.00  0.00     0.157 HD
HETATM   42  H   UNL     1       3.757  25.581  53.636  1.00  0.00     0.157 HD
ENDBRANCH   6  40
TORSDOF 10
ENDMDL
MODEL 5
REMARK VINA RESULT:      -8.6      3.858      6.043
REMARK  10 active torsions:
REMARK  status: ('A' for Active; 'I' for Inactive)
REMARK    1  A    between atoms: C_3  and  N_4 
REMARK    2  A    between atoms: C_5  and  S_6 
REMARK    3  A    between atoms: S_6  and  C_7 
REMARK    4  A    between atoms: C_7  and  C_8 
REMARK       I    between atoms: C_8  and  N_9 
REMARK    5  A    between atoms: N_9  and  C_10 
REMARK    6  A    between atoms: C_10  and  C_11 
REMARK    7  A    between atoms: C_11  and  C_12 
REMARK    8  A    between atoms: C_15  and  S_16 
REMARK    9  A    between atoms: S_16  and  N_17 
REMARK   10  A    between atoms: C_26  and  N_27 
ROOT
HETATM    1  N   UNL     1       7.675  25.673  55.625  1.00  0.00    -0.275 N 
HETATM    2  C   UNL     1       7.497  25.744  54.275  1.00  0.00     0.177 A 
HETATM    3  N   UNL     1       7.641  24.708  53.419  1.00  0.00    -0.204 NA
HETATM    4  C   UNL     1       7.859  23.560  54.060  1.00  0.00     0.162 A 
HETATM    5  C   UNL     1       7.994  23.384  55.421  1.00  0.00     0.081 A 
HETATM    6  C   UNL     1       7.937  24.502  56.270  1.00  0.00     0.124 A 
HETATM    7  N   UNL     1       7.980  22.327  53.485  1.00  0.00    -0.260 N 
HETATM    8  H   UNL     1       7.933  22.090  52.500  1.00  0.00     0.191 HD
HETATM    9  N   UNL     1       8.178  21.348  54.378  1.00  0.00    -0.177 NA
HETATM   10  C   UNL     1       8.179  21.974  55.562  1.00  0.00     0.068 A 
HETATM   11  C   UNL     1       8.357  21.175  56.803  1.00  0.00     0.073 C 
ENDROOT
BRANCH   2  12
HETATM   12  S   UNL     1       7.059  27.300  53.473  1.00  0.00    -0.082 SA
BRANCH  12  13
HETATM   13  C   UNL     1       5.341  26.941  52.985  1.00  0.00     0.185 C 
BRANCH  13  14
HETATM   14  C   UNL     1       5.135  26.958  51.473  1.00  0.00     0.227 C 
HETATM   15  N   UNL     1       4.702  28.137  50.916  1.00  0.00    -0.360 N 
HETATM   16  H   UNL     1       4.640  28.120  49.902  1.00  0.00     0.162 HD
HETATM   17  O   UNL     1       5.349  25.983  50.749  1.00  0.00    -0.273 OA
BRANCH  15  18
HETATM   18  C   UNL     1       4.667  29.420  51.601  1.00  0.00     0.127 C 
BRANCH  18  19
HETATM   19  C   UNL     1       3.277  29.825  52.091  1.00  0.00     0.058 C 
BRANCH  19  20
HETATM   20  C   UNL     1       3.400  30.588  53.390  1.00  0.00    -0.057 A 
HETATM   21  C   UNL     1       3.068  31.950  53.446  1.00  0.00     0.009 A 
HETATM   22  C   UNL     1       3.290  32.684  54.613  1.00  0.00     0.025 A 
HETATM   23  C   UNL     1       3.841  32.054  55.731  1.00  0.00     0.074 A 
HETATM   24  C   UNL     1       4.166  30.696  55.693  1.00  0.00     0.025 A 
HETATM   25  C   UNL     1       3.941  29.966  54.526  1.00  0.00     0.009 A 
BRANCH  23  26
HETATM   26  S   UNL     1       4.234  33.012  57.168  1.00  0.00     0.239 S 
HETATM   27  O   UNL     1       5.624  32.808  57.501  1.00  0.00    -0.206 OA
HETATM   28  O   UNL     1       3.659  34.328  57.018  1.00  0.00    -0.206 OA
BRANCH  26  29
HETATM   29  N   UNL     1       3.345  32.241  58.363  1.00  0.00    -0.225 NA
HETATM   30  H   UNL     1       3.197  31.262  58.110  1.00  0.00     0.136 HD
HETATM   31  H   UNL     1       3.801  32.361  59.269  1.00  0.00     0.136 HD
ENDBRANCH  26  29
ENDBRANCH  23  26
ENDBRANCH  19  20
ENDBRANCH  18  19
ENDBRANCH  15  18
ENDBRANCH  13  14
ENDBRANCH  12  13
ENDBRANCH   2  12
BRANCH   1  32
HETATM   32  C   UNL     1       7.566  26.871  56.415  1.00  0.00     0.051 A 
HETATM   33  C   UNL     1       6.308  27.292  56.885  1.00  0.00    -0.035 A 
HETATM   34  C   UNL     1       5.039  26.511  56.689  1.00  0.00     0.050 C 
HETATM   35  C   UNL     1       6.261  28.483  57.622  1.00  0.00     0.011 A 
HETATM   36  C   UNL     1       7.419  29.237  57.835  1.00  0.00     0.024 A 
HETATM   37  C   UNL     1       8.644  28.805  57.329  1.00  0.00     0.036 A 
HETATM   38  C   UNL     1       8.732  27.615  56.614  1.00  0.00     0.054 A 
HETATM   39 CL   UNL     1      10.053  29.754  57.574  1.00  0.00    -0.084 Cl
ENDBRANCH   1  32
BRANCH   6  40
HETATM   40  N   UNL     1       8.140  24.417  57.641  1.00  0.00    -0.384 N 
HETATM   41  H   UNL     1       8.638  23.617  58.015  1.00  0.00     0.157 HD
HETATM   42  H   UNL     1       8.143  25.232  58.241  1.00  0.00     0.157 HD
ENDBRANCH   6  40
TORSDOF 10
ENDMDL
MODEL 6
REMARK VINA RESULT:      -8.5      4.391      9.875
REMARK  10 active torsions:
REMARK  status: ('A' for Active; 'I' for Inactive)
REMARK    1  A    between atoms: C_3  and  N_4 
REMARK    2  A    between atoms: C_5  and  S_6 
REMARK    3  A    between atoms: S_6  and  C_7 
REMARK    4  A    between atoms: C_7  and  C_8 
REMARK       I    between atoms: C_8  and  N_9 
REMARK    5  A    between atoms: N_9  and  C_10 
REMARK    6  A    between atoms: C_10  and  C_11 
REMARK    7  A    between atoms: C_11  and  C_12 
REMARK    8  A    between atoms: C_15  and  S_16 
REMARK    9  A    between atoms: S_16  and  N_17 
REMARK   10  A    between atoms: C_26  and  N_27 
ROOT
HETATM    1  N   UNL     1       3.995  28.782  51.392  1.00  0.00    -0.275 N 
HETATM    2  C   UNL     1       4.705  27.851  52.091  1.00  0.00     0.177 A 
HETATM    3  N   UNL     1       5.034  27.948  53.398  1.00  0.00    -0.204 NA
HETATM    4  C   UNL     1       4.475  29.012  53.974  1.00  0.00     0.162 A 
HETATM    5  C   UNL     1       3.696  29.972  53.363  1.00  0.00     0.081 A 
HETATM    6  C   UNL     1       3.460  29.889  51.980  1.00  0.00     0.124 A 
HETATM    7  N   UNL     1       4.560  29.351  55.294  1.00  0.00    -0.260 N 
HETATM    8  H   UNL     1       5.056  28.864  56.033  1.00  0.00     0.191 HD
HETATM    9  N   UNL     1       3.881  30.466  55.595  1.00  0.00    -0.177 NA
HETATM   10  C   UNL     1       3.342  30.850  54.431  1.00  0.00     0.068 A 
HETATM   11  C   UNL     1       2.488  32.067  54.396  1.00  0.00     0.073 C 
ENDROOT
BRANCH   2  12
HETATM   12  S   UNL     1       5.316  26.353  51.292  1.00  0.00    -0.082 SA
BRANCH  12  13
HETATM   13  C   UNL     1       5.892  25.421  52.748  1.00  0.00     0.185 C 
BRANCH  13  14
HETATM   14  C   UNL     1       7.372  25.057  52.676  1.00  0.00     0.227 C 
HETATM   15  N   UNL     1       7.822  24.100  53.554  1.00  0.00    -0.360 N 
HETATM   16  H   UNL     1       8.797  23.845  53.427  1.00  0.00     0.162 HD
HETATM   17  O   UNL     1       8.156  25.566  51.874  1.00  0.00    -0.273 OA
BRANCH  15  18
HETATM   18  C   UNL     1       6.968  23.239  54.357  1.00  0.00     0.127 C 
BRANCH  18  19
HETATM   19  C   UNL     1       7.329  23.219  55.843  1.00  0.00     0.058 C 
BRANCH  19  20
HETATM   20  C   UNL     1       7.276  24.625  56.395  1.00  0.00    -0.057 A 
HETATM   21  C   UNL     1       6.096  25.379  56.302  1.00  0.00     0.009 A 
HETATM   22  C   UNL     1       6.078  26.716  56.705  1.00  0.00     0.025 A 
HETATM   23  C   UNL     1       7.241  27.301  57.210  1.00  0.00     0.074 A 
HETATM   24  C   UNL     1       8.420  26.560  57.319  1.00  0.00     0.025 A 
HETATM   25  C   UNL     1       8.434  25.224  56.917  1.00  0.00     0.009 A 
BRANCH  23  26
HETATM   26  S   UNL     1       7.248  29.027  57.609  1.00  0.00     0.239 S 
HETATM   27  O   UNL     1       8.036  29.228  58.802  1.00  0.00    -0.206 OA
HETATM   28  O   UNL     1       7.472  29.781  56.397  1.00  0.00    -0.206 OA
BRANCH  26  29
HETATM   29  N   UNL     1       5.653  29.297  58.046  1.00  0.00    -0.225 NA
HETATM   30  H   UNL     1       5.609  29.658  59.000  1.00  0.00     0.136 HD
HETATM   31  H   UNL     1       5.201  29.905  57.361  1.00  0.00     0.136 HD
ENDBRANCH  26  29
ENDBRANCH  23  26
ENDBRANCH  19  20
ENDBRANCH  18  19
ENDBRANCH  15  18
ENDBRANCH  13  14
ENDBRANCH  12  13
ENDBRANCH   2  12
BRANCH   1  32
HETATM   32  C   UNL     1       3.778  28.593  49.982  1.00  0.00     0.051 A 
HETATM   33  C   UNL     1       4.693  29.124  49.054  1.00  0.00    -0.035 A 
HETATM   34  C   UNL     1       5.967  29.821  49.441  1.00  0.00     0.050 C 
HETATM   35  C   UNL     1       4.413  28.936  47.694  1.00  0.00     0.011 A 
HETATM   36  C   UNL     1       3.243  28.287  47.288  1.00  0.00     0.024 A 
HETATM   37  C   UNL     1       2.343  27.800  48.236  1.00  0.00     0.036 A 
HETATM   38  C   UNL     1       2.601  27.947  49.595  1.00  0.00     0.054 A 
HETATM   39 CL   UNL     1       0.897  27.029  47.726  1.00  0.00    -0.084 Cl
ENDBRANCH   1  32
BRANCH   6  40
HETATM   40  N   UNL     1       2.751  30.856  51.278  1.00  0.00    -0.384 N 
HETATM   41  H   UNL     1       2.681  30.777  50.269  1.00  0.00     0.157 HD
HETATM   42  H   UNL     1       2.026  31.416  51.708  1.00  0.00     0.157 HD
ENDBRANCH   6  40
TORSDOF 10
ENDMDL
MODEL 7
REMARK VINA RESULT:      -8.4      4.066     10.769
REMARK  10 active torsions:
REMARK  status: ('A' for Active; 'I' for Inactive)
REMARK    1  A    between atoms: C_3  and  N_4 
REMARK    2  A    between atoms: C_5  and  S_6 
REMARK    3  A    between atoms: S_6  and  C_7 
REMARK    4  A    between atoms: C_7  and  C_8 
REMARK       I    between atoms: C_8  and  N_9 
REMARK    5  A    between atoms: N_9  and  C_10 
REMARK    6  A    between atoms: C_10  and  C_11 
REMARK    7  A    between atoms: C_11  and  C_12 
REMARK    8  A    between atoms: C_15  and  S_16 
REMARK    9  A    between atoms: S_16  and  N_17 
REMARK   10  A    between atoms: C_26  and  N_27 
ROOT
HETATM    1  N   UNL     1       3.041  29.740  47.983  1.00  0.00    -0.275 N 
HETATM    2  C   UNL     1       3.571  28.484  47.939  1.00  0.00     0.177 A 
HETATM    3  N   UNL     1       2.942  27.394  47.446  1.00  0.00    -0.204 NA
HETATM    4  C   UNL     1       1.775  27.706  46.884  1.00  0.00     0.162 A 
HETATM    5  C   UNL     1       1.188  28.953  46.828  1.00  0.00     0.081 A 
HETATM    6  C   UNL     1       1.828  30.043  47.442  1.00  0.00     0.124 A 
HETATM    7  N   UNL     1       0.935  26.843  46.240  1.00  0.00    -0.260 N 
HETATM    8  H   UNL     1       1.056  25.846  46.095  1.00  0.00     0.191 HD
HETATM    9  N   UNL     1      -0.163  27.440  45.756  1.00  0.00    -0.177 NA
HETATM   10  C   UNL     1      -0.019  28.726  46.098  1.00  0.00     0.068 A 
HETATM   11  C   UNL     1      -1.065  29.703  45.697  1.00  0.00     0.073 C 
ENDROOT
BRANCH   2  12
HETATM   12  S   UNL     1       5.220  28.146  48.586  1.00  0.00    -0.082 SA
BRANCH  12  13
HETATM   13  C   UNL     1       4.795  27.480  50.228  1.00  0.00     0.185 C 
BRANCH  13  14
HETATM   14  C   UNL     1       5.608  28.109  51.356  1.00  0.00     0.227 C 
HETATM   15  N   UNL     1       5.989  27.282  52.385  1.00  0.00    -0.360 N 
HETATM   16  H   UNL     1       6.581  27.728  53.080  1.00  0.00     0.162 HD
HETATM   17  O   UNL     1       5.938  29.296  51.372  1.00  0.00    -0.273 OA
BRANCH  15  18
HETATM   18  C   UNL     1       5.901  25.830  52.365  1.00  0.00     0.127 C 
BRANCH  18  19
HETATM   19  C   UNL     1       7.212  25.134  52.001  1.00  0.00     0.058 C 
BRANCH  19  20
HETATM   20  C   UNL     1       7.573  24.137  53.078  1.00  0.00    -0.057 A 
HETATM   21  C   UNL     1       7.977  22.838  52.736  1.00  0.00     0.009 A 
HETATM   22  C   UNL     1       8.198  21.881  53.729  1.00  0.00     0.025 A 
HETATM   23  C   UNL     1       8.021  22.225  55.071  1.00  0.00     0.074 A 
HETATM   24  C   UNL     1       7.630  23.518  55.428  1.00  0.00     0.025 A 
HETATM   25  C   UNL     1       7.411  24.471  54.432  1.00  0.00     0.009 A 
BRANCH  23  26
HETATM   26  S   UNL     1       8.185  20.981  56.320  1.00  0.00     0.239 S 
HETATM   27  O   UNL     1       8.381  21.623  57.598  1.00  0.00    -0.206 OA
HETATM   28  O   UNL     1       7.170  19.975  56.108  1.00  0.00    -0.206 OA
BRANCH  26  29
HETATM   29  N   UNL     1       9.648  20.267  55.921  1.00  0.00    -0.225 NA
HETATM   30  H   UNL     1       9.602  19.880  54.977  1.00  0.00     0.136 HD
HETATM   31  H   UNL     1      10.409  20.936  56.048  1.00  0.00     0.136 HD
ENDBRANCH  26  29
ENDBRANCH  23  26
ENDBRANCH  19  20
ENDBRANCH  18  19
ENDBRANCH  15  18
ENDBRANCH  13  14
ENDBRANCH  12  13
ENDBRANCH   2  12
BRANCH   1  32
HETATM   32  C   UNL     1       3.787  30.800  48.607  1.00  0.00     0.051 A 
HETATM   33  C   UNL     1       3.519  31.157  49.942  1.00  0.00    -0.035 A 
HETATM   34  C   UNL     1       2.539  30.432  50.820  1.00  0.00     0.050 C 
HETATM   35  C   UNL     1       4.255  32.218  50.485  1.00  0.00     0.011 A 
HETATM   36  C   UNL     1       5.183  32.917  49.706  1.00  0.00     0.024 A 
HETATM   37  C   UNL     1       5.401  32.555  48.377  1.00  0.00     0.036 A 
HETATM   38  C   UNL     1       4.706  31.490  47.812  1.00  0.00     0.054 A 
HETATM   39 CL   UNL     1       6.523  33.438  47.423  1.00  0.00    -0.084 Cl
ENDBRANCH   1  32
BRANCH   6  40
HETATM   40  N   UNL     1       1.266  31.312  47.496  1.00  0.00    -0.384 N 
HETATM   41  H   UNL     1       0.575  31.513  48.210  1.00  0.00     0.157 HD
HETATM   42  H   UNL     1       1.732  32.128  47.120  1.00  0.00     0.157 HD
ENDBRANCH   6  40
TORSDOF 10
ENDMDL
MODEL 8
REMARK VINA RESULT:      -8.4      6.987     12.063
REMARK  10 active torsions:
REMARK  status: ('A' for Active; 'I' for Inactive)
REMARK    1  A    between atoms: C_3  and  N_4 
REMARK    2  A    between atoms: C_5  and  S_6 
REMARK    3  A    between atoms: S_6  and  C_7 
REMARK    4  A    between atoms: C_7  and  C_8 
REMARK       I    between atoms: C_8  and  N_9 
REMARK    5  A    between atoms: N_9  and  C_10 
REMARK    6  A    between atoms: C_10  and  C_11 
REMARK    7  A    between atoms: C_11  and  C_12 
REMARK    8  A    between atoms: C_15  and  S_16 
REMARK    9  A    between atoms: S_16  and  N_17 
REMARK   10  A    between atoms: C_26  and  N_27 
ROOT
HETATM    1  N   UNL     1       6.050  28.356  55.588  1.00  0.00    -0.275 N 
HETATM    2  C   UNL     1       6.991  28.967  56.363  1.00  0.00     0.177 A 
HETATM    3  N   UNL     1       6.941  30.255  56.771  1.00  0.00    -0.204 NA
HETATM    4  C   UNL     1       5.793  30.840  56.433  1.00  0.00     0.162 A 
HETATM    5  C   UNL     1       4.763  30.283  55.704  1.00  0.00     0.081 A 
HETATM    6  C   UNL     1       4.896  28.975  55.211  1.00  0.00     0.124 A 
HETATM    7  N   UNL     1       5.410  32.110  56.755  1.00  0.00    -0.260 N 
HETATM    8  H   UNL     1       5.927  32.802  57.287  1.00  0.00     0.191 HD
HETATM    9  N   UNL     1       4.191  32.425  56.295  1.00  0.00    -0.177 NA
HETATM   10  C   UNL     1       3.781  31.320  55.660  1.00  0.00     0.068 A 
HETATM   11  C   UNL     1       2.434  31.305  55.031  1.00  0.00     0.073 C 
ENDROOT
BRANCH   2  12
HETATM   12  S   UNL     1       8.462  28.081  56.916  1.00  0.00    -0.082 SA
BRANCH  12  13
HETATM   13  C   UNL     1       8.977  29.143  58.304  1.00  0.00     0.185 C 
BRANCH  13  14
HETATM   14  C   UNL     1       9.815  30.339  57.861  1.00  0.00     0.227 C 
HETATM   15  N   UNL     1       9.673  31.500  58.583  1.00  0.00    -0.360 N 
HETATM   16  H   UNL     1      10.296  32.249  58.292  1.00  0.00     0.162 HD
HETATM   17  O   UNL     1      10.602  30.301  56.915  1.00  0.00    -0.273 OA
BRANCH  15  18
HETATM   18  C   UNL     1       8.994  31.608  59.865  1.00  0.00     0.127 C 
BRANCH  18  19
HETATM   19  C   UNL     1       7.547  32.092  59.762  1.00  0.00     0.058 C 
BRANCH  19  20
HETATM   20  C   UNL     1       7.123  32.702  61.078  1.00  0.00    -0.057 A 
HETATM   21  C   UNL     1       7.931  32.565  62.216  1.00  0.00     0.009 A 
HETATM   22  C   UNL     1       7.488  33.026  63.458  1.00  0.00     0.025 A 
HETATM   23  C   UNL     1       6.234  33.634  63.561  1.00  0.00     0.074 A 
HETATM   24  C   UNL     1       5.423  33.787  62.435  1.00  0.00     0.025 A 
HETATM   25  C   UNL     1       5.870  33.326  61.196  1.00  0.00     0.009 A 
BRANCH  23  26
HETATM   26  S   UNL     1       5.623  34.109  65.154  1.00  0.00     0.239 S 
HETATM   27  O   UNL     1       5.426  35.540  65.172  1.00  0.00    -0.206 OA
HETATM   28  O   UNL     1       4.590  33.181  65.550  1.00  0.00    -0.206 OA
BRANCH  26  29
HETATM   29  N   UNL     1       6.940  33.802  66.146  1.00  0.00    -0.225 NA
HETATM   30  H   UNL     1       7.368  34.682  66.439  1.00  0.00     0.136 HD
HETATM   31  H   UNL     1       6.658  33.208  66.927  1.00  0.00     0.136 HD
ENDBRANCH  26  29
ENDBRANCH  23  26
ENDBRANCH  19  20
ENDBRANCH  18  19
ENDBRANCH  15  18
ENDBRANCH  13  14
ENDBRANCH  12  13
ENDBRANCH   2  12
BRANCH   1  32
HETATM   32  C   UNL     1       6.263  27.000  55.157  1.00  0.00     0.051 A 
HETATM   33  C   UNL     1       5.803  25.931  55.949  1.00  0.00    -0.035 A 
HETATM   34  C   UNL     1       5.003  26.108  57.209  1.00  0.00     0.050 C 
HETATM   35  C   UNL     1       6.067  24.632  55.494  1.00  0.00     0.011 A 
HETATM   36  C   UNL     1       6.801  24.420  54.323  1.00  0.00     0.024 A 
HETATM   37  C   UNL     1       7.268  25.504  53.580  1.00  0.00     0.036 A 
HETATM   38  C   UNL     1       7.003  26.807  53.987  1.00  0.00     0.054 A 
HETATM   39 CL   UNL     1       8.192  25.231  52.158  1.00  0.00    -0.084 Cl
ENDBRANCH   1  32
BRANCH   6  40
HETATM   40  N   UNL     1       3.938  28.372  54.406  1.00  0.00    -0.384 N 
HETATM   41  H   UNL     1       4.186  27.533  53.892  1.00  0.00     0.157 HD
HETATM   42  H   UNL     1       2.945  28.492  54.560  1.00  0.00     0.157 HD
ENDBRANCH   6  40
TORSDOF 10
ENDMDL
MODEL 9
REMARK VINA RESULT:      -8.4      4.381     10.958
REMARK  10 active torsions:
REMARK  status: ('A' for Active; 'I' for Inactive)
REMARK    1  A    between atoms: C_3  and  N_4 
REMARK    2  A    between atoms: C_5  and  S_6 
REMARK    3  A    between atoms: S_6  and  C_7 
REMARK    4  A    between atoms: C_7  and  C_8 
REMARK       I    between atoms: C_8  and  N_9 
REMARK    5  A    between atoms: N_9  and  C_10 
REMARK    6  A    between atoms: C_10  and  C_11 
REMARK    7  A    between atoms: C_11  and  C_12 
REMARK    8  A    between atoms: C_15  and  S_16 
REMARK    9  A    between atoms: S_16  and  N_17 
REMARK   10  A    between atoms: C_26  and  N_27 
ROOT
HETATM    1  N   UNL     1       3.912  30.300  48.400  1.00  0.00    -0.275 N 
HETATM    2  C   UNL     1       4.124  30.551  49.724  1.00  0.00     0.177 A 
HETATM    3  N   UNL     1       4.978  31.480  50.210  1.00  0.00    -0.204 NA
HETATM    4  C   UNL     1       5.509  32.223  49.239  1.00  0.00     0.162 A 
HETATM    5  C   UNL     1       5.307  32.082  47.882  1.00  0.00     0.081 A 
HETATM    6  C   UNL     1       4.491  31.039  47.412  1.00  0.00     0.124 A 
HETATM    7  N   UNL     1       6.353  33.283  49.407  1.00  0.00    -0.260 N 
HETATM    8  H   UNL     1       6.711  33.665  50.276  1.00  0.00     0.191 HD
HETATM    9  N   UNL     1       6.715  33.856  48.251  1.00  0.00    -0.177 NA
HETATM   10  C   UNL     1       6.078  33.141  47.314  1.00  0.00     0.068 A 
HETATM   11  C   UNL     1       6.238  33.517  45.885  1.00  0.00     0.073 C 
ENDROOT
BRANCH   2  12
HETATM   12  S   UNL     1       3.266  29.608  51.000  1.00  0.00    -0.082 SA
BRANCH  12  13
HETATM   13  C   UNL     1       4.569  28.419  51.456  1.00  0.00     0.185 C 
BRANCH  13  14
HETATM   14  C   UNL     1       4.213  27.587  52.685  1.00  0.00     0.227 C 
HETATM   15  N   UNL     1       4.718  26.310  52.740  1.00  0.00    -0.360 N 
HETATM   16  H   UNL     1       4.509  25.817  53.603  1.00  0.00     0.162 HD
HETATM   17  O   UNL     1       3.519  28.009  53.611  1.00  0.00    -0.273 OA
BRANCH  15  18
HETATM   18  C   UNL     1       5.752  25.783  51.863  1.00  0.00     0.127 C 
BRANCH  18  19
HETATM   19  C   UNL     1       7.145  25.751  52.494  1.00  0.00     0.058 C 
BRANCH  19  20
HETATM   20  C   UNL     1       7.338  24.444  53.229  1.00  0.00    -0.057 A 
HETATM   21  C   UNL     1       7.199  24.388  54.623  1.00  0.00     0.009 A 
HETATM   22  C   UNL     1       7.490  23.211  55.316  1.00  0.00     0.025 A 
HETATM   23  C   UNL     1       7.916  22.082  54.612  1.00  0.00     0.074 A 
HETATM   24  C   UNL     1       8.048  22.120  53.222  1.00  0.00     0.025 A 
HETATM   25  C   UNL     1       7.754  23.298  52.533  1.00  0.00     0.009 A 
BRANCH  23  26
HETATM   26  S   UNL     1       8.399  20.629  55.501  1.00  0.00     0.239 S 
HETATM   27  O   UNL     1       9.625  20.902  56.214  1.00  0.00    -0.206 OA
HETATM   28  O   UNL     1       7.234  20.074  56.150  1.00  0.00    -0.206 OA
BRANCH  26  29
HETATM   29  N   UNL     1       8.800  19.572  54.263  1.00  0.00    -0.225 NA
HETATM   30  H   UNL     1       8.150  18.784  54.253  1.00  0.00     0.136 HD
HETATM   31  H   UNL     1       8.841  20.074  53.375  1.00  0.00     0.136 HD
ENDBRANCH  26  29
ENDBRANCH  23  26
ENDBRANCH  19  20
ENDBRANCH  18  19
ENDBRANCH  15  18
ENDBRANCH  13  14
ENDBRANCH  12  13
ENDBRANCH   2  12
BRANCH   1  32
HETATM   32  C   UNL     1       3.033  29.228  48.017  1.00  0.00     0.051 A 
HETATM   33  C   UNL     1       1.659  29.476  47.838  1.00  0.00    -0.035 A 
HETATM   34  C   UNL     1       1.036  30.839  47.937  1.00  0.00     0.050 C 
HETATM   35  C   UNL     1       0.847  28.386  47.496  1.00  0.00     0.011 A 
HETATM   36  C   UNL     1       1.386  27.100  47.385  1.00  0.00     0.024 A 
HETATM   37  C   UNL     1       2.747  26.887  47.599  1.00  0.00     0.036 A 
HETATM   38  C   UNL     1       3.587  27.949  47.916  1.00  0.00     0.054 A 
HETATM   39 CL   UNL     1       3.392  25.300  47.488  1.00  0.00    -0.084 Cl
ENDBRANCH   1  32
BRANCH   6  40
HETATM   40  N   UNL     1       4.300  30.784  46.060  1.00  0.00    -0.384 N 
HETATM   41  H   UNL     1       3.761  31.442  45.507  1.00  0.00     0.157 HD
HETATM   42  H   UNL     1       4.929  30.200  45.524  1.00  0.00     0.157 HD
ENDBRANCH   6  40
TORSDOF 10
ENDMDL
MODEL 10
REMARK VINA RESULT:      -8.3      5.221     10.936
REMARK  10 active torsions:
REMARK  status: ('A' for Active; 'I' for Inactive)
REMARK    1  A    between atoms: C_3  and  N_4 
REMARK    2  A    between atoms: C_5  and  S_6 
REMARK    3  A    between atoms: S_6  and  C_7 
REMARK    4  A    between atoms: C_7  and  C_8 
REMARK       I    between atoms: C_8  and  N_9 
REMARK    5  A    between atoms: N_9  and  C_10 
REMARK    6  A    between atoms: C_10  and  C_11 
REMARK    7  A    between atoms: C_11  and  C_12 
REMARK    8  A    between atoms: C_15  and  S_16 
REMARK    9  A    between atoms: S_16  and  N_17 
REMARK   10  A    between atoms: C_26  and  N_27 
ROOT
HETATM    1  N   UNL     1       6.544  26.345  53.490  1.00  0.00    -0.275 N 
HETATM    2  C   UNL     1       7.017  27.545  53.934  1.00  0.00     0.177 A 
HETATM    3  N   UNL     1       6.857  28.725  53.295  1.00  0.00    -0.204 NA
HETATM    4  C   UNL     1       6.067  28.610  52.228  1.00  0.00     0.162 A 
HETATM    5  C   UNL     1       5.497  27.453  51.739  1.00  0.00     0.081 A 
HETATM    6  C   UNL     1       5.770  26.230  52.374  1.00  0.00     0.124 A 
HETATM    7  N   UNL     1       5.659  29.628  51.414  1.00  0.00    -0.260 N 
HETATM    8  H   UNL     1       5.891  30.613  51.483  1.00  0.00     0.191 HD
HETATM    9  N   UNL     1       4.852  29.220  50.425  1.00  0.00    -0.177 NA
HETATM   10  C   UNL     1       4.736  27.899  50.616  1.00  0.00     0.068 A 
HETATM   11  C   UNL     1       3.878  27.108  49.695  1.00  0.00     0.073 C 
ENDROOT
BRANCH   2  12
HETATM   12  S   UNL     1       7.960  27.665  55.467  1.00  0.00    -0.082 SA
BRANCH  12  13
HETATM   13  C   UNL     1       7.450  29.320  56.033  1.00  0.00     0.185 C 
BRANCH  13  14
HETATM   14  C   UNL     1       6.692  29.290  57.356  1.00  0.00     0.227 C 
HETATM   15  N   UNL     1       7.435  29.435  58.504  1.00  0.00    -0.360 N 
HETATM   16  H   UNL     1       6.881  29.473  59.355  1.00  0.00     0.162 HD
HETATM   17  O   UNL     1       5.469  29.157  57.434  1.00  0.00    -0.273 OA
BRANCH  15  18
HETATM   18  C   UNL     1       8.825  29.861  58.549  1.00  0.00     0.127 C 
BRANCH  18  19
HETATM   19  C   UNL     1       9.007  31.377  58.632  1.00  0.00     0.058 C 
BRANCH  19  20
HETATM   20  C   UNL     1       8.384  31.893  59.909  1.00  0.00    -0.057 A 
HETATM   21  C   UNL     1       9.033  31.710  61.139  1.00  0.00     0.009 A 
HETATM   22  C   UNL     1       8.407  32.080  62.331  1.00  0.00     0.025 A 
HETATM   23  C   UNL     1       7.129  32.643  62.294  1.00  0.00     0.074 A 
HETATM   24  C   UNL     1       6.475  32.841  61.077  1.00  0.00     0.025 A 
HETATM   25  C   UNL     1       7.104  32.471  59.887  1.00  0.00     0.009 A 
BRANCH  23  26
HETATM   26  S   UNL     1       6.289  33.001  63.812  1.00  0.00     0.239 S 
HETATM   27  O   UNL     1       5.145  32.128  63.931  1.00  0.00    -0.206 OA
HETATM   28  O   UNL     1       7.270  33.138  64.863  1.00  0.00    -0.206 OA
BRANCH  26  29
HETATM   29  N   UNL     1       5.682  34.537  63.527  1.00  0.00    -0.225 NA
HETATM   30  H   UNL     1       6.322  35.059  62.927  1.00  0.00     0.136 HD
HETATM   31  H   UNL     1       4.734  34.474  63.152  1.00  0.00     0.136 HD
ENDBRANCH  26  29
ENDBRANCH  23  26
ENDBRANCH  19  20
ENDBRANCH  18  19
ENDBRANCH  15  18
ENDBRANCH  13  14
ENDBRANCH  12  13
ENDBRANCH   2  12
BRANCH   1  32
HETATM   32  C   UNL     1       6.851  25.149  54.227  1.00  0.00     0.051 A 
HETATM   33  C   UNL     1       6.232  24.909  55.468  1.00  0.00    -0.035 A 
HETATM   34  C   UNL     1       5.174  25.797  56.059  1.00  0.00     0.050 C 
HETATM   35  C   UNL     1       6.595  23.742  56.155  1.00  0.00     0.011 A 
HETATM   36  C   UNL     1       7.570  22.883  55.638  1.00  0.00     0.024 A 
HETATM   37  C   UNL     1       8.185  23.168  54.419  1.00  0.00     0.036 A 
HETATM   38  C   UNL     1       7.831  24.304  53.698  1.00  0.00     0.054 A 
HETATM   39 CL   UNL     1       9.400  22.120  53.808  1.00  0.00    -0.084 Cl
ENDBRANCH   1  32
BRANCH   6  40
HETATM   40  N   UNL     1       5.298  25.013  51.899  1.00  0.00    -0.384 N 
HETATM   41  H   UNL     1       5.313  24.836  50.900  1.00  0.00     0.157 HD
HETATM   42  H   UNL     1       5.269  24.180  52.473  1.00  0.00     0.157 HD
ENDBRANCH   6  40
TORSDOF 10
ENDMDL
