MODEL 1
REMARK VINA RESULT:      -9.0      0.000      0.000
REMARK  4 active torsions:
REMARK  status: ('A' for Active; 'I' for Inactive)
REMARK    1  A    between atoms: C_5  and  C_6 
REMARK    2  A    between atoms: C_6  and  N_7 
REMARK    3  A    between atoms: C_6  and  C_18 
REMARK    4  A    between atoms: N_7  and  C_8 
ROOT
HETATM    1  C   UNL     1       6.736  24.747  54.582  1.00  0.00     0.288 C 
ENDROOT
BRANCH   1   2
HETATM    2  C   UNL     1       6.174  25.410  53.333  1.00  0.00    -0.003 A 
HETATM    3  C   UNL     1       6.566  26.710  53.011  1.00  0.00     0.126 A 
HETATM    4  N   UNL     1       6.112  27.406  51.945  1.00  0.00    -0.272 NA
HETATM    5  C   UNL     1       5.232  26.783  51.137  1.00  0.00     0.116 A 
HETATM    6  C   UNL     1       4.771  25.498  51.357  1.00  0.00     0.020 A 
HETATM    7  C   UNL     1       5.245  24.808  52.473  1.00  0.00     0.012 A 
ENDBRANCH   1   2
BRANCH   1   8
HETATM    8  N   UNL     1       5.885  24.982  55.778  1.00  0.00     0.101 NA
HETATM    9  H   UNL     1       5.860  24.094  56.285  1.00  0.00     0.317 HD
BRANCH   8  10
HETATM   10  C   UNL     1       6.224  26.065  56.709  1.00  0.00     0.225 C 
HETATM   11  C   UNL     1       7.652  26.622  56.526  1.00  0.00     0.069 C 
HETATM   12  C   UNL     1       7.861  27.839  57.406  1.00  0.00     0.190 C 
HETATM   13  N   UNL     1       6.845  28.881  57.031  1.00  0.00    -0.067 N 
HETATM   14  C   UNL     1       9.155  28.607  57.221  1.00  0.00     0.035 C 
HETATM   15  H   UNL     1       6.911  29.034  56.013  1.00  0.00     0.280 HD
HETATM   16  C   UNL     1       5.451  28.437  57.322  1.00  0.00     0.237 C 
HETATM   17  C   UNL     1       7.317  30.158  57.675  1.00  0.00     0.235 C 
HETATM   18  C   UNL     1       5.174  27.185  56.492  1.00  0.00     0.063 C 
HETATM   19  C   UNL     1       8.828  29.973  57.820  1.00  0.00     0.030 C 
ENDBRANCH   8  10
ENDBRANCH   1   8
BRANCH   1  20
HETATM   20  C   UNL     1       7.285  23.320  54.475  1.00  0.00    -0.021 A 
HETATM   21  C   UNL     1       7.759  22.762  53.273  1.00  0.00     0.012 A 
HETATM   22  C   UNL     1       8.276  21.462  53.237  1.00  0.00     0.043 A 
HETATM   23  C   UNL     1       8.356  20.719  54.406  1.00  0.00     0.116 A 
HETATM   24  F   UNL     1       8.846  19.474  54.367  1.00  0.00    -0.206 F 
HETATM   25  C   UNL     1       7.947  21.256  55.617  1.00  0.00     0.043 A 
HETATM   26  C   UNL     1       7.428  22.551  55.652  1.00  0.00     0.012 A 
ENDBRANCH   1  20
TORSDOF 4
ENDMDL
MODEL 2
REMARK VINA RESULT:      -8.7      2.304      4.660
REMARK  4 active torsions:
REMARK  status: ('A' for Active; 'I' for Inactive)
REMARK    1  A    between atoms: C_5  and  C_6 
REMARK    2  A    between atoms: C_6  and  N_7 
REMARK    3  A    between atoms: C_6  and  C_18 
REMARK    4  A    between atoms: N_7  and  C_8 
ROOT
HETATM    1  C   UNL     1       6.991  23.811  55.422  1.00  0.00     0.288 C 
ENDROOT
BRANCH   1   2
HETATM    2  C   UNL     1       7.628  22.429  55.415  1.00  0.00    -0.003 A 
HETATM    3  C   UNL     1       8.257  21.958  56.568  1.00  0.00     0.126 A 
HETATM    4  N   UNL     1       8.879  20.762  56.668  1.00  0.00    -0.272 NA
HETATM    5  C   UNL     1       8.870  19.973  55.576  1.00  0.00     0.116 A 
HETATM    6  C   UNL     1       8.279  20.336  54.379  1.00  0.00     0.020 A 
HETATM    7  C   UNL     1       7.658  21.582  54.299  1.00  0.00     0.012 A 
ENDBRANCH   1   2
BRANCH   1   8
HETATM    8  N   UNL     1       7.603  24.711  56.435  1.00  0.00     0.101 NA
HETATM    9  H   UNL     1       8.596  24.467  56.466  1.00  0.00     0.317 HD
BRANCH   8  10
HETATM   10  C   UNL     1       7.462  26.165  56.294  1.00  0.00     0.225 C 
HETATM   11  C   UNL     1       6.083  26.704  56.728  1.00  0.00     0.069 C 
HETATM   12  C   UNL     1       6.078  28.220  56.710  1.00  0.00     0.190 C 
HETATM   13  N   UNL     1       7.146  28.713  57.644  1.00  0.00    -0.067 N 
HETATM   14  C   UNL     1       4.851  28.911  57.270  1.00  0.00     0.035 C 
HETATM   15  H   UNL     1       6.994  28.266  58.561  1.00  0.00     0.280 HD
HETATM   16  C   UNL     1       8.514  28.332  57.187  1.00  0.00     0.237 C 
HETATM   17  C   UNL     1       6.864  30.180  57.846  1.00  0.00     0.235 C 
HETATM   18  C   UNL     1       8.587  26.807  57.147  1.00  0.00     0.063 C 
HETATM   19  C   UNL     1       5.364  30.316  57.581  1.00  0.00     0.030 C 
ENDBRANCH   8  10
ENDBRANCH   1   8
BRANCH   1  20
HETATM   20  C   UNL     1       6.692  24.490  54.081  1.00  0.00    -0.021 A 
HETATM   21  C   UNL     1       7.684  24.802  53.133  1.00  0.00     0.012 A 
HETATM   22  C   UNL     1       7.352  25.399  51.912  1.00  0.00     0.043 A 
HETATM   23  C   UNL     1       6.023  25.659  51.611  1.00  0.00     0.116 A 
HETATM   24  F   UNL     1       5.709  26.235  50.444  1.00  0.00    -0.206 F 
HETATM   25  C   UNL     1       5.014  25.317  52.499  1.00  0.00     0.043 A 
HETATM   26  C   UNL     1       5.346  24.726  53.718  1.00  0.00     0.012 A 
ENDBRANCH   1  20
TORSDOF 4
ENDMDL
MODEL 3
REMARK VINA RESULT:      -8.6      1.612      5.122
REMARK  4 active torsions:
REMARK  status: ('A' for Active; 'I' for Inactive)
REMARK    1  A    between atoms: C_5  and  C_6 
REMARK    2  A    between atoms: C_6  and  N_7 
REMARK    3  A    between atoms: C_6  and  C_18 
REMARK    4  A    between atoms: N_7  and  C_8 
ROOT
HETATM    1  C   UNL     1       6.228  25.271  55.382  1.00  0.00     0.288 C 
ENDROOT
BRANCH   1   2
HETATM    2  C   UNL     1       7.024  26.439  55.945  1.00  0.00    -0.003 A 
HETATM    3  C   UNL     1       7.247  26.517  57.321  1.00  0.00     0.126 A 
HETATM    4  N   UNL     1       7.913  27.521  57.934  1.00  0.00    -0.272 NA
HETATM    5  C   UNL     1       8.405  28.499  57.149  1.00  0.00     0.116 A 
HETATM    6  C   UNL     1       8.244  28.527  55.775  1.00  0.00     0.020 A 
HETATM    7  C   UNL     1       7.540  27.487  55.171  1.00  0.00     0.012 A 
ENDBRANCH   1   2
BRANCH   1   8
HETATM    8  N   UNL     1       5.028  25.716  54.625  1.00  0.00     0.101 NA
HETATM    9  H   UNL     1       4.421  26.179  55.306  1.00  0.00     0.317 HD
BRANCH   8  10
HETATM   10  C   UNL     1       5.191  26.581  53.450  1.00  0.00     0.225 C 
HETATM   11  C   UNL     1       4.974  25.855  52.105  1.00  0.00     0.069 C 
HETATM   12  C   UNL     1       4.995  26.847  50.960  1.00  0.00     0.190 C 
HETATM   13  N   UNL     1       3.908  27.860  51.184  1.00  0.00    -0.067 N 
HETATM   14  C   UNL     1       4.630  26.320  49.587  1.00  0.00     0.035 C 
HETATM   15  H   UNL     1       3.024  27.347  51.330  1.00  0.00     0.280 HD
HETATM   16  C   UNL     1       4.148  28.683  52.405  1.00  0.00     0.237 C 
HETATM   17  C   UNL     1       3.753  28.587  49.874  1.00  0.00     0.235 C 
HETATM   18  C   UNL     1       4.176  27.742  53.607  1.00  0.00     0.063 C 
HETATM   19  C   UNL     1       4.246  27.588  48.826  1.00  0.00     0.030 C 
ENDBRANCH   8  10
ENDBRANCH   1   8
BRANCH   1  20
HETATM   20  C   UNL     1       6.987  24.111  54.727  1.00  0.00    -0.021 A 
HETATM   21  C   UNL     1       7.534  24.178  53.433  1.00  0.00     0.012 A 
HETATM   22  C   UNL     1       8.241  23.098  52.893  1.00  0.00     0.043 A 
HETATM   23  C   UNL     1       8.437  21.954  53.653  1.00  0.00     0.116 A 
HETATM   24  F   UNL     1       9.109  20.920  53.131  1.00  0.00    -0.206 F 
HETATM   25  C   UNL     1       7.956  21.873  54.950  1.00  0.00     0.043 A 
HETATM   26  C   UNL     1       7.248  22.948  55.487  1.00  0.00     0.012 A 
ENDBRANCH   1  20
TORSDOF 4
ENDMDL
MODEL 4
REMARK VINA RESULT:      -8.6      1.212      2.001
REMARK  4 active torsions:
REMARK  status: ('A' for Active; 'I' for Inactive)
REMARK    1  A    between atoms: C_5  and  C_6 
REMARK    2  A    between atoms: C_6  and  N_7 
REMARK    3  A    between atoms: C_6  and  C_18 
REMARK    4  A    between atoms: N_7  and  C_8 
ROOT
HETATM    1  C   UNL     1       7.498  24.602  54.933  1.00  0.00     0.288 C 
ENDROOT
BRANCH   1   2
HETATM    2  C   UNL     1       6.723  25.009  53.688  1.00  0.00    -0.003 A 
HETATM    3  C   UNL     1       5.329  24.947  53.697  1.00  0.00     0.126 A 
HETATM    4  N   UNL     1       4.542  25.255  52.643  1.00  0.00    -0.272 NA
HETATM    5  C   UNL     1       5.157  25.665  51.517  1.00  0.00     0.116 A 
HETATM    6  C   UNL     1       6.531  25.764  51.393  1.00  0.00     0.020 A 
HETATM    7  C   UNL     1       7.321  25.425  52.491  1.00  0.00     0.012 A 
ENDBRANCH   1   2
BRANCH   1   8
HETATM    8  N   UNL     1       7.055  25.344  56.143  1.00  0.00     0.101 NA
HETATM    9  H   UNL     1       7.551  24.920  56.931  1.00  0.00     0.317 HD
BRANCH   8  10
HETATM   10  C   UNL     1       7.211  26.803  56.197  1.00  0.00     0.225 C 
HETATM   11  C   UNL     1       5.944  27.550  56.664  1.00  0.00     0.069 C 
HETATM   12  C   UNL     1       6.238  29.025  56.851  1.00  0.00     0.190 C 
HETATM   13  N   UNL     1       7.331  29.168  57.873  1.00  0.00    -0.067 N 
HETATM   14  C   UNL     1       5.144  29.872  57.468  1.00  0.00     0.035 C 
HETATM   15  H   UNL     1       7.045  28.647  58.716  1.00  0.00     0.280 HD
HETATM   16  C   UNL     1       8.619  28.579  57.405  1.00  0.00     0.237 C 
HETATM   17  C   UNL     1       7.333  30.623  58.264  1.00  0.00     0.235 C 
HETATM   18  C   UNL     1       8.393  27.089  57.160  1.00  0.00     0.063 C 
HETATM   19  C   UNL     1       5.905  31.093  57.980  1.00  0.00     0.030 C 
ENDBRANCH   8  10
ENDBRANCH   1   8
BRANCH   1  20
HETATM   20  C   UNL     1       7.769  23.113  55.177  1.00  0.00    -0.021 A 
HETATM   21  C   UNL     1       7.699  22.138  54.164  1.00  0.00     0.012 A 
HETATM   22  C   UNL     1       7.983  20.795  54.436  1.00  0.00     0.043 A 
HETATM   23  C   UNL     1       8.373  20.418  55.712  1.00  0.00     0.116 A 
HETATM   24  F   UNL     1       8.639  19.132  55.970  1.00  0.00    -0.206 F 
HETATM   25  C   UNL     1       8.504  21.359  56.721  1.00  0.00     0.043 A 
HETATM   26  C   UNL     1       8.217  22.697  56.452  1.00  0.00     0.012 A 
ENDBRANCH   1  20
TORSDOF 4
ENDMDL
MODEL 5
REMARK VINA RESULT:      -8.4      0.795      1.885
REMARK  4 active torsions:
REMARK  status: ('A' for Active; 'I' for Inactive)
REMARK    1  A    between atoms: C_5  and  C_6 
REMARK    2  A    between atoms: C_6  and  N_7 
REMARK    3  A    between atoms: C_6  and  C_18 
REMARK    4  A    between atoms: N_7  and  C_8 
ROOT
HETATM    1  C   UNL     1       7.297  24.906  54.374  1.00  0.00     0.288 C 
ENDROOT
BRANCH   1   2
HETATM    2  C   UNL     1       6.465  25.320  53.170  1.00  0.00    -0.003 A 
HETATM    3  C   UNL     1       6.774  26.502  52.497  1.00  0.00     0.126 A 
HETATM    4  N   UNL     1       6.088  26.982  51.436  1.00  0.00    -0.272 NA
HETATM    5  C   UNL     1       5.045  26.250  50.998  1.00  0.00     0.116 A 
HETATM    6  C   UNL     1       4.647  25.064  51.587  1.00  0.00     0.020 A 
HETATM    7  C   UNL     1       5.363  24.599  52.689  1.00  0.00     0.012 A 
ENDBRANCH   1   2
BRANCH   1   8
HETATM    8  N   UNL     1       6.816  25.527  55.636  1.00  0.00     0.101 NA
HETATM    9  H   UNL     1       7.190  24.952  56.394  1.00  0.00     0.317 HD
BRANCH   8  10
HETATM   10  C   UNL     1       7.108  26.940  55.907  1.00  0.00     0.225 C 
HETATM   11  C   UNL     1       5.885  27.750  56.390  1.00  0.00     0.069 C 
HETATM   12  C   UNL     1       6.306  29.146  56.804  1.00  0.00     0.190 C 
HETATM   13  N   UNL     1       7.322  29.033  57.904  1.00  0.00    -0.067 N 
HETATM   14  C   UNL     1       5.253  30.016  57.460  1.00  0.00     0.035 C 
HETATM   15  H   UNL     1       6.921  28.437  58.645  1.00  0.00     0.280 HD
HETATM   16  C   UNL     1       8.581  28.377  57.444  1.00  0.00     0.237 C 
HETATM   17  C   UNL     1       7.435  30.413  58.498  1.00  0.00     0.235 C 
HETATM   18  C   UNL     1       8.231  26.967  56.975  1.00  0.00     0.063 C 
HETATM   19  C   UNL     1       6.087  31.067  58.190  1.00  0.00     0.030 C 
ENDBRANCH   8  10
ENDBRANCH   1   8
BRANCH   1  20
HETATM   20  C   UNL     1       7.704  23.434  54.517  1.00  0.00    -0.021 A 
HETATM   21  C   UNL     1       7.466  22.675  55.678  1.00  0.00     0.012 A 
HETATM   22  C   UNL     1       7.836  21.327  55.745  1.00  0.00     0.043 A 
HETATM   23  C   UNL     1       8.414  20.715  54.643  1.00  0.00     0.116 A 
HETATM   24  F   UNL     1       8.771  19.427  54.712  1.00  0.00    -0.206 F 
HETATM   25  C   UNL     1       8.616  21.418  53.466  1.00  0.00     0.043 A 
HETATM   26  C   UNL     1       8.252  22.764  53.400  1.00  0.00     0.012 A 
ENDBRANCH   1  20
TORSDOF 4
ENDMDL
MODEL 6
REMARK VINA RESULT:      -8.3      1.356      1.804
REMARK  4 active torsions:
REMARK  status: ('A' for Active; 'I' for Inactive)
REMARK    1  A    between atoms: C_5  and  C_6 
REMARK    2  A    between atoms: C_6  and  N_7 
REMARK    3  A    between atoms: C_6  and  C_18 
REMARK    4  A    between atoms: N_7  and  C_8 
ROOT
HETATM    1  C   UNL     1       6.833  26.402  53.722  1.00  0.00     0.288 C 
ENDROOT
BRANCH   1   2
HETATM    2  C   UNL     1       6.095  26.855  52.470  1.00  0.00    -0.003 A 
HETATM    3  C   UNL     1       5.836  28.213  52.281  1.00  0.00     0.126 A 
HETATM    4  N   UNL     1       5.166  28.725  51.225  1.00  0.00    -0.272 NA
HETATM    5  C   UNL     1       4.738  27.855  50.290  1.00  0.00     0.116 A 
HETATM    6  C   UNL     1       4.937  26.489  50.373  1.00  0.00     0.020 A 
HETATM    7  C   UNL     1       5.618  25.986  51.480  1.00  0.00     0.012 A 
ENDBRANCH   1   2
BRANCH   1   8
HETATM    8  N   UNL     1       6.295  27.034  54.956  1.00  0.00     0.101 NA
HETATM    9  H   UNL     1       5.652  26.352  55.364  1.00  0.00     0.317 HD
BRANCH   8  10
HETATM   10  C   UNL     1       7.221  27.512  55.990  1.00  0.00     0.225 C 
HETATM   11  C   UNL     1       8.424  28.303  55.434  1.00  0.00     0.069 C 
HETATM   12  C   UNL     1       9.235  28.898  56.568  1.00  0.00     0.190 C 
HETATM   13  N   UNL     1       8.343  29.804  57.369  1.00  0.00    -0.067 N 
HETATM   14  C   UNL     1      10.355  29.845  56.190  1.00  0.00     0.035 C 
HETATM   15  H   UNL     1       7.906  30.474  56.718  1.00  0.00     0.280 HD
HETATM   16  C   UNL     1       7.240  29.057  58.041  1.00  0.00     0.237 C 
HETATM   17  C   UNL     1       9.265  30.615  58.242  1.00  0.00     0.235 C 
HETATM   18  C   UNL     1       6.392  28.396  56.957  1.00  0.00     0.063 C 
HETATM   19  C   UNL     1      10.592  30.626  57.481  1.00  0.00     0.030 C 
ENDBRANCH   8  10
ENDBRANCH   1   8
BRANCH   1  20
HETATM   20  C   UNL     1       7.175  24.916  53.878  1.00  0.00    -0.021 A 
HETATM   21  C   UNL     1       7.902  24.185  52.920  1.00  0.00     0.012 A 
HETATM   22  C   UNL     1       8.209  22.836  53.124  1.00  0.00     0.043 A 
HETATM   23  C   UNL     1       7.825  22.212  54.302  1.00  0.00     0.116 A 
HETATM   24  F   UNL     1       8.116  20.920  54.493  1.00  0.00    -0.206 F 
HETATM   25  C   UNL     1       7.153  22.915  55.291  1.00  0.00     0.043 A 
HETATM   26  C   UNL     1       6.843  24.259  55.085  1.00  0.00     0.012 A 
ENDBRANCH   1  20
TORSDOF 4
ENDMDL
MODEL 7
REMARK VINA RESULT:      -8.3      2.810      6.336
REMARK  4 active torsions:
REMARK  status: ('A' for Active; 'I' for Inactive)
REMARK    1  A    between atoms: C_5  and  C_6 
REMARK    2  A    between atoms: C_6  and  N_7 
REMARK    3  A    between atoms: C_6  and  C_18 
REMARK    4  A    between atoms: N_7  and  C_8 
ROOT
HETATM    1  C   UNL     1       6.485  25.926  54.399  1.00  0.00     0.288 C 
ENDROOT
BRANCH   1   2
HETATM    2  C   UNL     1       7.080  24.526  54.367  1.00  0.00    -0.003 A 
HETATM    3  C   UNL     1       6.949  23.700  55.484  1.00  0.00     0.126 A 
HETATM    4  N   UNL     1       7.460  22.453  55.579  1.00  0.00    -0.272 NA
HETATM    5  C   UNL     1       8.126  21.980  54.507  1.00  0.00     0.116 A 
HETATM    6  C   UNL     1       8.319  22.709  53.348  1.00  0.00     0.020 A 
HETATM    7  C   UNL     1       7.794  23.999  53.282  1.00  0.00     0.012 A 
ENDBRANCH   1   2
BRANCH   1   8
HETATM    8  N   UNL     1       5.053  25.942  53.998  1.00  0.00     0.101 NA
HETATM    9  H   UNL     1       4.548  26.373  54.776  1.00  0.00     0.317 HD
BRANCH   8  10
HETATM   10  C   UNL     1       4.658  26.591  52.742  1.00  0.00     0.225 C 
HETATM   11  C   UNL     1       5.244  28.007  52.559  1.00  0.00     0.069 C 
HETATM   12  C   UNL     1       4.927  28.535  51.173  1.00  0.00     0.190 C 
HETATM   13  N   UNL     1       5.513  27.596  50.158  1.00  0.00    -0.067 N 
HETATM   14  C   UNL     1       5.574  29.846  50.772  1.00  0.00     0.035 C 
HETATM   15  H   UNL     1       6.512  27.470  50.383  1.00  0.00     0.280 HD
HETATM   16  C   UNL     1       4.877  26.247  50.206  1.00  0.00     0.237 C 
HETATM   17  C   UNL     1       5.473  28.337  48.847  1.00  0.00     0.235 C 
HETATM   18  C   UNL     1       5.125  25.660  51.593  1.00  0.00     0.063 C 
HETATM   19  C   UNL     1       5.491  29.813  49.247  1.00  0.00     0.030 C 
ENDBRANCH   8  10
ENDBRANCH   1   8
BRANCH   1  20
HETATM   20  C   UNL     1       6.813  26.839  55.586  1.00  0.00    -0.021 A 
HETATM   21  C   UNL     1       8.127  27.134  55.994  1.00  0.00     0.012 A 
HETATM   22  C   UNL     1       8.371  27.995  57.070  1.00  0.00     0.043 A 
HETATM   23  C   UNL     1       7.307  28.597  57.726  1.00  0.00     0.116 A 
HETATM   24  F   UNL     1       7.544  29.416  58.758  1.00  0.00    -0.206 F 
HETATM   25  C   UNL     1       6.002  28.370  57.318  1.00  0.00     0.043 A 
HETATM   26  C   UNL     1       5.758  27.508  56.248  1.00  0.00     0.012 A 
ENDBRANCH   1  20
TORSDOF 4
ENDMDL
MODEL 8
REMARK VINA RESULT:      -8.3      3.007      6.426
REMARK  4 active torsions:
REMARK  status: ('A' for Active; 'I' for Inactive)
REMARK    1  A    between atoms: C_5  and  C_6 
REMARK    2  A    between atoms: C_6  and  N_7 
REMARK    3  A    between atoms: C_6  and  C_18 
REMARK    4  A    between atoms: N_7  and  C_8 
ROOT
HETATM    1  C   UNL     1       6.575  27.019  55.012  1.00  0.00     0.288 C 
ENDROOT
BRANCH   1   2
HETATM    2  C   UNL     1       5.477  27.696  54.204  1.00  0.00    -0.003 A 
HETATM    3  C   UNL     1       5.176  27.223  52.927  1.00  0.00     0.126 A 
HETATM    4  N   UNL     1       4.244  27.762  52.110  1.00  0.00    -0.272 NA
HETATM    5  C   UNL     1       3.554  28.819  52.581  1.00  0.00     0.116 A 
HETATM    6  C   UNL     1       3.768  29.373  53.829  1.00  0.00     0.020 A 
HETATM    7  C   UNL     1       4.746  28.807  54.646  1.00  0.00     0.012 A 
ENDBRANCH   1   2
BRANCH   1   8
HETATM    8  N   UNL     1       7.309  25.995  54.223  1.00  0.00     0.101 NA
HETATM    9  H   UNL     1       8.285  26.302  54.203  1.00  0.00     0.317 HD
BRANCH   8  10
HETATM   10  C   UNL     1       7.249  24.586  54.629  1.00  0.00     0.225 C 
HETATM   11  C   UNL     1       7.645  23.597  53.512  1.00  0.00     0.069 C 
HETATM   12  C   UNL     1       7.718  22.184  54.058  1.00  0.00     0.190 C 
HETATM   13  N   UNL     1       8.733  22.151  55.165  1.00  0.00    -0.067 N 
HETATM   14  C   UNL     1       8.257  21.115  53.129  1.00  0.00     0.035 C 
HETATM   15  H   UNL     1       9.613  22.547  54.798  1.00  0.00     0.280 HD
HETATM   16  C   UNL     1       8.323  22.989  56.329  1.00  0.00     0.237 C 
HETATM   17  C   UNL     1       9.008  20.692  55.420  1.00  0.00     0.235 C 
HETATM   18  C   UNL     1       8.195  24.432  55.848  1.00  0.00     0.063 C 
HETATM   19  C   UNL     1       8.677  20.007  54.093  1.00  0.00     0.030 C 
ENDBRANCH   8  10
ENDBRANCH   1   8
BRANCH   1  20
HETATM   20  C   UNL     1       7.473  27.885  55.904  1.00  0.00    -0.021 A 
HETATM   21  C   UNL     1       8.487  28.721  55.401  1.00  0.00     0.012 A 
HETATM   22  C   UNL     1       9.261  29.511  56.259  1.00  0.00     0.043 A 
HETATM   23  C   UNL     1       9.006  29.501  57.622  1.00  0.00     0.116 A 
HETATM   24  F   UNL     1       9.751  30.254  58.440  1.00  0.00    -0.206 F 
HETATM   25  C   UNL     1       7.980  28.730  58.147  1.00  0.00     0.043 A 
HETATM   26  C   UNL     1       7.212  27.939  57.292  1.00  0.00     0.012 A 
ENDBRANCH   1  20
TORSDOF 4
ENDMDL
MODEL 9
REMARK VINA RESULT:      -8.1      2.955      6.389
REMARK  4 active torsions:
REMARK  status: ('A' for Active; 'I' for Inactive)
REMARK    1  A    between atoms: C_5  and  C_6 
REMARK    2  A    between atoms: C_6  and  N_7 
REMARK    3  A    between atoms: C_6  and  C_18 
REMARK    4  A    between atoms: N_7  and  C_8 
ROOT
HETATM    1  C   UNL     1       6.045  26.667  53.470  1.00  0.00     0.288 C 
ENDROOT
BRANCH   1   2
HETATM    2  C   UNL     1       5.620  27.263  52.136  1.00  0.00    -0.003 A 
HETATM    3  C   UNL     1       5.276  26.413  51.084  1.00  0.00     0.126 A 
HETATM    4  N   UNL     1       4.913  26.829  49.850  1.00  0.00    -0.272 NA
HETATM    5  C   UNL     1       4.869  28.159  49.640  1.00  0.00     0.116 A 
HETATM    6  C   UNL     1       5.190  29.094  50.606  1.00  0.00     0.020 A 
HETATM    7  C   UNL     1       5.576  28.638  51.866  1.00  0.00     0.012 A 
ENDBRANCH   1   2
BRANCH   1   8
HETATM    8  N   UNL     1       7.216  25.761  53.338  1.00  0.00     0.101 NA
HETATM    9  H   UNL     1       8.010  26.267  53.736  1.00  0.00     0.317 HD
BRANCH   8  10
HETATM   10  C   UNL     1       7.159  24.412  53.916  1.00  0.00     0.225 C 
HETATM   11  C   UNL     1       7.727  23.313  52.993  1.00  0.00     0.069 C 
HETATM   12  C   UNL     1       7.784  21.986  53.725  1.00  0.00     0.190 C 
HETATM   13  N   UNL     1       8.655  22.147  54.938  1.00  0.00    -0.067 N 
HETATM   14  C   UNL     1       8.473  20.838  53.015  1.00  0.00     0.035 C 
HETATM   15  H   UNL     1       9.558  22.539  54.629  1.00  0.00     0.280 HD
HETATM   16  C   UNL     1       8.074  23.102  55.926  1.00  0.00     0.237 C 
HETATM   17  C   UNL     1       8.951  20.749  55.414  1.00  0.00     0.235 C 
HETATM   18  C   UNL     1       7.952  24.464  55.247  1.00  0.00     0.063 C 
HETATM   19  C   UNL     1       8.812  19.885  54.160  1.00  0.00     0.030 C 
ENDBRANCH   8  10
ENDBRANCH   1   8
BRANCH   1  20
HETATM   20  C   UNL     1       6.095  27.579  54.701  1.00  0.00    -0.021 A 
HETATM   21  C   UNL     1       5.005  27.761  55.574  1.00  0.00     0.012 A 
HETATM   22  C   UNL     1       5.113  28.586  56.699  1.00  0.00     0.043 A 
HETATM   23  C   UNL     1       6.319  29.209  56.983  1.00  0.00     0.116 A 
HETATM   24  F   UNL     1       6.418  30.001  58.057  1.00  0.00    -0.206 F 
HETATM   25  C   UNL     1       7.428  29.012  56.175  1.00  0.00     0.043 A 
HETATM   26  C   UNL     1       7.319  28.193  55.050  1.00  0.00     0.012 A 
ENDBRANCH   1  20
TORSDOF 4
ENDMDL
MODEL 10
REMARK VINA RESULT:      -8.0      1.798      5.206
REMARK  4 active torsions:
REMARK  status: ('A' for Active; 'I' for Inactive)
REMARK    1  A    between atoms: C_5  and  C_6 
REMARK    2  A    between atoms: C_6  and  N_7 
REMARK    3  A    between atoms: C_6  and  C_18 
REMARK    4  A    between atoms: N_7  and  C_8 
ROOT
HETATM    1  C   UNL     1       6.406  25.090  54.014  1.00  0.00     0.288 C 
ENDROOT
BRANCH   1   2
HETATM    2  C   UNL     1       6.488  26.069  55.176  1.00  0.00    -0.003 A 
HETATM    3  C   UNL     1       5.360  26.289  55.968  1.00  0.00     0.126 A 
HETATM    4  N   UNL     1       5.308  27.154  57.004  1.00  0.00    -0.272 NA
HETATM    5  C   UNL     1       6.436  27.833  57.293  1.00  0.00     0.116 A 
HETATM    6  C   UNL     1       7.611  27.697  56.578  1.00  0.00     0.020 A 
HETATM    7  C   UNL     1       7.632  26.809  55.503  1.00  0.00     0.012 A 
ENDBRANCH   1   2
BRANCH   1   8
HETATM    8  N   UNL     1       6.659  25.745  52.704  1.00  0.00     0.101 NA
HETATM    9  H   UNL     1       6.929  24.996  52.062  1.00  0.00     0.317 HD
BRANCH   8  10
HETATM   10  C   UNL     1       5.607  26.561  52.085  1.00  0.00     0.225 C 
HETATM   11  C   UNL     1       5.915  28.074  52.073  1.00  0.00     0.069 C 
HETATM   12  C   UNL     1       4.866  28.821  51.274  1.00  0.00     0.190 C 
HETATM   13  N   UNL     1       4.859  28.282  49.872  1.00  0.00    -0.067 N 
HETATM   14  C   UNL     1       5.112  30.295  51.024  1.00  0.00     0.035 C 
HETATM   15  H   UNL     1       5.825  28.325  49.513  1.00  0.00     0.280 HD
HETATM   16  C   UNL     1       4.431  26.854  49.820  1.00  0.00     0.237 C 
HETATM   17  C   UNL     1       4.069  29.274  49.059  1.00  0.00     0.235 C 
HETATM   18  C   UNL     1       5.428  26.035  50.637  1.00  0.00     0.063 C 
HETATM   19  C   UNL     1       4.216  30.591  49.823  1.00  0.00     0.030 C 
ENDBRANCH   8  10
ENDBRANCH   1   8
BRANCH   1  20
HETATM   20  C   UNL     1       7.064  23.713  54.164  1.00  0.00    -0.021 A 
HETATM   21  C   UNL     1       7.228  23.065  55.402  1.00  0.00     0.012 A 
HETATM   22  C   UNL     1       7.812  21.796  55.479  1.00  0.00     0.043 A 
HETATM   23  C   UNL     1       8.206  21.147  54.317  1.00  0.00     0.116 A 
HETATM   24  F   UNL     1       8.768  19.935  54.395  1.00  0.00    -0.206 F 
HETATM   25  C   UNL     1       8.012  21.733  53.077  1.00  0.00     0.043 A 
HETATM   26  C   UNL     1       7.433  23.001  53.000  1.00  0.00     0.012 A 
ENDBRANCH   1  20
TORSDOF 4
ENDMDL
