MODEL 1
REMARK VINA RESULT:      -9.0      0.000      0.000
REMARK  7 active torsions:
REMARK  status: ('A' for Active; 'I' for Inactive)
REMARK    1  A    between atoms: C_8  and  C_9 
REMARK    2  A    between atoms: C_9  and  N_10 
REMARK    3  A    between atoms: C_9  and  C_14 
REMARK       I    between atoms: C_14  and  N_15 
REMARK    4  A    between atoms: N_15  and  C_16 
REMARK    5  A    between atoms: C_16  and  C_17 
REMARK    6  A    between atoms: C_17  and  C_18 
REMARK    7  A    between atoms: C_17  and  C_24 
ROOT
HETATM    1  C   UNL     1       4.795  27.005  51.503  1.00  0.00     0.253 C 
HETATM    2  N   UNL     1       5.447  25.803  51.372  1.00  0.00    -0.358 N 
HETATM    3  O   UNL     1       4.235  27.390  52.531  1.00  0.00    -0.271 OA
HETATM    4  H   UNL     1       5.898  25.542  50.504  1.00  0.00     0.162 HD
ENDROOT
BRANCH   2   5
HETATM    5  C   UNL     1       5.505  24.819  52.457  1.00  0.00     0.141 C 
BRANCH   5   6
HETATM    6  C   UNL     1       6.859  24.816  53.255  1.00  0.00     0.026 C 
HETATM    7  C   UNL     1       7.956  25.264  52.247  1.00  0.00     0.027 C 
BRANCH   6   8
HETATM    8  C   UNL     1       6.687  25.830  54.425  1.00  0.00    -0.044 A 
HETATM    9  C   UNL     1       5.585  25.750  55.304  1.00  0.00     0.008 A 
HETATM   10  C   UNL     1       5.431  26.649  56.364  1.00  0.00     0.001 A 
HETATM   11  C   UNL     1       6.360  27.665  56.555  1.00  0.00     0.000 A 
HETATM   12  C   UNL     1       7.439  27.786  55.684  1.00  0.00     0.001 A 
HETATM   13  C   UNL     1       7.598  26.882  54.629  1.00  0.00     0.008 A 
ENDBRANCH   6   8
BRANCH   6  14
HETATM   14  C   UNL     1       7.321  23.411  53.735  1.00  0.00    -0.044 A 
HETATM   15  C   UNL     1       7.318  23.019  55.085  1.00  0.00     0.008 A 
HETATM   16  C   UNL     1       7.730  21.738  55.468  1.00  0.00     0.001 A 
HETATM   17  C   UNL     1       8.131  20.812  54.509  1.00  0.00     0.000 A 
HETATM   18  C   UNL     1       8.107  21.160  53.164  1.00  0.00     0.001 A 
HETATM   19  C   UNL     1       7.697  22.438  52.782  1.00  0.00     0.008 A 
ENDBRANCH   6  14
ENDBRANCH   5   6
ENDBRANCH   2   5
BRANCH   1  20
HETATM   20  C   UNL     1       4.695  27.876  50.233  1.00  0.00     0.311 C 
BRANCH  20  21
HETATM   21  C   UNL     1       3.362  27.735  49.576  1.00  0.00     0.031 A 
HETATM   22  C   UNL     1       2.889  26.749  48.717  1.00  0.00     0.035 A 
HETATM   23  C   UNL     1       3.481  25.505  48.161  1.00  0.00     0.070 C 
HETATM   24  N   UNL     1       1.597  27.097  48.415  1.00  0.00    -0.282 N 
HETATM   25  H   UNL     1       0.927  26.608  47.825  1.00  0.00     0.189 HD
HETATM   26  N   UNL     1       1.209  28.233  48.998  1.00  0.00    -0.179 NA
HETATM   27  C   UNL     1       2.256  28.628  49.720  1.00  0.00     0.061 A 
HETATM   28  C   UNL     1       2.144  29.866  50.534  1.00  0.00     0.073 C 
ENDBRANCH  20  21
BRANCH  20  29
HETATM   29  N   UNL     1       5.808  27.477  49.313  1.00  0.00    -0.062 N 
HETATM   30  H   UNL     1       6.713  27.529  49.790  1.00  0.00     0.275 HD
HETATM   31  H   UNL     1       5.667  26.480  49.089  1.00  0.00     0.275 HD
HETATM   32  H   UNL     1       5.817  28.029  48.452  1.00  0.00     0.275 HD
ENDBRANCH  20  29
ENDBRANCH   1  20
TORSDOF 7
ENDMDL
MODEL 2
REMARK VINA RESULT:      -8.9      3.959      5.859
REMARK  7 active torsions:
REMARK  status: ('A' for Active; 'I' for Inactive)
REMARK    1  A    between atoms: C_8  and  C_9 
REMARK    2  A    between atoms: C_9  and  N_10 
REMARK    3  A    between atoms: C_9  and  C_14 
REMARK       I    between atoms: C_14  and  N_15 
REMARK    4  A    between atoms: N_15  and  C_16 
REMARK    5  A    between atoms: C_16  and  C_17 
REMARK    6  A    between atoms: C_17  and  C_18 
REMARK    7  A    between atoms: C_17  and  C_24 
ROOT
HETATM    1  C   UNL     1       7.860  27.814  56.889  1.00  0.00     0.253 C 
HETATM    2  N   UNL     1       8.011  26.839  55.934  1.00  0.00    -0.358 N 
HETATM    3  O   UNL     1       7.983  27.632  58.102  1.00  0.00    -0.271 OA
HETATM    4  H   UNL     1       7.907  27.049  54.949  1.00  0.00     0.162 HD
ENDROOT
BRANCH   2   5
HETATM    5  C   UNL     1       8.300  25.443  56.275  1.00  0.00     0.141 C 
BRANCH   5   6
HETATM    6  C   UNL     1       7.231  24.416  55.753  1.00  0.00     0.026 C 
HETATM    7  C   UNL     1       6.003  24.552  56.698  1.00  0.00     0.027 C 
BRANCH   6   8
HETATM    8  C   UNL     1       6.896  24.830  54.289  1.00  0.00    -0.044 A 
HETATM    9  C   UNL     1       5.569  25.109  53.895  1.00  0.00     0.008 A 
HETATM   10  C   UNL     1       5.263  25.493  52.586  1.00  0.00     0.001 A 
HETATM   11  C   UNL     1       6.271  25.584  51.633  1.00  0.00     0.000 A 
HETATM   12  C   UNL     1       7.583  25.283  51.987  1.00  0.00     0.001 A 
HETATM   13  C   UNL     1       7.891  24.907  53.299  1.00  0.00     0.008 A 
ENDBRANCH   6   8
BRANCH   6  14
HETATM   14  C   UNL     1       7.656  22.925  55.877  1.00  0.00    -0.044 A 
HETATM   15  C   UNL     1       8.179  22.369  57.058  1.00  0.00     0.008 A 
HETATM   16  C   UNL     1       8.534  21.017  57.126  1.00  0.00     0.001 A 
HETATM   17  C   UNL     1       8.351  20.186  56.025  1.00  0.00     0.000 A 
HETATM   18  C   UNL     1       7.799  20.700  54.858  1.00  0.00     0.001 A 
HETATM   19  C   UNL     1       7.446  22.049  54.789  1.00  0.00     0.008 A 
ENDBRANCH   6  14
ENDBRANCH   5   6
ENDBRANCH   2   5
BRANCH   1  20
HETATM   20  C   UNL     1       7.418  29.206  56.390  1.00  0.00     0.311 C 
BRANCH  20  21
HETATM   21  C   UNL     1       6.100  29.602  56.970  1.00  0.00     0.031 A 
HETATM   22  C   UNL     1       4.829  29.088  56.733  1.00  0.00     0.035 A 
HETATM   23  C   UNL     1       4.312  27.991  55.876  1.00  0.00     0.070 C 
HETATM   24  N   UNL     1       3.976  29.808  57.529  1.00  0.00    -0.282 N 
HETATM   25  H   UNL     1       2.968  29.708  57.636  1.00  0.00     0.189 HD
HETATM   26  N   UNL     1       4.593  30.749  58.245  1.00  0.00    -0.179 NA
HETATM   27  C   UNL     1       5.883  30.632  57.935  1.00  0.00     0.061 A 
HETATM   28  C   UNL     1       6.868  31.528  58.595  1.00  0.00     0.073 C 
ENDBRANCH  20  21
BRANCH  20  29
HETATM   29  N   UNL     1       7.372  29.164  54.893  1.00  0.00    -0.062 N 
HETATM   30  H   UNL     1       7.058  28.246  54.563  1.00  0.00     0.275 HD
HETATM   31  H   UNL     1       6.644  29.832  54.599  1.00  0.00     0.275 HD
HETATM   32  H   UNL     1       8.268  29.417  54.469  1.00  0.00     0.275 HD
ENDBRANCH  20  29
ENDBRANCH   1  20
TORSDOF 7
ENDMDL
MODEL 3
REMARK VINA RESULT:      -8.7      0.272      1.590
REMARK  7 active torsions:
REMARK  status: ('A' for Active; 'I' for Inactive)
REMARK    1  A    between atoms: C_8  and  C_9 
REMARK    2  A    between atoms: C_9  and  N_10 
REMARK    3  A    between atoms: C_9  and  C_14 
REMARK       I    between atoms: C_14  and  N_15 
REMARK    4  A    between atoms: N_15  and  C_16 
REMARK    5  A    between atoms: C_16  and  C_17 
REMARK    6  A    between atoms: C_17  and  C_18 
REMARK    7  A    between atoms: C_17  and  C_24 
ROOT
HETATM    1  C   UNL     1       4.833  27.075  51.616  1.00  0.00     0.253 C 
HETATM    2  N   UNL     1       5.571  25.923  51.495  1.00  0.00    -0.358 N 
HETATM    3  O   UNL     1       4.143  27.365  52.595  1.00  0.00    -0.271 OA
HETATM    4  H   UNL     1       6.127  25.740  50.669  1.00  0.00     0.162 HD
ENDROOT
BRANCH   2   5
HETATM    5  C   UNL     1       5.577  24.882  52.527  1.00  0.00     0.141 C 
BRANCH   5   6
HETATM    6  C   UNL     1       6.893  24.829  53.384  1.00  0.00     0.026 C 
HETATM    7  C   UNL     1       8.031  25.350  52.462  1.00  0.00     0.027 C 
BRANCH   6   8
HETATM    8  C   UNL     1       6.659  25.759  54.612  1.00  0.00    -0.044 A 
HETATM    9  C   UNL     1       5.483  25.665  55.386  1.00  0.00     0.008 A 
HETATM   10  C   UNL     1       5.272  26.488  56.497  1.00  0.00     0.001 A 
HETATM   11  C   UNL     1       6.221  27.442  56.845  1.00  0.00     0.000 A 
HETATM   12  C   UNL     1       7.376  27.577  56.081  1.00  0.00     0.001 A 
HETATM   13  C   UNL     1       7.591  26.749  54.975  1.00  0.00     0.008 A 
ENDBRANCH   6   8
BRANCH   6  14
HETATM   14  C   UNL     1       7.342  23.396  53.787  1.00  0.00    -0.044 A 
HETATM   15  C   UNL     1       7.356  22.939  55.117  1.00  0.00     0.008 A 
HETATM   16  C   UNL     1       7.755  21.635  55.430  1.00  0.00     0.001 A 
HETATM   17  C   UNL     1       8.126  20.751  54.421  1.00  0.00     0.000 A 
HETATM   18  C   UNL     1       8.084  21.165  53.095  1.00  0.00     0.001 A 
HETATM   19  C   UNL     1       7.687  22.466  52.782  1.00  0.00     0.008 A 
ENDBRANCH   6  14
ENDBRANCH   5   6
ENDBRANCH   2   5
BRANCH   1  20
HETATM   20  C   UNL     1       4.813  28.012  50.391  1.00  0.00     0.311 C 
BRANCH  20  21
HETATM   21  C   UNL     1       3.462  28.053  49.755  1.00  0.00     0.031 A 
HETATM   22  C   UNL     1       2.444  28.993  49.878  1.00  0.00     0.035 A 
HETATM   23  C   UNL     1       2.313  30.267  50.630  1.00  0.00     0.070 C 
HETATM   24  N   UNL     1       1.423  28.553  49.075  1.00  0.00    -0.282 N 
HETATM   25  H   UNL     1       0.520  28.987  48.899  1.00  0.00     0.189 HD
HETATM   26  N   UNL     1       1.697  27.401  48.460  1.00  0.00    -0.179 NA
HETATM   27  C   UNL     1       2.934  27.088  48.844  1.00  0.00     0.061 A 
HETATM   28  C   UNL     1       3.566  25.856  48.304  1.00  0.00     0.073 C 
ENDBRANCH  20  21
BRANCH  20  29
HETATM   29  N   UNL     1       5.860  27.537  49.430  1.00  0.00    -0.062 N 
HETATM   30  H   UNL     1       6.797  27.796  49.754  1.00  0.00     0.275 HD
HETATM   31  H   UNL     1       5.833  26.506  49.447  1.00  0.00     0.275 HD
HETATM   32  H   UNL     1       5.697  27.874  48.478  1.00  0.00     0.275 HD
ENDBRANCH  20  29
ENDBRANCH   1  20
TORSDOF 7
ENDMDL
MODEL 4
REMARK VINA RESULT:      -8.7      4.157      7.031
REMARK  7 active torsions:
REMARK  status: ('A' for Active; 'I' for Inactive)
REMARK    1  A    between atoms: C_8  and  C_9 
REMARK    2  A    between atoms: C_9  and  N_10 
REMARK    3  A    between atoms: C_9  and  C_14 
REMARK       I    between atoms: C_14  and  N_15 
REMARK    4  A    between atoms: N_15  and  C_16 
REMARK    5  A    between atoms: C_16  and  C_17 
REMARK    6  A    between atoms: C_17  and  C_18 
REMARK    7  A    between atoms: C_17  and  C_24 
ROOT
HETATM    1  C   UNL     1       7.673  27.539  57.176  1.00  0.00     0.253 C 
HETATM    2  N   UNL     1       7.857  26.822  56.019  1.00  0.00    -0.358 N 
HETATM    3  O   UNL     1       7.875  27.101  58.311  1.00  0.00    -0.271 OA
HETATM    4  H   UNL     1       7.682  27.236  55.112  1.00  0.00     0.162 HD
ENDROOT
BRANCH   2   5
HETATM    5  C   UNL     1       8.285  25.420  56.023  1.00  0.00     0.141 C 
BRANCH   5   6
HETATM    6  C   UNL     1       7.172  24.404  55.577  1.00  0.00     0.026 C 
HETATM    7  C   UNL     1       6.016  24.547  56.607  1.00  0.00     0.027 C 
BRANCH   6   8
HETATM    8  C   UNL     1       6.736  24.826  54.142  1.00  0.00    -0.044 A 
HETATM    9  C   UNL     1       7.680  24.958  53.101  1.00  0.00     0.008 A 
HETATM   10  C   UNL     1       7.294  25.325  51.808  1.00  0.00     0.001 A 
HETATM   11  C   UNL     1       5.958  25.592  51.530  1.00  0.00     0.000 A 
HETATM   12  C   UNL     1       5.011  25.500  52.546  1.00  0.00     0.001 A 
HETATM   13  C   UNL     1       5.396  25.125  53.837  1.00  0.00     0.008 A 
ENDBRANCH   6   8
BRANCH   6  14
HETATM   14  C   UNL     1       7.591  22.909  55.666  1.00  0.00    -0.044 A 
HETATM   15  C   UNL     1       7.527  22.024  54.575  1.00  0.00     0.008 A 
HETATM   16  C   UNL     1       7.929  20.690  54.700  1.00  0.00     0.001 A 
HETATM   17  C   UNL     1       8.426  20.216  55.911  1.00  0.00     0.000 A 
HETATM   18  C   UNL     1       8.537  21.079  56.995  1.00  0.00     0.001 A 
HETATM   19  C   UNL     1       8.135  22.410  56.871  1.00  0.00     0.008 A 
ENDBRANCH   6  14
ENDBRANCH   5   6
ENDBRANCH   2   5
BRANCH   1  20
HETATM   20  C   UNL     1       7.085  28.957  57.022  1.00  0.00     0.311 C 
BRANCH  20  21
HETATM   21  C   UNL     1       7.964  29.985  57.655  1.00  0.00     0.031 A 
HETATM   22  C   UNL     1       9.348  30.119  57.623  1.00  0.00     0.035 A 
HETATM   23  C   UNL     1      10.437  29.350  56.967  1.00  0.00     0.070 C 
HETATM   24  N   UNL     1       9.637  31.238  58.363  1.00  0.00    -0.282 N 
HETATM   25  H   UNL     1      10.545  31.658  58.553  1.00  0.00     0.189 HD
HETATM   26  N   UNL     1       8.554  31.822  58.877  1.00  0.00    -0.179 NA
HETATM   27  C   UNL     1       7.527  31.089  58.448  1.00  0.00     0.061 A 
HETATM   28  C   UNL     1       6.147  31.495  58.821  1.00  0.00     0.073 C 
ENDBRANCH  20  21
BRANCH  20  29
HETATM   29  N   UNL     1       5.715  28.955  57.628  1.00  0.00    -0.062 N 
HETATM   30  H   UNL     1       5.497  28.041  58.037  1.00  0.00     0.275 HD
HETATM   31  H   UNL     1       5.737  29.617  58.418  1.00  0.00     0.275 HD
HETATM   32  H   UNL     1       4.993  29.236  56.960  1.00  0.00     0.275 HD
ENDBRANCH  20  29
ENDBRANCH   1  20
TORSDOF 7
ENDMDL
MODEL 5
REMARK VINA RESULT:      -8.6      3.882      6.127
REMARK  7 active torsions:
REMARK  status: ('A' for Active; 'I' for Inactive)
REMARK    1  A    between atoms: C_8  and  C_9 
REMARK    2  A    between atoms: C_9  and  N_10 
REMARK    3  A    between atoms: C_9  and  C_14 
REMARK       I    between atoms: C_14  and  N_15 
REMARK    4  A    between atoms: N_15  and  C_16 
REMARK    5  A    between atoms: C_16  and  C_17 
REMARK    6  A    between atoms: C_17  and  C_18 
REMARK    7  A    between atoms: C_17  and  C_24 
ROOT
HETATM    1  C   UNL     1       8.013  27.840  56.716  1.00  0.00     0.253 C 
HETATM    2  N   UNL     1       8.039  26.834  55.781  1.00  0.00    -0.358 N 
HETATM    3  O   UNL     1       8.264  27.689  57.914  1.00  0.00    -0.271 OA
HETATM    4  H   UNL     1       7.831  27.018  54.807  1.00  0.00     0.162 HD
ENDROOT
BRANCH   2   5
HETATM    5  C   UNL     1       8.335  25.442  56.132  1.00  0.00     0.141 C 
BRANCH   5   6
HETATM    6  C   UNL     1       7.229  24.416  55.693  1.00  0.00     0.026 C 
HETATM    7  C   UNL     1       6.065  24.571  56.713  1.00  0.00     0.027 C 
BRANCH   6   8
HETATM    8  C   UNL     1       6.802  24.814  54.249  1.00  0.00    -0.044 A 
HETATM    9  C   UNL     1       7.749  24.902  53.206  1.00  0.00     0.008 A 
HETATM   10  C   UNL     1       7.371  25.247  51.905  1.00  0.00     0.001 A 
HETATM   11  C   UNL     1       6.042  25.536  51.620  1.00  0.00     0.000 A 
HETATM   12  C   UNL     1       5.093  25.487  52.636  1.00  0.00     0.001 A 
HETATM   13  C   UNL     1       5.469  25.134  53.936  1.00  0.00     0.008 A 
ENDBRANCH   6   8
BRANCH   6  14
HETATM   14  C   UNL     1       7.652  22.924  55.809  1.00  0.00    -0.044 A 
HETATM   15  C   UNL     1       8.153  22.355  56.994  1.00  0.00     0.008 A 
HETATM   16  C   UNL     1       8.507  21.003  57.054  1.00  0.00     0.001 A 
HETATM   17  C   UNL     1       8.346  20.183  55.940  1.00  0.00     0.000 A 
HETATM   18  C   UNL     1       7.816  20.710  54.769  1.00  0.00     0.001 A 
HETATM   19  C   UNL     1       7.463  22.059  54.708  1.00  0.00     0.008 A 
ENDBRANCH   6  14
ENDBRANCH   5   6
ENDBRANCH   2   5
BRANCH   1  20
HETATM   20  C   UNL     1       7.547  29.226  56.225  1.00  0.00     0.311 C 
BRANCH  20  21
HETATM   21  C   UNL     1       6.388  29.728  57.022  1.00  0.00     0.031 A 
HETATM   22  C   UNL     1       6.352  30.648  58.065  1.00  0.00     0.035 A 
HETATM   23  C   UNL     1       7.388  31.466  58.745  1.00  0.00     0.070 C 
HETATM   24  N   UNL     1       5.034  30.751  58.433  1.00  0.00    -0.282 N 
HETATM   25  H   UNL     1       4.619  31.338  59.153  1.00  0.00     0.189 HD
HETATM   26  N   UNL     1       4.227  29.962  57.722  1.00  0.00    -0.179 NA
HETATM   27  C   UNL     1       5.023  29.345  56.850  1.00  0.00     0.061 A 
HETATM   28  C   UNL     1       4.424  28.402  55.870  1.00  0.00     0.073 C 
ENDBRANCH  20  21
BRANCH  20  29
HETATM   29  N   UNL     1       7.207  29.108  54.771  1.00  0.00    -0.062 N 
HETATM   30  H   UNL     1       6.606  28.296  54.601  1.00  0.00     0.275 HD
HETATM   31  H   UNL     1       6.637  29.933  54.531  1.00  0.00     0.275 HD
HETATM   32  H   UNL     1       8.040  29.077  54.178  1.00  0.00     0.275 HD
ENDBRANCH  20  29
ENDBRANCH   1  20
TORSDOF 7
ENDMDL
MODEL 6
REMARK VINA RESULT:      -8.6      1.944      3.005
REMARK  7 active torsions:
REMARK  status: ('A' for Active; 'I' for Inactive)
REMARK    1  A    between atoms: C_8  and  C_9 
REMARK    2  A    between atoms: C_9  and  N_10 
REMARK    3  A    between atoms: C_9  and  C_14 
REMARK       I    between atoms: C_14  and  N_15 
REMARK    4  A    between atoms: N_15  and  C_16 
REMARK    5  A    between atoms: C_16  and  C_17 
REMARK    6  A    between atoms: C_17  and  C_18 
REMARK    7  A    between atoms: C_17  and  C_24 
ROOT
HETATM    1  C   UNL     1       4.213  27.521  52.696  1.00  0.00     0.253 C 
HETATM    2  N   UNL     1       4.695  26.275  52.378  1.00  0.00    -0.358 N 
HETATM    3  O   UNL     1       4.164  27.982  53.838  1.00  0.00    -0.271 OA
HETATM    4  H   UNL     1       4.718  25.950  51.419  1.00  0.00     0.162 HD
ENDROOT
BRANCH   2   5
HETATM    5  C   UNL     1       5.173  25.334  53.395  1.00  0.00     0.141 C 
BRANCH   5   6
HETATM    6  C   UNL     1       6.736  25.190  53.459  1.00  0.00     0.026 C 
HETATM    7  C   UNL     1       7.249  25.381  52.003  1.00  0.00     0.027 C 
BRANCH   6   8
HETATM    8  C   UNL     1       7.246  26.311  54.413  1.00  0.00    -0.044 A 
HETATM    9  C   UNL     1       7.205  26.152  55.815  1.00  0.00     0.008 A 
HETATM   10  C   UNL     1       7.671  27.149  56.677  1.00  0.00     0.001 A 
HETATM   11  C   UNL     1       8.168  28.340  56.159  1.00  0.00     0.000 A 
HETATM   12  C   UNL     1       8.190  28.536  54.782  1.00  0.00     0.001 A 
HETATM   13  C   UNL     1       7.731  27.536  53.919  1.00  0.00     0.008 A 
ENDBRANCH   6   8
BRANCH   6  14
HETATM   14  C   UNL     1       7.238  23.776  53.866  1.00  0.00    -0.044 A 
HETATM   15  C   UNL     1       7.132  23.268  55.173  1.00  0.00     0.008 A 
HETATM   16  C   UNL     1       7.584  21.982  55.489  1.00  0.00     0.001 A 
HETATM   17  C   UNL     1       8.131  21.167  54.502  1.00  0.00     0.000 A 
HETATM   18  C   UNL     1       8.211  21.629  53.194  1.00  0.00     0.001 A 
HETATM   19  C   UNL     1       7.761  22.911  52.879  1.00  0.00     0.008 A 
ENDBRANCH   6  14
ENDBRANCH   5   6
ENDBRANCH   2   5
BRANCH   1  20
HETATM   20  C   UNL     1       3.614  28.345  51.537  1.00  0.00     0.311 C 
BRANCH  20  21
HETATM   21  C   UNL     1       4.448  29.545  51.231  1.00  0.00     0.031 A 
HETATM   22  C   UNL     1       4.526  30.770  51.886  1.00  0.00     0.035 A 
HETATM   23  C   UNL     1       3.865  31.330  53.093  1.00  0.00     0.070 C 
HETATM   24  N   UNL     1       5.451  31.510  51.195  1.00  0.00    -0.282 N 
HETATM   25  H   UNL     1       5.783  32.453  51.387  1.00  0.00     0.189 HD
HETATM   26  N   UNL     1       5.961  30.866  50.144  1.00  0.00    -0.179 NA
HETATM   27  C   UNL     1       5.380  29.667  50.156  1.00  0.00     0.061 A 
HETATM   28  C   UNL     1       5.758  28.673  49.118  1.00  0.00     0.073 C 
ENDBRANCH  20  21
BRANCH  20  29
HETATM   29  N   UNL     1       2.217  28.727  51.920  1.00  0.00    -0.062 N 
HETATM   30  H   UNL     1       1.665  27.899  52.164  1.00  0.00     0.275 HD
HETATM   31  H   UNL     1       2.286  29.283  52.786  1.00  0.00     0.275 HD
HETATM   32  H   UNL     1       1.750  29.275  51.192  1.00  0.00     0.275 HD
ENDBRANCH  20  29
ENDBRANCH   1  20
TORSDOF 7
ENDMDL
MODEL 7
REMARK VINA RESULT:      -8.5      1.471      4.325
REMARK  7 active torsions:
REMARK  status: ('A' for Active; 'I' for Inactive)
REMARK    1  A    between atoms: C_8  and  C_9 
REMARK    2  A    between atoms: C_9  and  N_10 
REMARK    3  A    between atoms: C_9  and  C_14 
REMARK       I    between atoms: C_14  and  N_15 
REMARK    4  A    between atoms: N_15  and  C_16 
REMARK    5  A    between atoms: C_16  and  C_17 
REMARK    6  A    between atoms: C_17  and  C_18 
REMARK    7  A    between atoms: C_17  and  C_24 
ROOT
HETATM    1  C   UNL     1       5.424  27.344  51.641  1.00  0.00     0.253 C 
HETATM    2  N   UNL     1       5.885  26.053  51.553  1.00  0.00    -0.358 N 
HETATM    3  O   UNL     1       5.856  28.189  52.427  1.00  0.00    -0.271 OA
HETATM    4  H   UNL     1       5.497  25.402  50.881  1.00  0.00     0.162 HD
ENDROOT
BRANCH   2   5
HETATM    5  C   UNL     1       6.933  25.531  52.434  1.00  0.00     0.141 C 
BRANCH   5   6
HETATM    6  C   UNL     1       6.404  24.946  53.793  1.00  0.00     0.026 C 
HETATM    7  C   UNL     1       4.870  24.764  53.617  1.00  0.00     0.027 C 
BRANCH   6   8
HETATM    8  C   UNL     1       7.137  23.589  54.007  1.00  0.00    -0.044 A 
HETATM    9  C   UNL     1       7.641  22.850  52.915  1.00  0.00     0.008 A 
HETATM   10  C   UNL     1       8.310  21.637  53.101  1.00  0.00     0.001 A 
HETATM   11  C   UNL     1       8.471  21.120  54.381  1.00  0.00     0.000 A 
HETATM   12  C   UNL     1       7.956  21.812  55.474  1.00  0.00     0.001 A 
HETATM   13  C   UNL     1       7.294  23.030  55.288  1.00  0.00     0.008 A 
ENDBRANCH   6   8
BRANCH   6  14
HETATM   14  C   UNL     1       6.546  25.908  55.007  1.00  0.00    -0.044 A 
HETATM   15  C   UNL     1       7.692  26.688  55.242  1.00  0.00     0.008 A 
HETATM   16  C   UNL     1       7.767  27.550  56.342  1.00  0.00     0.001 A 
HETATM   17  C   UNL     1       6.691  27.671  57.216  1.00  0.00     0.000 A 
HETATM   18  C   UNL     1       5.531  26.941  56.985  1.00  0.00     0.001 A 
HETATM   19  C   UNL     1       5.456  26.080  55.889  1.00  0.00     0.008 A 
ENDBRANCH   6  14
ENDBRANCH   5   6
ENDBRANCH   2   5
BRANCH   1  20
HETATM   20  C   UNL     1       4.221  27.709  50.746  1.00  0.00     0.311 C 
BRANCH  20  21
HETATM   21  C   UNL     1       4.613  27.785  49.307  1.00  0.00     0.031 A 
HETATM   22  C   UNL     1       5.362  28.744  48.634  1.00  0.00     0.035 A 
HETATM   23  C   UNL     1       6.050  29.990  49.060  1.00  0.00     0.070 C 
HETATM   24  N   UNL     1       5.428  28.327  47.329  1.00  0.00    -0.282 N 
HETATM   25  H   UNL     1       5.904  28.765  46.544  1.00  0.00     0.189 HD
HETATM   26  N   UNL     1       4.770  27.187  47.108  1.00  0.00    -0.179 NA
HETATM   27  C   UNL     1       4.282  26.832  48.296  1.00  0.00     0.061 A 
HETATM   28  C   UNL     1       3.510  25.567  48.409  1.00  0.00     0.073 C 
ENDBRANCH  20  21
BRANCH  20  29
HETATM   29  N   UNL     1       3.663  29.011  51.235  1.00  0.00    -0.062 N 
HETATM   30  H   UNL     1       4.153  29.802  50.805  1.00  0.00     0.275 HD
HETATM   31  H   UNL     1       2.691  29.065  50.895  1.00  0.00     0.275 HD
HETATM   32  H   UNL     1       3.679  29.083  52.255  1.00  0.00     0.275 HD
ENDBRANCH  20  29
ENDBRANCH   1  20
TORSDOF 7
ENDMDL
MODEL 8
REMARK VINA RESULT:      -8.4      1.270      3.823
REMARK  7 active torsions:
REMARK  status: ('A' for Active; 'I' for Inactive)
REMARK    1  A    between atoms: C_8  and  C_9 
REMARK    2  A    between atoms: C_9  and  N_10 
REMARK    3  A    between atoms: C_9  and  C_14 
REMARK       I    between atoms: C_14  and  N_15 
REMARK    4  A    between atoms: N_15  and  C_16 
REMARK    5  A    between atoms: C_16  and  C_17 
REMARK    6  A    between atoms: C_17  and  C_18 
REMARK    7  A    between atoms: C_17  and  C_24 
ROOT
HETATM    1  C   UNL     1       5.132  26.611  50.173  1.00  0.00     0.253 C 
HETATM    2  N   UNL     1       6.164  26.544  51.077  1.00  0.00    -0.358 N 
HETATM    3  O   UNL     1       4.444  25.650  49.823  1.00  0.00    -0.271 OA
HETATM    4  H   UNL     1       6.690  27.370  51.334  1.00  0.00     0.162 HD
ENDROOT
BRANCH   2   5
HETATM    5  C   UNL     1       6.585  25.285  51.697  1.00  0.00     0.141 C 
BRANCH   5   6
HETATM    6  C   UNL     1       6.194  25.149  53.213  1.00  0.00     0.026 C 
HETATM    7  C   UNL     1       4.664  24.874  53.243  1.00  0.00     0.027 C 
BRANCH   6   8
HETATM    8  C   UNL     1       7.017  23.953  53.778  1.00  0.00    -0.044 A 
HETATM    9  C   UNL     1       7.030  23.662  55.159  1.00  0.00     0.008 A 
HETATM   10  C   UNL     1       7.757  22.583  55.671  1.00  0.00     0.001 A 
HETATM   11  C   UNL     1       8.509  21.784  54.818  1.00  0.00     0.000 A 
HETATM   12  C   UNL     1       8.540  22.067  53.456  1.00  0.00     0.001 A 
HETATM   13  C   UNL     1       7.806  23.142  52.942  1.00  0.00     0.008 A 
ENDBRANCH   6   8
BRANCH   6  14
HETATM   14  C   UNL     1       6.372  26.451  54.044  1.00  0.00    -0.044 A 
HETATM   15  C   UNL     1       5.356  26.997  54.848  1.00  0.00     0.008 A 
HETATM   16  C   UNL     1       5.568  28.164  55.590  1.00  0.00     0.001 A 
HETATM   17  C   UNL     1       6.806  28.799  55.564  1.00  0.00     0.000 A 
HETATM   18  C   UNL     1       7.840  28.259  54.809  1.00  0.00     0.001 A 
HETATM   19  C   UNL     1       7.629  27.095  54.068  1.00  0.00     0.008 A 
ENDBRANCH   6  14
ENDBRANCH   5   6
ENDBRANCH   2   5
BRANCH   1  20
HETATM   20  C   UNL     1       4.894  27.977  49.497  1.00  0.00     0.311 C 
BRANCH  20  21
HETATM   21  C   UNL     1       3.439  28.300  49.411  1.00  0.00     0.031 A 
HETATM   22  C   UNL     1       2.511  27.989  48.421  1.00  0.00     0.035 A 
HETATM   23  C   UNL     1       2.592  27.237  47.143  1.00  0.00     0.070 C 
HETATM   24  N   UNL     1       1.317  28.517  48.842  1.00  0.00    -0.282 N 
HETATM   25  H   UNL     1       0.408  28.477  48.386  1.00  0.00     0.189 HD
HETATM   26  N   UNL     1       1.407  29.152  50.012  1.00  0.00    -0.179 NA
HETATM   27  C   UNL     1       2.679  29.019  50.383  1.00  0.00     0.061 A 
HETATM   28  C   UNL     1       3.115  29.596  51.682  1.00  0.00     0.073 C 
ENDBRANCH  20  21
BRANCH  20  29
HETATM   29  N   UNL     1       5.531  27.936  48.141  1.00  0.00    -0.062 N 
HETATM   30  H   UNL     1       6.146  28.744  48.001  1.00  0.00     0.275 HD
HETATM   31  H   UNL     1       6.147  27.109  48.127  1.00  0.00     0.275 HD
HETATM   32  H   UNL     1       4.841  27.868  47.389  1.00  0.00     0.275 HD
ENDBRANCH  20  29
ENDBRANCH   1  20
TORSDOF 7
ENDMDL
MODEL 9
REMARK VINA RESULT:      -8.2      2.495      4.203
REMARK  7 active torsions:
REMARK  status: ('A' for Active; 'I' for Inactive)
REMARK    1  A    between atoms: C_8  and  C_9 
REMARK    2  A    between atoms: C_9  and  N_10 
REMARK    3  A    between atoms: C_9  and  C_14 
REMARK       I    between atoms: C_14  and  N_15 
REMARK    4  A    between atoms: N_15  and  C_16 
REMARK    5  A    between atoms: C_16  and  C_17 
REMARK    6  A    between atoms: C_17  and  C_18 
REMARK    7  A    between atoms: C_17  and  C_24 
ROOT
HETATM    1  C   UNL     1       4.521  28.744  54.138  1.00  0.00     0.253 C 
HETATM    2  N   UNL     1       5.264  27.868  54.891  1.00  0.00    -0.358 N 
HETATM    3  O   UNL     1       4.464  29.960  54.332  1.00  0.00    -0.271 OA
HETATM    4  H   UNL     1       5.280  26.878  54.681  1.00  0.00     0.162 HD
ENDROOT
BRANCH   2   5
HETATM    5  C   UNL     1       6.048  28.299  56.052  1.00  0.00     0.141 C 
BRANCH   5   6
HETATM    6  C   UNL     1       7.577  27.947  55.966  1.00  0.00     0.026 C 
HETATM    7  C   UNL     1       8.008  28.243  54.501  1.00  0.00     0.027 C 
BRANCH   6   8
HETATM    8  C   UNL     1       8.303  28.869  56.990  1.00  0.00    -0.044 A 
HETATM    9  C   UNL     1       7.660  29.296  58.172  1.00  0.00     0.008 A 
HETATM   10  C   UNL     1       8.310  30.114  59.101  1.00  0.00     0.001 A 
HETATM   11  C   UNL     1       9.609  30.546  58.860  1.00  0.00     0.000 A 
HETATM   12  C   UNL     1      10.255  30.166  57.687  1.00  0.00     0.001 A 
HETATM   13  C   UNL     1       9.609  29.341  56.761  1.00  0.00     0.008 A 
ENDBRANCH   6   8
BRANCH   6  14
HETATM   14  C   UNL     1       7.905  26.440  56.171  1.00  0.00    -0.044 A 
HETATM   15  C   UNL     1       8.412  25.920  57.375  1.00  0.00     0.008 A 
HETATM   16  C   UNL     1       8.677  24.553  57.518  1.00  0.00     0.001 A 
HETATM   17  C   UNL     1       8.420  23.674  56.470  1.00  0.00     0.000 A 
HETATM   18  C   UNL     1       7.882  24.156  55.283  1.00  0.00     0.001 A 
HETATM   19  C   UNL     1       7.618  25.519  55.140  1.00  0.00     0.008 A 
ENDBRANCH   6  14
ENDBRANCH   5   6
ENDBRANCH   2   5
BRANCH   1  20
HETATM   20  C   UNL     1       3.636  28.126  53.036  1.00  0.00     0.311 C 
BRANCH  20  21
HETATM   21  C   UNL     1       4.460  27.503  51.957  1.00  0.00     0.031 A 
HETATM   22  C   UNL     1       4.987  28.063  50.798  1.00  0.00     0.035 A 
HETATM   23  C   UNL     1       4.959  29.430  50.217  1.00  0.00     0.070 C 
HETATM   24  N   UNL     1       5.667  27.054  50.165  1.00  0.00    -0.282 N 
HETATM   25  H   UNL     1       6.194  27.090  49.295  1.00  0.00     0.189 HD
HETATM   26  N   UNL     1       5.607  25.891  50.816  1.00  0.00    -0.179 NA
HETATM   27  C   UNL     1       4.895  26.143  51.913  1.00  0.00     0.061 A 
HETATM   28  C   UNL     1       4.664  25.047  52.890  1.00  0.00     0.073 C 
ENDBRANCH  20  21
BRANCH  20  29
HETATM   29  N   UNL     1       2.751  29.208  52.497  1.00  0.00    -0.062 N 
HETATM   30  H   UNL     1       2.032  29.466  53.180  1.00  0.00     0.275 HD
HETATM   31  H   UNL     1       3.341  30.046  52.382  1.00  0.00     0.275 HD
HETATM   32  H   UNL     1       2.329  28.955  51.600  1.00  0.00     0.275 HD
ENDBRANCH  20  29
ENDBRANCH   1  20
TORSDOF 7
ENDMDL
MODEL 10
REMARK VINA RESULT:      -8.0      2.562      5.025
REMARK  7 active torsions:
REMARK  status: ('A' for Active; 'I' for Inactive)
REMARK    1  A    between atoms: C_8  and  C_9 
REMARK    2  A    between atoms: C_9  and  N_10 
REMARK    3  A    between atoms: C_9  and  C_14 
REMARK       I    between atoms: C_14  and  N_15 
REMARK    4  A    between atoms: N_15  and  C_16 
REMARK    5  A    between atoms: C_16  and  C_17 
REMARK    6  A    between atoms: C_17  and  C_18 
REMARK    7  A    between atoms: C_17  and  C_24 
ROOT
HETATM    1  C   UNL     1       4.773  28.021  51.776  1.00  0.00     0.253 C 
HETATM    2  N   UNL     1       4.684  26.867  52.516  1.00  0.00    -0.358 N 
HETATM    3  O   UNL     1       5.757  28.353  51.111  1.00  0.00    -0.271 OA
HETATM    4  H   UNL     1       3.847  26.641  53.037  1.00  0.00     0.162 HD
ENDROOT
BRANCH   2   5
HETATM    5  C   UNL     1       5.793  25.915  52.622  1.00  0.00     0.141 C 
BRANCH   5   6
HETATM    6  C   UNL     1       6.237  25.601  54.097  1.00  0.00     0.026 C 
HETATM    7  C   UNL     1       4.932  25.563  54.942  1.00  0.00     0.027 C 
BRANCH   6   8
HETATM    8  C   UNL     1       6.954  24.219  54.060  1.00  0.00    -0.044 A 
HETATM    9  C   UNL     1       7.111  23.446  55.230  1.00  0.00     0.008 A 
HETATM   10  C   UNL     1       7.743  22.199  55.201  1.00  0.00     0.001 A 
HETATM   11  C   UNL     1       8.257  21.707  54.007  1.00  0.00     0.000 A 
HETATM   12  C   UNL     1       8.145  22.463  52.844  1.00  0.00     0.001 A 
HETATM   13  C   UNL     1       7.505  23.706  52.871  1.00  0.00     0.008 A 
ENDBRANCH   6   8
BRANCH   6  14
HETATM   14  C   UNL     1       7.099  26.712  54.761  1.00  0.00    -0.044 A 
HETATM   15  C   UNL     1       7.735  27.733  54.032  1.00  0.00     0.008 A 
HETATM   16  C   UNL     1       8.489  28.720  54.675  1.00  0.00     0.001 A 
HETATM   17  C   UNL     1       8.605  28.724  56.062  1.00  0.00     0.000 A 
HETATM   18  C   UNL     1       7.954  27.750  56.810  1.00  0.00     0.001 A 
HETATM   19  C   UNL     1       7.203  26.764  56.169  1.00  0.00     0.008 A 
ENDBRANCH   6  14
ENDBRANCH   5   6
ENDBRANCH   2   5
BRANCH   1  20
HETATM   20  C   UNL     1       3.581  28.995  51.872  1.00  0.00     0.311 C 
BRANCH  20  21
HETATM   21  C   UNL     1       3.925  30.205  52.677  1.00  0.00     0.031 A 
HETATM   22  C   UNL     1       4.277  30.315  54.018  1.00  0.00     0.035 A 
HETATM   23  C   UNL     1       4.461  29.328  55.113  1.00  0.00     0.070 C 
HETATM   24  N   UNL     1       4.497  31.650  54.243  1.00  0.00    -0.282 N 
HETATM   25  H   UNL     1       4.785  32.111  55.103  1.00  0.00     0.189 HD
HETATM   26  N   UNL     1       4.301  32.405  53.160  1.00  0.00    -0.179 NA
HETATM   27  C   UNL     1       3.970  31.548  52.195  1.00  0.00     0.061 A 
HETATM   28  C   UNL     1       3.712  32.069  50.827  1.00  0.00     0.073 C 
ENDBRANCH  20  21
BRANCH  20  29
HETATM   29  N   UNL     1       2.424  28.249  52.465  1.00  0.00    -0.062 N 
HETATM   30  H   UNL     1       1.583  28.363  51.891  1.00  0.00     0.275 HD
HETATM   31  H   UNL     1       2.661  27.246  52.418  1.00  0.00     0.275 HD
HETATM   32  H   UNL     1       2.244  28.519  53.435  1.00  0.00     0.275 HD
ENDBRANCH  20  29
ENDBRANCH   1  20
TORSDOF 7
ENDMDL
