MODEL 1
REMARK VINA RESULT:      -9.7      0.000      0.000
REMARK  9 active torsions:
REMARK  status: ('A' for Active; 'I' for Inactive)
REMARK    1  A    between atoms: C_2  and  O_3 
REMARK    2  A    between atoms: O_3  and  C_4 
REMARK    3  A    between atoms: C_7  and  N_8 
REMARK       I    between atoms: N_8  and  C_9 
REMARK    4  A    between atoms: C_9  and  C_10 
REMARK    5  A    between atoms: C_11  and  N_12 
REMARK       I    between atoms: N_12  and  C_13 
REMARK    6  A    between atoms: C_13  and  C_14 
REMARK    7  A    between atoms: C_14  and  N_15 
REMARK    8  A    between atoms: N_15  and  C_18 
REMARK    9  A    between atoms: C_18  and  C_19 
ROOT
HETATM    1  C   UNL     1       7.479  25.520  54.696  1.00  0.00     0.073 A 
HETATM    2  C   UNL     1       7.585  25.821  56.061  1.00  0.00     0.093 A 
HETATM    3  S   UNL     1       8.313  24.576  56.979  1.00  0.00    -0.075 SA
HETATM    4  C   UNL     1       8.451  23.622  55.622  1.00  0.00    -0.008 A 
HETATM    5  C   UNL     1       7.971  24.196  54.476  1.00  0.00    -0.026 A 
HETATM    6  C   UNL     1       8.108  23.244  53.336  1.00  0.00     0.041 C 
HETATM    7  C   UNL     1       8.413  21.892  54.050  1.00  0.00     0.010 C 
HETATM    8  C   UNL     1       8.986  22.250  55.450  1.00  0.00     0.047 C 
ENDROOT
BRANCH   2   9
HETATM    9  N   UNL     1       7.138  26.993  56.663  1.00  0.00    -0.319 N 
HETATM   10  C   UNL     1       7.909  28.012  57.167  1.00  0.00     0.248 C 
HETATM   11  O   UNL     1       9.130  28.156  57.126  1.00  0.00    -0.271 OA
HETATM   12  H   UNL     1       6.117  27.063  56.677  1.00  0.00     0.169 HD
BRANCH  10  13
HETATM   13  C   UNL     1       7.105  29.117  57.851  1.00  0.00     0.335 C 
BRANCH  13  14
HETATM   14  N   UNL     1       7.902  29.654  59.014  1.00  0.00    -0.059 N 
HETATM   15  H   UNL     1       7.329  29.453  59.856  1.00  0.00     0.278 HD
HETATM   16  H   UNL     1       8.734  29.072  59.167  1.00  0.00     0.278 HD
BRANCH  14  17
HETATM   17  C   UNL     1       8.253  31.101  59.020  1.00  0.00     0.215 C 
HETATM   18  C   UNL     1       9.721  31.287  58.638  1.00  0.00     0.045 C 
BRANCH  17  19
HETATM   19  C   UNL     1       7.918  31.698  60.371  1.00  0.00    -0.028 A 
HETATM   20  C   UNL     1       6.743  32.442  60.579  1.00  0.00     0.009 A 
HETATM   21  C   UNL     1       6.474  33.013  61.825  1.00  0.00     0.001 A 
HETATM   22  C   UNL     1       7.372  32.852  62.876  1.00  0.00     0.000 A 
HETATM   23  C   UNL     1       8.541  32.121  62.685  1.00  0.00     0.001 A 
HETATM   24  C   UNL     1       8.816  31.550  61.441  1.00  0.00     0.009 A 
ENDBRANCH  17  19
ENDBRANCH  14  17
ENDBRANCH  13  14
ENDBRANCH  10  13
ENDBRANCH   2   9
BRANCH   1  25
HETATM   25  C   UNL     1       6.927  26.500  53.739  1.00  0.00     0.259 C 
HETATM   26  N   UNL     1       5.836  26.055  53.023  1.00  0.00    -0.323 N 
HETATM   27  H   UNL     1       5.536  25.108  53.193  1.00  0.00     0.169 HD
HETATM   28  O   UNL     1       7.483  27.589  53.600  1.00  0.00    -0.267 OA
BRANCH  26  29
HETATM   29  C   UNL     1       5.143  26.715  51.987  1.00  0.00     0.035 A 
HETATM   30  C   UNL     1       4.417  27.895  52.148  1.00  0.00     0.032 A 
HETATM   31  C   UNL     1       3.802  28.509  51.046  1.00  0.00     0.039 A 
HETATM   32  C   UNL     1       3.907  27.947  49.775  1.00  0.00     0.068 A 
HETATM   33  C   UNL     1       4.597  26.747  49.620  1.00  0.00     0.039 A 
HETATM   34  C   UNL     1       5.214  26.136  50.714  1.00  0.00     0.032 A 
BRANCH  32  35
HETATM   35  O   UNL     1       3.376  28.457  48.625  1.00  0.00    -0.352 OA
BRANCH  35  36
HETATM   36  C   UNL     1       2.711  27.536  47.762  1.00  0.00     0.171 C 
HETATM   37  C   UNL     1       1.256  27.464  48.189  1.00  0.00     0.034 C 
ENDBRANCH  35  36
ENDBRANCH  32  35
ENDBRANCH  26  29
ENDBRANCH   1  25
TORSDOF 9
ENDMDL
MODEL 2
REMARK VINA RESULT:      -9.6      2.824      6.510
REMARK  9 active torsions:
REMARK  status: ('A' for Active; 'I' for Inactive)
REMARK    1  A    between atoms: C_2  and  O_3 
REMARK    2  A    between atoms: O_3  and  C_4 
REMARK    3  A    between atoms: C_7  and  N_8 
REMARK       I    between atoms: N_8  and  C_9 
REMARK    4  A    between atoms: C_9  and  C_10 
REMARK    5  A    between atoms: C_11  and  N_12 
REMARK       I    between atoms: N_12  and  C_13 
REMARK    6  A    between atoms: C_13  and  C_14 
REMARK    7  A    between atoms: C_14  and  N_15 
REMARK    8  A    between atoms: N_15  and  C_18 
REMARK    9  A    between atoms: C_18  and  C_19 
ROOT
HETATM    1  C   UNL     1       5.226  27.107  51.434  1.00  0.00     0.073 A 
HETATM    2  C   UNL     1       5.365  28.430  51.876  1.00  0.00     0.093 A 
HETATM    3  S   UNL     1       4.848  29.589  50.730  1.00  0.00    -0.075 SA
HETATM    4  C   UNL     1       4.488  28.386  49.638  1.00  0.00    -0.008 A 
HETATM    5  C   UNL     1       4.735  27.118  50.092  1.00  0.00    -0.026 A 
HETATM    6  C   UNL     1       4.415  26.127  49.025  1.00  0.00     0.041 C 
HETATM    7  C   UNL     1       4.280  27.018  47.753  1.00  0.00     0.010 C 
HETATM    8  C   UNL     1       3.965  28.456  48.252  1.00  0.00     0.047 C 
ENDROOT
BRANCH   2   9
HETATM    9  N   UNL     1       5.885  28.817  53.106  1.00  0.00    -0.319 N 
HETATM   10  C   UNL     1       5.246  28.791  54.322  1.00  0.00     0.248 C 
HETATM   11  O   UNL     1       4.131  28.353  54.604  1.00  0.00    -0.271 OA
HETATM   12  H   UNL     1       6.862  29.115  53.045  1.00  0.00     0.169 HD
BRANCH  10  13
HETATM   13  C   UNL     1       6.069  29.376  55.469  1.00  0.00     0.335 C 
BRANCH  13  14
HETATM   14  N   UNL     1       7.489  28.881  55.355  1.00  0.00    -0.059 N 
HETATM   15  H   UNL     1       7.472  28.170  54.599  1.00  0.00     0.278 HD
HETATM   16  H   UNL     1       8.086  29.616  54.956  1.00  0.00     0.278 HD
BRANCH  14  17
HETATM   17  C   UNL     1       8.123  28.273  56.558  1.00  0.00     0.215 C 
HETATM   18  C   UNL     1       7.098  27.442  57.329  1.00  0.00     0.045 C 
BRANCH  17  19
HETATM   19  C   UNL     1       8.754  29.360  57.401  1.00  0.00    -0.028 A 
HETATM   20  C   UNL     1       8.128  29.856  58.558  1.00  0.00     0.009 A 
HETATM   21  C   UNL     1       8.713  30.884  59.299  1.00  0.00     0.001 A 
HETATM   22  C   UNL     1       9.927  31.433  58.896  1.00  0.00     0.000 A 
HETATM   23  C   UNL     1      10.558  30.956  57.751  1.00  0.00     0.001 A 
HETATM   24  C   UNL     1       9.976  29.930  57.005  1.00  0.00     0.009 A 
ENDBRANCH  17  19
ENDBRANCH  14  17
ENDBRANCH  13  14
ENDBRANCH  10  13
ENDBRANCH   2   9
BRANCH   1  25
HETATM   25  C   UNL     1       5.569  25.970  52.312  1.00  0.00     0.259 C 
HETATM   26  N   UNL     1       6.909  25.860  52.616  1.00  0.00    -0.323 N 
HETATM   27  H   UNL     1       7.528  26.537  52.197  1.00  0.00     0.169 HD
HETATM   28  O   UNL     1       4.686  25.186  52.659  1.00  0.00    -0.267 OA
BRANCH  26  29
HETATM   29  C   UNL     1       7.557  24.847  53.352  1.00  0.00     0.035 A 
HETATM   30  C   UNL     1       7.834  24.915  54.718  1.00  0.00     0.032 A 
HETATM   31  C   UNL     1       8.438  23.834  55.378  1.00  0.00     0.039 A 
HETATM   32  C   UNL     1       8.769  22.676  54.678  1.00  0.00     0.068 A 
HETATM   33  C   UNL     1       8.531  22.621  53.306  1.00  0.00     0.039 A 
HETATM   34  C   UNL     1       7.926  23.695  52.648  1.00  0.00     0.032 A 
BRANCH  32  35
HETATM   35  O   UNL     1       9.336  21.552  55.207  1.00  0.00    -0.352 OA
BRANCH  35  36
HETATM   36  C   UNL     1       8.610  20.334  55.055  1.00  0.00     0.171 C 
HETATM   37  C   UNL     1       7.522  20.303  56.113  1.00  0.00     0.034 C 
ENDBRANCH  35  36
ENDBRANCH  32  35
ENDBRANCH  26  29
ENDBRANCH   1  25
TORSDOF 9
ENDMDL
MODEL 3
REMARK VINA RESULT:      -9.4      2.278      3.071
REMARK  9 active torsions:
REMARK  status: ('A' for Active; 'I' for Inactive)
REMARK    1  A    between atoms: C_2  and  O_3 
REMARK    2  A    between atoms: O_3  and  C_4 
REMARK    3  A    between atoms: C_7  and  N_8 
REMARK       I    between atoms: N_8  and  C_9 
REMARK    4  A    between atoms: C_9  and  C_10 
REMARK    5  A    between atoms: C_11  and  N_12 
REMARK       I    between atoms: N_12  and  C_13 
REMARK    6  A    between atoms: C_13  and  C_14 
REMARK    7  A    between atoms: C_14  and  N_15 
REMARK    8  A    between atoms: N_15  and  C_18 
REMARK    9  A    between atoms: C_18  and  C_19 
ROOT
HETATM    1  C   UNL     1       6.864  24.369  54.074  1.00  0.00     0.073 A 
HETATM    2  C   UNL     1       7.257  24.980  55.273  1.00  0.00     0.093 A 
HETATM    3  S   UNL     1       8.505  24.141  56.087  1.00  0.00    -0.075 SA
HETATM    4  C   UNL     1       8.509  22.958  54.917  1.00  0.00    -0.008 A 
HETATM    5  C   UNL     1       7.603  23.156  53.910  1.00  0.00    -0.026 A 
HETATM    6  C   UNL     1       7.666  22.024  52.942  1.00  0.00     0.041 C 
HETATM    7  C   UNL     1       8.494  20.953  53.715  1.00  0.00     0.010 C 
HETATM    8  C   UNL     1       9.314  21.719  54.791  1.00  0.00     0.047 C 
ENDROOT
BRANCH   2   9
HETATM    9  N   UNL     1       6.704  26.140  55.803  1.00  0.00    -0.319 N 
HETATM   10  C   UNL     1       5.626  26.233  56.649  1.00  0.00     0.248 C 
HETATM   11  O   UNL     1       4.976  25.334  57.182  1.00  0.00    -0.271 OA
HETATM   12  H   UNL     1       7.214  26.982  55.524  1.00  0.00     0.169 HD
BRANCH  10  13
HETATM   13  C   UNL     1       5.212  27.669  56.971  1.00  0.00     0.335 C 
BRANCH  13  14
HETATM   14  N   UNL     1       6.380  28.586  56.712  1.00  0.00    -0.059 N 
HETATM   15  H   UNL     1       7.175  27.959  56.479  1.00  0.00     0.278 HD
HETATM   16  H   UNL     1       6.236  29.097  55.833  1.00  0.00     0.278 HD
BRANCH  14  17
HETATM   17  C   UNL     1       6.811  29.506  57.801  1.00  0.00     0.215 C 
HETATM   18  C   UNL     1       5.929  30.753  57.815  1.00  0.00     0.045 C 
BRANCH  17  19
HETATM   19  C   UNL     1       8.281  29.827  57.641  1.00  0.00    -0.028 A 
HETATM   20  C   UNL     1       9.117  29.070  56.800  1.00  0.00     0.009 A 
HETATM   21  C   UNL     1      10.478  29.364  56.697  1.00  0.00     0.001 A 
HETATM   22  C   UNL     1      11.024  30.412  57.432  1.00  0.00     0.000 A 
HETATM   23  C   UNL     1      10.212  31.169  58.271  1.00  0.00     0.001 A 
HETATM   24  C   UNL     1       8.850  30.878  58.380  1.00  0.00     0.009 A 
ENDBRANCH  17  19
ENDBRANCH  14  17
ENDBRANCH  13  14
ENDBRANCH  10  13
ENDBRANCH   2   9
BRANCH   1  25
HETATM   25  C   UNL     1       5.837  24.981  53.208  1.00  0.00     0.259 C 
HETATM   26  N   UNL     1       6.336  25.751  52.178  1.00  0.00    -0.323 N 
HETATM   27  H   UNL     1       7.338  25.848  52.127  1.00  0.00     0.169 HD
HETATM   28  O   UNL     1       4.647  24.824  53.476  1.00  0.00    -0.267 OA
BRANCH  26  29
HETATM   29  C   UNL     1       5.621  26.525  51.242  1.00  0.00     0.035 A 
HETATM   30  C   UNL     1       4.973  26.009  50.119  1.00  0.00     0.032 A 
HETATM   31  C   UNL     1       4.241  26.852  49.268  1.00  0.00     0.039 A 
HETATM   32  C   UNL     1       4.151  28.217  49.534  1.00  0.00     0.068 A 
HETATM   33  C   UNL     1       4.832  28.740  50.630  1.00  0.00     0.039 A 
HETATM   34  C   UNL     1       5.557  27.903  51.481  1.00  0.00     0.032 A 
BRANCH  32  35
HETATM   35  O   UNL     1       3.455  29.133  48.799  1.00  0.00    -0.352 OA
BRANCH  35  36
HETATM   36  C   UNL     1       3.030  28.726  47.499  1.00  0.00     0.171 C 
HETATM   37  C   UNL     1       1.520  28.568  47.530  1.00  0.00     0.034 C 
ENDBRANCH  35  36
ENDBRANCH  32  35
ENDBRANCH  26  29
ENDBRANCH   1  25
TORSDOF 9
ENDMDL
MODEL 4
REMARK VINA RESULT:      -9.4      2.992      9.810
REMARK  9 active torsions:
REMARK  status: ('A' for Active; 'I' for Inactive)
REMARK    1  A    between atoms: C_2  and  O_3 
REMARK    2  A    between atoms: O_3  and  C_4 
REMARK    3  A    between atoms: C_7  and  N_8 
REMARK       I    between atoms: N_8  and  C_9 
REMARK    4  A    between atoms: C_9  and  C_10 
REMARK    5  A    between atoms: C_11  and  N_12 
REMARK       I    between atoms: N_12  and  C_13 
REMARK    6  A    between atoms: C_13  and  C_14 
REMARK    7  A    between atoms: C_14  and  N_15 
REMARK    8  A    between atoms: N_15  and  C_18 
REMARK    9  A    between atoms: C_18  and  C_19 
ROOT
HETATM    1  C   UNL     1       3.788  29.589  53.581  1.00  0.00     0.073 A 
HETATM    2  C   UNL     1       3.598  28.494  52.726  1.00  0.00     0.093 A 
HETATM    3  S   UNL     1       3.000  28.929  51.184  1.00  0.00    -0.075 SA
HETATM    4  C   UNL     1       2.938  30.530  51.632  1.00  0.00    -0.008 A 
HETATM    5  C   UNL     1       3.355  30.776  52.912  1.00  0.00    -0.026 A 
HETATM    6  C   UNL     1       3.222  32.230  53.218  1.00  0.00     0.041 C 
HETATM    7  C   UNL     1       2.331  32.749  52.049  1.00  0.00     0.010 C 
HETATM    8  C   UNL     1       2.489  31.731  50.886  1.00  0.00     0.047 C 
ENDROOT
BRANCH   2   9
HETATM    9  N   UNL     1       3.837  27.165  53.057  1.00  0.00    -0.319 N 
HETATM   10  C   UNL     1       5.041  26.504  53.022  1.00  0.00     0.248 C 
HETATM   11  O   UNL     1       6.163  26.948  52.779  1.00  0.00    -0.271 OA
HETATM   12  H   UNL     1       2.995  26.683  53.383  1.00  0.00     0.169 HD
BRANCH  10  13
HETATM   13  C   UNL     1       4.943  25.016  53.357  1.00  0.00     0.335 C 
BRANCH  13  14
HETATM   14  N   UNL     1       6.332  24.431  53.399  1.00  0.00    -0.059 N 
HETATM   15  H   UNL     1       6.332  23.671  52.691  1.00  0.00     0.278 HD
HETATM   16  H   UNL     1       7.006  25.100  53.007  1.00  0.00     0.278 HD
BRANCH  14  17
HETATM   17  C   UNL     1       6.823  23.871  54.688  1.00  0.00     0.215 C 
HETATM   18  C   UNL     1       7.737  24.878  55.385  1.00  0.00     0.045 C 
BRANCH  17  19
HETATM   19  C   UNL     1       7.499  22.540  54.437  1.00  0.00    -0.028 A 
HETATM   20  C   UNL     1       7.746  22.069  53.136  1.00  0.00     0.009 A 
HETATM   21  C   UNL     1       8.338  20.822  52.930  1.00  0.00     0.001 A 
HETATM   22  C   UNL     1       8.687  20.026  54.018  1.00  0.00     0.000 A 
HETATM   23  C   UNL     1       8.446  20.475  55.313  1.00  0.00     0.001 A 
HETATM   24  C   UNL     1       7.852  21.721  55.524  1.00  0.00     0.009 A 
ENDBRANCH  17  19
ENDBRANCH  14  17
ENDBRANCH  13  14
ENDBRANCH  10  13
ENDBRANCH   2   9
BRANCH   1  25
HETATM   25  C   UNL     1       4.351  29.411  54.934  1.00  0.00     0.259 C 
HETATM   26  N   UNL     1       5.433  30.217  55.218  1.00  0.00    -0.323 N 
HETATM   27  H   UNL     1       5.755  30.823  54.480  1.00  0.00     0.169 HD
HETATM   28  O   UNL     1       3.879  28.551  55.677  1.00  0.00    -0.267 OA
BRANCH  26  29
HETATM   29  C   UNL     1       6.234  30.225  56.378  1.00  0.00     0.035 A 
HETATM   30  C   UNL     1       6.035  31.069  57.471  1.00  0.00     0.032 A 
HETATM   31  C   UNL     1       6.854  30.971  58.606  1.00  0.00     0.039 A 
HETATM   32  C   UNL     1       7.877  30.027  58.659  1.00  0.00     0.068 A 
HETATM   33  C   UNL     1       8.104  29.211  57.553  1.00  0.00     0.039 A 
HETATM   34  C   UNL     1       7.288  29.304  56.423  1.00  0.00     0.032 A 
BRANCH  32  35
HETATM   35  O   UNL     1       8.724  29.818  59.710  1.00  0.00    -0.352 OA
BRANCH  35  36
HETATM   36  C   UNL     1       9.175  30.975  60.411  1.00  0.00     0.171 C 
HETATM   37  C   UNL     1       9.141  30.664  61.896  1.00  0.00     0.034 C 
ENDBRANCH  35  36
ENDBRANCH  32  35
ENDBRANCH  26  29
ENDBRANCH   1  25
TORSDOF 9
ENDMDL
MODEL 5
REMARK VINA RESULT:      -9.3      1.964      9.821
REMARK  9 active torsions:
REMARK  status: ('A' for Active; 'I' for Inactive)
REMARK    1  A    between atoms: C_2  and  O_3 
REMARK    2  A    between atoms: O_3  and  C_4 
REMARK    3  A    between atoms: C_7  and  N_8 
REMARK       I    between atoms: N_8  and  C_9 
REMARK    4  A    between atoms: C_9  and  C_10 
REMARK    5  A    between atoms: C_11  and  N_12 
REMARK       I    between atoms: N_12  and  C_13 
REMARK    6  A    between atoms: C_13  and  C_14 
REMARK    7  A    between atoms: C_14  and  N_15 
REMARK    8  A    between atoms: N_15  and  C_18 
REMARK    9  A    between atoms: C_18  and  C_19 
ROOT
HETATM    1  C   UNL     1       7.315  25.974  55.128  1.00  0.00     0.073 A 
HETATM    2  C   UNL     1       6.898  25.762  53.806  1.00  0.00     0.093 A 
HETATM    3  S   UNL     1       6.782  24.110  53.384  1.00  0.00    -0.075 SA
HETATM    4  C   UNL     1       7.317  23.660  54.894  1.00  0.00    -0.008 A 
HETATM    5  C   UNL     1       7.586  24.707  55.733  1.00  0.00    -0.026 A 
HETATM    6  C   UNL     1       8.092  24.194  57.039  1.00  0.00     0.041 C 
HETATM    7  C   UNL     1       8.418  22.703  56.721  1.00  0.00     0.010 C 
HETATM    8  C   UNL     1       7.569  22.320  55.476  1.00  0.00     0.047 C 
ENDROOT
BRANCH   2   9
HETATM    9  N   UNL     1       6.615  26.763  52.883  1.00  0.00    -0.319 N 
HETATM   10  C   UNL     1       5.378  27.260  52.551  1.00  0.00     0.248 C 
HETATM   11  O   UNL     1       4.279  27.000  53.041  1.00  0.00    -0.271 OA
HETATM   12  H   UNL     1       7.459  27.156  52.457  1.00  0.00     0.169 HD
BRANCH  10  13
HETATM   13  C   UNL     1       5.405  28.293  51.425  1.00  0.00     0.335 C 
BRANCH  13  14
HETATM   14  N   UNL     1       5.718  27.593  50.126  1.00  0.00    -0.059 N 
HETATM   15  H   UNL     1       6.738  27.403  50.155  1.00  0.00     0.278 HD
HETATM   16  H   UNL     1       5.315  26.649  50.130  1.00  0.00     0.278 HD
BRANCH  14  17
HETATM   17  C   UNL     1       5.409  28.300  48.852  1.00  0.00     0.215 C 
HETATM   18  C   UNL     1       5.239  29.797  49.109  1.00  0.00     0.045 C 
BRANCH  17  19
HETATM   19  C   UNL     1       4.192  27.672  48.207  1.00  0.00    -0.028 A 
HETATM   20  C   UNL     1       4.091  26.283  48.013  1.00  0.00     0.009 A 
HETATM   21  C   UNL     1       2.974  25.731  47.383  1.00  0.00     0.001 A 
HETATM   22  C   UNL     1       1.945  26.556  46.937  1.00  0.00     0.000 A 
HETATM   23  C   UNL     1       2.031  27.933  47.118  1.00  0.00     0.001 A 
HETATM   24  C   UNL     1       3.147  28.490  47.745  1.00  0.00     0.009 A 
ENDBRANCH  17  19
ENDBRANCH  14  17
ENDBRANCH  13  14
ENDBRANCH  10  13
ENDBRANCH   2   9
BRANCH   1  25
HETATM   25  C   UNL     1       7.418  27.336  55.686  1.00  0.00     0.259 C 
HETATM   26  N   UNL     1       8.605  27.606  56.333  1.00  0.00    -0.323 N 
HETATM   27  H   UNL     1       9.273  26.853  56.391  1.00  0.00     0.169 HD
HETATM   28  O   UNL     1       6.458  28.101  55.597  1.00  0.00    -0.267 OA
BRANCH  26  29
HETATM   29  C   UNL     1       8.972  28.772  57.035  1.00  0.00     0.035 A 
HETATM   30  C   UNL     1      10.163  29.472  56.840  1.00  0.00     0.032 A 
HETATM   31  C   UNL     1      10.420  30.655  57.551  1.00  0.00     0.039 A 
HETATM   32  C   UNL     1       9.488  31.147  58.461  1.00  0.00     0.068 A 
HETATM   33  C   UNL     1       8.316  30.429  58.688  1.00  0.00     0.039 A 
HETATM   34  C   UNL     1       8.056  29.253  57.979  1.00  0.00     0.032 A 
BRANCH  32  35
HETATM   35  O   UNL     1       9.609  32.293  59.194  1.00  0.00    -0.352 OA
BRANCH  35  36
HETATM   36  C   UNL     1       8.800  32.395  60.365  1.00  0.00     0.171 C 
HETATM   37  C   UNL     1       9.635  31.946  61.550  1.00  0.00     0.034 C 
ENDBRANCH  35  36
ENDBRANCH  32  35
ENDBRANCH  26  29
ENDBRANCH   1  25
TORSDOF 9
ENDMDL
MODEL 6
REMARK VINA RESULT:      -9.3      2.176      9.562
REMARK  9 active torsions:
REMARK  status: ('A' for Active; 'I' for Inactive)
REMARK    1  A    between atoms: C_2  and  O_3 
REMARK    2  A    between atoms: O_3  and  C_4 
REMARK    3  A    between atoms: C_7  and  N_8 
REMARK       I    between atoms: N_8  and  C_9 
REMARK    4  A    between atoms: C_9  and  C_10 
REMARK    5  A    between atoms: C_11  and  N_12 
REMARK       I    between atoms: N_12  and  C_13 
REMARK    6  A    between atoms: C_13  and  C_14 
REMARK    7  A    between atoms: C_14  and  N_15 
REMARK    8  A    between atoms: N_15  and  C_18 
REMARK    9  A    between atoms: C_18  and  C_19 
ROOT
HETATM    1  C   UNL     1       5.901  25.885  54.675  1.00  0.00     0.073 A 
HETATM    2  C   UNL     1       5.079  25.979  53.543  1.00  0.00     0.093 A 
HETATM    3  S   UNL     1       5.329  24.721  52.413  1.00  0.00    -0.075 SA
HETATM    4  C   UNL     1       6.536  24.075  53.360  1.00  0.00    -0.008 A 
HETATM    5  C   UNL     1       6.775  24.764  54.518  1.00  0.00    -0.026 A 
HETATM    6  C   UNL     1       7.895  24.124  55.267  1.00  0.00     0.041 C 
HETATM    7  C   UNL     1       8.516  23.165  54.206  1.00  0.00     0.010 C 
HETATM    8  C   UNL     1       7.407  22.894  53.151  1.00  0.00     0.047 C 
ENDROOT
BRANCH   2   9
HETATM    9  N   UNL     1       4.152  26.988  53.305  1.00  0.00    -0.319 N 
HETATM   10  C   UNL     1       4.379  28.194  52.688  1.00  0.00     0.248 C 
HETATM   11  O   UNL     1       5.403  28.609  52.147  1.00  0.00    -0.271 OA
HETATM   12  H   UNL     1       3.209  26.738  53.616  1.00  0.00     0.169 HD
BRANCH  10  13
HETATM   13  C   UNL     1       3.163  29.121  52.670  1.00  0.00     0.335 C 
BRANCH  13  14
HETATM   14  N   UNL     1       2.230  28.683  51.570  1.00  0.00    -0.059 N 
HETATM   15  H   UNL     1       2.334  27.651  51.515  1.00  0.00     0.278 HD
HETATM   16  H   UNL     1       1.254  28.791  51.874  1.00  0.00     0.278 HD
BRANCH  14  17
HETATM   17  C   UNL     1       2.431  29.248  50.207  1.00  0.00     0.215 C 
HETATM   18  C   UNL     1       1.277  30.185  49.851  1.00  0.00     0.045 C 
BRANCH  17  19
HETATM   19  C   UNL     1       2.601  28.120  49.211  1.00  0.00    -0.028 A 
HETATM   20  C   UNL     1       1.529  27.657  48.428  1.00  0.00     0.009 A 
HETATM   21  C   UNL     1       1.702  26.592  47.543  1.00  0.00     0.001 A 
HETATM   22  C   UNL     1       2.944  25.972  47.430  1.00  0.00     0.000 A 
HETATM   23  C   UNL     1       4.014  26.416  48.200  1.00  0.00     0.001 A 
HETATM   24  C   UNL     1       3.846  27.480  49.089  1.00  0.00     0.009 A 
ENDBRANCH  17  19
ENDBRANCH  14  17
ENDBRANCH  13  14
ENDBRANCH  10  13
ENDBRANCH   2   9
BRANCH   1  25
HETATM   25  C   UNL     1       5.786  26.853  55.784  1.00  0.00     0.259 C 
HETATM   26  N   UNL     1       6.766  27.822  55.807  1.00  0.00    -0.323 N 
HETATM   27  H   UNL     1       7.478  27.767  55.095  1.00  0.00     0.169 HD
HETATM   28  O   UNL     1       4.895  26.711  56.620  1.00  0.00    -0.267 OA
BRANCH  26  29
HETATM   29  C   UNL     1       6.978  28.826  56.773  1.00  0.00     0.035 A 
HETATM   30  C   UNL     1       6.149  29.933  56.960  1.00  0.00     0.032 A 
HETATM   31  C   UNL     1       6.411  30.856  57.984  1.00  0.00     0.039 A 
HETATM   32  C   UNL     1       7.505  30.680  58.829  1.00  0.00     0.068 A 
HETATM   33  C   UNL     1       8.358  29.599  58.619  1.00  0.00     0.039 A 
HETATM   34  C   UNL     1       8.096  28.676  57.603  1.00  0.00     0.032 A 
BRANCH  32  35
HETATM   35  O   UNL     1       7.853  31.491  59.872  1.00  0.00    -0.352 OA
BRANCH  35  36
HETATM   36  C   UNL     1       8.651  30.908  60.900  1.00  0.00     0.171 C 
HETATM   37  C   UNL     1       8.748  31.907  62.039  1.00  0.00     0.034 C 
ENDBRANCH  35  36
ENDBRANCH  32  35
ENDBRANCH  26  29
ENDBRANCH   1  25
TORSDOF 9
ENDMDL
MODEL 7
REMARK VINA RESULT:      -9.3      3.096      8.632
REMARK  9 active torsions:
REMARK  status: ('A' for Active; 'I' for Inactive)
REMARK    1  A    between atoms: C_2  and  O_3 
REMARK    2  A    between atoms: O_3  and  C_4 
REMARK    3  A    between atoms: C_7  and  N_8 
REMARK       I    between atoms: N_8  and  C_9 
REMARK    4  A    between atoms: C_9  and  C_10 
REMARK    5  A    between atoms: C_11  and  N_12 
REMARK       I    between atoms: N_12  and  C_13 
REMARK    6  A    between atoms: C_13  and  C_14 
REMARK    7  A    between atoms: C_14  and  N_15 
REMARK    8  A    between atoms: N_15  and  C_18 
REMARK    9  A    between atoms: C_18  and  C_19 
ROOT
HETATM    1  C   UNL     1       7.671  30.002  58.405  1.00  0.00     0.073 A 
HETATM    2  C   UNL     1       6.587  30.718  57.877  1.00  0.00     0.093 A 
HETATM    3  S   UNL     1       6.225  32.145  58.745  1.00  0.00    -0.075 SA
HETATM    4  C   UNL     1       7.438  31.819  59.837  1.00  0.00    -0.008 A 
HETATM    5  C   UNL     1       8.130  30.666  59.585  1.00  0.00    -0.026 A 
HETATM    6  C   UNL     1       9.162  30.452  60.640  1.00  0.00     0.041 C 
HETATM    7  C   UNL     1       8.739  31.466  61.747  1.00  0.00     0.010 C 
HETATM    8  C   UNL     1       7.882  32.556  61.045  1.00  0.00     0.047 C 
ENDROOT
BRANCH   2   9
HETATM    9  N   UNL     1       5.834  30.337  56.772  1.00  0.00    -0.319 N 
HETATM   10  C   UNL     1       4.481  30.100  56.732  1.00  0.00     0.248 C 
HETATM   11  O   UNL     1       3.640  30.249  57.619  1.00  0.00    -0.271 OA
HETATM   12  H   UNL     1       6.393  30.269  55.918  1.00  0.00     0.169 HD
BRANCH  10  13
HETATM   13  C   UNL     1       3.977  29.601  55.378  1.00  0.00     0.335 C 
BRANCH  13  14
HETATM   14  N   UNL     1       4.780  28.391  54.972  1.00  0.00    -0.059 N 
HETATM   15  H   UNL     1       5.510  28.287  55.704  1.00  0.00     0.278 HD
HETATM   16  H   UNL     1       4.218  27.540  55.097  1.00  0.00     0.278 HD
BRANCH  14  17
HETATM   17  C   UNL     1       5.447  28.401  53.641  1.00  0.00     0.215 C 
HETATM   18  C   UNL     1       4.496  28.954  52.581  1.00  0.00     0.045 C 
BRANCH  17  19
HETATM   19  C   UNL     1       5.947  27.010  53.315  1.00  0.00    -0.028 A 
HETATM   20  C   UNL     1       5.065  25.962  52.995  1.00  0.00     0.009 A 
HETATM   21  C   UNL     1       5.548  24.679  52.734  1.00  0.00     0.001 A 
HETATM   22  C   UNL     1       6.915  24.422  52.791  1.00  0.00     0.000 A 
HETATM   23  C   UNL     1       7.802  25.447  53.110  1.00  0.00     0.001 A 
HETATM   24  C   UNL     1       7.323  26.732  53.375  1.00  0.00     0.009 A 
ENDBRANCH  17  19
ENDBRANCH  14  17
ENDBRANCH  13  14
ENDBRANCH  10  13
ENDBRANCH   2   9
BRANCH   1  25
HETATM   25  C   UNL     1       8.162  28.772  57.753  1.00  0.00     0.259 C 
HETATM   26  N   UNL     1       7.283  27.710  57.787  1.00  0.00    -0.323 N 
HETATM   27  H   UNL     1       6.411  27.857  58.270  1.00  0.00     0.169 HD
HETATM   28  O   UNL     1       9.302  28.748  57.289  1.00  0.00    -0.267 OA
BRANCH  26  29
HETATM   29  C   UNL     1       7.489  26.392  57.331  1.00  0.00     0.035 A 
HETATM   30  C   UNL     1       8.710  25.719  57.380  1.00  0.00     0.032 A 
HETATM   31  C   UNL     1       8.808  24.387  56.950  1.00  0.00     0.039 A 
HETATM   32  C   UNL     1       7.685  23.717  56.467  1.00  0.00     0.068 A 
HETATM   33  C   UNL     1       6.474  24.400  56.378  1.00  0.00     0.039 A 
HETATM   34  C   UNL     1       6.373  25.724  56.810  1.00  0.00     0.032 A 
BRANCH  32  35
HETATM   35  O   UNL     1       7.645  22.420  56.042  1.00  0.00    -0.352 OA
BRANCH  35  36
HETATM   36  C   UNL     1       8.368  21.467  56.820  1.00  0.00     0.171 C 
HETATM   37  C   UNL     1       9.061  20.513  55.864  1.00  0.00     0.034 C 
ENDBRANCH  35  36
ENDBRANCH  32  35
ENDBRANCH  26  29
ENDBRANCH   1  25
TORSDOF 9
ENDMDL
MODEL 8
REMARK VINA RESULT:      -9.3      2.266      9.270
REMARK  9 active torsions:
REMARK  status: ('A' for Active; 'I' for Inactive)
REMARK    1  A    between atoms: C_2  and  O_3 
REMARK    2  A    between atoms: O_3  and  C_4 
REMARK    3  A    between atoms: C_7  and  N_8 
REMARK       I    between atoms: N_8  and  C_9 
REMARK    4  A    between atoms: C_9  and  C_10 
REMARK    5  A    between atoms: C_11  and  N_12 
REMARK       I    between atoms: N_12  and  C_13 
REMARK    6  A    between atoms: C_13  and  C_14 
REMARK    7  A    between atoms: C_14  and  N_15 
REMARK    8  A    between atoms: N_15  and  C_18 
REMARK    9  A    between atoms: C_18  and  C_19 
ROOT
HETATM    1  C   UNL     1       7.280  24.009  55.283  1.00  0.00     0.073 A 
HETATM    2  C   UNL     1       7.101  24.104  53.896  1.00  0.00     0.093 A 
HETATM    3  S   UNL     1       7.511  22.672  53.056  1.00  0.00    -0.075 SA
HETATM    4  C   UNL     1       7.968  21.938  54.478  1.00  0.00    -0.008 A 
HETATM    5  C   UNL     1       7.826  22.724  55.590  1.00  0.00    -0.026 A 
HETATM    6  C   UNL     1       8.297  21.985  56.797  1.00  0.00     0.041 C 
HETATM    7  C   UNL     1       9.070  20.777  56.182  1.00  0.00     0.010 C 
HETATM    8  C   UNL     1       8.519  20.588  54.741  1.00  0.00     0.047 C 
ENDROOT
BRANCH   2   9
HETATM    9  N   UNL     1       6.658  25.234  53.218  1.00  0.00    -0.319 N 
HETATM   10  C   UNL     1       5.375  25.505  52.806  1.00  0.00     0.248 C 
HETATM   11  O   UNL     1       4.342  24.868  53.012  1.00  0.00    -0.271 OA
HETATM   12  H   UNL     1       7.403  25.918  53.062  1.00  0.00     0.169 HD
BRANCH  10  13
HETATM   13  C   UNL     1       5.241  26.796  51.999  1.00  0.00     0.335 C 
BRANCH  13  14
HETATM   14  N   UNL     1       5.659  26.528  50.575  1.00  0.00    -0.059 N 
HETATM   15  H   UNL     1       6.684  26.367  50.614  1.00  0.00     0.278 HD
HETATM   16  H   UNL     1       5.301  25.615  50.270  1.00  0.00     0.278 HD
BRANCH  14  17
HETATM   17  C   UNL     1       5.388  27.576  49.552  1.00  0.00     0.215 C 
HETATM   18  C   UNL     1       5.392  28.959  50.202  1.00  0.00     0.045 C 
BRANCH  17  19
HETATM   19  C   UNL     1       4.088  27.265  48.840  1.00  0.00    -0.028 A 
HETATM   20  C   UNL     1       2.911  27.989  49.099  1.00  0.00     0.009 A 
HETATM   21  C   UNL     1       1.717  27.659  48.457  1.00  0.00     0.001 A 
HETATM   22  C   UNL     1       1.679  26.602  47.552  1.00  0.00     0.000 A 
HETATM   23  C   UNL     1       2.834  25.873  47.287  1.00  0.00     0.001 A 
HETATM   24  C   UNL     1       4.031  26.197  47.929  1.00  0.00     0.009 A 
ENDBRANCH  17  19
ENDBRANCH  14  17
ENDBRANCH  13  14
ENDBRANCH  10  13
ENDBRANCH   2   9
BRANCH   1  25
HETATM   25  C   UNL     1       6.924  25.129  56.176  1.00  0.00     0.259 C 
HETATM   26  N   UNL     1       7.568  26.316  55.898  1.00  0.00    -0.323 N 
HETATM   27  H   UNL     1       8.233  26.306  55.140  1.00  0.00     0.169 HD
HETATM   28  O   UNL     1       6.151  24.933  57.113  1.00  0.00    -0.267 OA
BRANCH  26  29
HETATM   29  C   UNL     1       7.507  27.531  56.610  1.00  0.00     0.035 A 
HETATM   30  C   UNL     1       6.332  28.236  56.872  1.00  0.00     0.032 A 
HETATM   31  C   UNL     1       6.362  29.413  57.636  1.00  0.00     0.039 A 
HETATM   32  C   UNL     1       7.567  29.893  58.145  1.00  0.00     0.068 A 
HETATM   33  C   UNL     1       8.747  29.213  57.850  1.00  0.00     0.039 A 
HETATM   34  C   UNL     1       8.719  28.039  57.094  1.00  0.00     0.032 A 
BRANCH  32  35
HETATM   35  O   UNL     1       7.726  31.008  58.917  1.00  0.00    -0.352 OA
BRANCH  35  36
HETATM   36  C   UNL     1       9.062  31.466  59.119  1.00  0.00     0.171 C 
HETATM   37  C   UNL     1       9.088  32.283  60.398  1.00  0.00     0.034 C 
ENDBRANCH  35  36
ENDBRANCH  32  35
ENDBRANCH  26  29
ENDBRANCH   1  25
TORSDOF 9
ENDMDL
MODEL 9
REMARK VINA RESULT:      -9.0      5.720     10.346
REMARK  9 active torsions:
REMARK  status: ('A' for Active; 'I' for Inactive)
REMARK    1  A    between atoms: C_2  and  O_3 
REMARK    2  A    between atoms: O_3  and  C_4 
REMARK    3  A    between atoms: C_7  and  N_8 
REMARK       I    between atoms: N_8  and  C_9 
REMARK    4  A    between atoms: C_9  and  C_10 
REMARK    5  A    between atoms: C_11  and  N_12 
REMARK       I    between atoms: N_12  and  C_13 
REMARK    6  A    between atoms: C_13  and  C_14 
REMARK    7  A    between atoms: C_14  and  N_15 
REMARK    8  A    between atoms: N_15  and  C_18 
REMARK    9  A    between atoms: C_18  and  C_19 
ROOT
HETATM    1  C   UNL     1       6.985  31.351  58.601  1.00  0.00     0.073 A 
HETATM    2  C   UNL     1       5.819  31.685  57.899  1.00  0.00     0.093 A 
HETATM    3  S   UNL     1       5.566  30.729  56.505  1.00  0.00    -0.075 SA
HETATM    4  C   UNL     1       6.989  29.910  56.776  1.00  0.00    -0.008 A 
HETATM    5  C   UNL     1       7.672  30.318  57.890  1.00  0.00    -0.026 A 
HETATM    6  C   UNL     1       8.943  29.549  58.016  1.00  0.00     0.041 C 
HETATM    7  C   UNL     1       9.080  28.876  56.616  1.00  0.00     0.010 C 
HETATM    8  C   UNL     1       7.651  28.830  56.006  1.00  0.00     0.047 C 
ENDROOT
BRANCH   2   9
HETATM    9  N   UNL     1       4.934  32.699  58.247  1.00  0.00    -0.319 N 
HETATM   10  C   UNL     1       3.865  32.609  59.106  1.00  0.00     0.248 C 
HETATM   11  O   UNL     1       3.510  31.661  59.807  1.00  0.00    -0.271 OA
HETATM   12  H   UNL     1       5.169  33.594  57.810  1.00  0.00     0.169 HD
BRANCH  10  13
HETATM   13  C   UNL     1       3.032  33.887  59.197  1.00  0.00     0.335 C 
BRANCH  13  14
HETATM   14  N   UNL     1       2.590  34.082  60.626  1.00  0.00    -0.059 N 
HETATM   15  H   UNL     1       1.693  33.566  60.709  1.00  0.00     0.278 HD
HETATM   16  H   UNL     1       3.207  33.559  61.259  1.00  0.00     0.278 HD
BRANCH  14  17
HETATM   17  C   UNL     1       2.377  35.473  61.114  1.00  0.00     0.215 C 
HETATM   18  C   UNL     1       2.158  36.417  59.933  1.00  0.00     0.045 C 
BRANCH  17  19
HETATM   19  C   UNL     1       3.542  35.886  61.988  1.00  0.00    -0.028 A 
HETATM   20  C   UNL     1       3.350  36.540  63.218  1.00  0.00     0.009 A 
HETATM   21  C   UNL     1       4.442  36.943  63.988  1.00  0.00     0.001 A 
HETATM   22  C   UNL     1       5.739  36.702  63.543  1.00  0.00     0.000 A 
HETATM   23  C   UNL     1       5.947  36.058  62.327  1.00  0.00     0.001 A 
HETATM   24  C   UNL     1       4.858  35.656  61.551  1.00  0.00     0.009 A 
ENDBRANCH  17  19
ENDBRANCH  14  17
ENDBRANCH  13  14
ENDBRANCH  10  13
ENDBRANCH   2   9
BRANCH   1  25
HETATM   25  C   UNL     1       7.338  32.033  59.862  1.00  0.00     0.259 C 
HETATM   26  N   UNL     1       6.566  31.676  60.947  1.00  0.00    -0.323 N 
HETATM   27  H   UNL     1       5.824  31.013  60.779  1.00  0.00     0.169 HD
HETATM   28  O   UNL     1       8.224  32.887  59.861  1.00  0.00    -0.267 OA
BRANCH  26  29
HETATM   29  C   UNL     1       6.599  32.203  62.254  1.00  0.00     0.035 A 
HETATM   30  C   UNL     1       7.764  32.536  62.944  1.00  0.00     0.032 A 
HETATM   31  C   UNL     1       7.697  33.105  64.225  1.00  0.00     0.039 A 
HETATM   32  C   UNL     1       6.463  33.346  64.826  1.00  0.00     0.068 A 
HETATM   33  C   UNL     1       5.299  32.977  64.156  1.00  0.00     0.039 A 
HETATM   34  C   UNL     1       5.363  32.414  62.879  1.00  0.00     0.032 A 
BRANCH  32  35
HETATM   35  O   UNL     1       6.265  33.913  66.052  1.00  0.00    -0.352 OA
BRANCH  35  36
HETATM   36  C   UNL     1       4.915  34.004  66.506  1.00  0.00     0.171 C 
HETATM   37  C   UNL     1       4.730  35.367  67.149  1.00  0.00     0.034 C 
ENDBRANCH  35  36
ENDBRANCH  32  35
ENDBRANCH  26  29
ENDBRANCH   1  25
TORSDOF 9
ENDMDL
MODEL 10
REMARK VINA RESULT:      -9.0      3.745      7.704
REMARK  9 active torsions:
REMARK  status: ('A' for Active; 'I' for Inactive)
REMARK    1  A    between atoms: C_2  and  O_3 
REMARK    2  A    between atoms: O_3  and  C_4 
REMARK    3  A    between atoms: C_7  and  N_8 
REMARK       I    between atoms: N_8  and  C_9 
REMARK    4  A    between atoms: C_9  and  C_10 
REMARK    5  A    between atoms: C_11  and  N_12 
REMARK       I    between atoms: N_12  and  C_13 
REMARK    6  A    between atoms: C_13  and  C_14 
REMARK    7  A    between atoms: C_14  and  N_15 
REMARK    8  A    between atoms: N_15  and  C_18 
REMARK    9  A    between atoms: C_18  and  C_19 
ROOT
HETATM    1  C   UNL     1       4.550  29.689  54.389  1.00  0.00     0.073 A 
HETATM    2  C   UNL     1       5.335  29.377  55.508  1.00  0.00     0.093 A 
HETATM    3  S   UNL     1       5.461  30.660  56.631  1.00  0.00    -0.075 SA
HETATM    4  C   UNL     1       4.540  31.642  55.652  1.00  0.00    -0.008 A 
HETATM    5  C   UNL     1       4.122  31.050  54.491  1.00  0.00    -0.026 A 
HETATM    6  C   UNL     1       3.341  32.025  53.677  1.00  0.00     0.041 C 
HETATM    7  C   UNL     1       3.662  33.386  54.367  1.00  0.00     0.010 C 
HETATM    8  C   UNL     1       4.113  33.052  55.816  1.00  0.00     0.047 C 
ENDROOT
BRANCH   2   9
HETATM    9  N   UNL     1       5.987  28.168  55.721  1.00  0.00    -0.319 N 
HETATM   10  C   UNL     1       7.186  27.766  55.183  1.00  0.00     0.248 C 
HETATM   11  O   UNL     1       7.972  28.399  54.479  1.00  0.00    -0.271 OA
HETATM   12  H   UNL     1       5.490  27.563  56.380  1.00  0.00     0.169 HD
BRANCH  10  13
HETATM   13  C   UNL     1       7.579  26.334  55.544  1.00  0.00     0.335 C 
BRANCH  13  14
HETATM   14  N   UNL     1       6.984  25.391  54.527  1.00  0.00    -0.059 N 
HETATM   15  H   UNL     1       6.463  24.684  55.081  1.00  0.00     0.278 HD
HETATM   16  H   UNL     1       6.234  25.864  54.008  1.00  0.00     0.278 HD
BRANCH  14  17
HETATM   17  C   UNL     1       7.907  24.677  53.602  1.00  0.00     0.215 C 
HETATM   18  C   UNL     1       7.550  25.000  52.151  1.00  0.00     0.045 C 
BRANCH  17  19
HETATM   19  C   UNL     1       7.874  23.194  53.899  1.00  0.00    -0.028 A 
HETATM   20  C   UNL     1       7.716  22.704  55.208  1.00  0.00     0.009 A 
HETATM   21  C   UNL     1       7.726  21.332  55.461  1.00  0.00     0.001 A 
HETATM   22  C   UNL     1       7.896  20.429  54.415  1.00  0.00     0.000 A 
HETATM   23  C   UNL     1       8.057  20.897  53.114  1.00  0.00     0.001 A 
HETATM   24  C   UNL     1       8.051  22.269  52.856  1.00  0.00     0.009 A 
ENDBRANCH  17  19
ENDBRANCH  14  17
ENDBRANCH  13  14
ENDBRANCH  10  13
ENDBRANCH   2   9
BRANCH   1  25
HETATM   25  C   UNL     1       4.283  28.685  53.341  1.00  0.00     0.259 C 
HETATM   26  N   UNL     1       4.427  29.147  52.049  1.00  0.00    -0.323 N 
HETATM   27  H   UNL     1       4.669  30.119  51.938  1.00  0.00     0.169 HD
HETATM   28  O   UNL     1       3.908  27.558  53.664  1.00  0.00    -0.267 OA
BRANCH  26  29
HETATM   29  C   UNL     1       4.166  28.464  50.844  1.00  0.00     0.035 A 
HETATM   30  C   UNL     1       3.049  28.684  50.037  1.00  0.00     0.032 A 
HETATM   31  C   UNL     1       2.898  27.993  48.825  1.00  0.00     0.039 A 
HETATM   32  C   UNL     1       3.862  27.076  48.411  1.00  0.00     0.068 A 
HETATM   33  C   UNL     1       4.957  26.825  49.234  1.00  0.00     0.039 A 
HETATM   34  C   UNL     1       5.112  27.515  50.439  1.00  0.00     0.032 A 
BRANCH  32  35
HETATM   35  O   UNL     1       3.843  26.360  47.248  1.00  0.00    -0.352 OA
BRANCH  35  36
HETATM   36  C   UNL     1       2.752  25.458  47.068  1.00  0.00     0.171 C 
HETATM   37  C   UNL     1       2.949  24.292  48.020  1.00  0.00     0.034 C 
ENDBRANCH  35  36
ENDBRANCH  32  35
ENDBRANCH  26  29
ENDBRANCH   1  25
TORSDOF 9
ENDMDL
