MODEL 1
REMARK VINA RESULT:      -8.3      0.000      0.000
REMARK  2 active torsions:
REMARK  status: ('A' for Active; 'I' for Inactive)
REMARK    1  A    between atoms: C_8  and  S_9 
REMARK    2  A    between atoms: S_9  and  C_10 
ROOT
HETATM    1  C   UNL     1       8.077  20.868  53.229  1.00  0.00     0.002 A 
HETATM    2  C   UNL     1       7.994  22.246  53.024  1.00  0.00     0.034 A 
HETATM    3  C   UNL     1       7.806  23.124  54.084  1.00  0.00     0.087 A 
HETATM    4  C   UNL     1       7.682  22.597  55.399  1.00  0.00     0.087 A 
HETATM    5  N   UNL     1       7.468  23.398  56.461  1.00  0.00    -0.231 NA
HETATM    6  C   UNL     1       7.347  24.723  56.226  1.00  0.00     0.167 A 
HETATM    7 CL   UNL     1       7.027  25.640  57.632  1.00  0.00    -0.059 Cl
HETATM    8  C   UNL     1       7.483  25.222  54.953  1.00  0.00     0.193 A 
HETATM    9  N   UNL     1       7.741  24.453  53.852  1.00  0.00    -0.232 NA
HETATM   10  C   UNL     1       7.782  21.225  55.590  1.00  0.00     0.034 A 
HETATM   11  C   UNL     1       7.979  20.356  54.516  1.00  0.00     0.002 A 
ENDROOT
BRANCH   8  12
HETATM   12  S   UNL     1       7.377  26.944  54.623  1.00  0.00     0.201 S 
HETATM   13  O   UNL     1       7.922  27.637  55.772  1.00  0.00    -0.221 OA
HETATM   14  O   UNL     1       7.872  27.177  53.280  1.00  0.00    -0.221 OA
BRANCH  12  15
HETATM   15  C   UNL     1       5.627  27.328  54.553  1.00  0.00     0.141 C 
HETATM   16  C   UNL     1       5.036  26.736  53.278  1.00  0.00     0.252 C 
HETATM   17  N   UNL     1       3.594  27.144  53.129  1.00  0.00    -0.074 N 
HETATM   18  H   UNL     1       3.022  26.725  53.878  1.00  0.00     0.277 HD
HETATM   19  H   UNL     1       3.226  26.746  52.251  1.00  0.00     0.277 HD
HETATM   20  C   UNL     1       3.386  28.624  53.101  1.00  0.00     0.232 C 
HETATM   21  C   UNL     1       3.940  29.220  54.386  1.00  0.00     0.029 C 
HETATM   22  C   UNL     1       5.408  28.849  54.594  1.00  0.00     0.024 C 
ENDBRANCH  12  15
ENDBRANCH   8  12
TORSDOF 2
ENDMDL
MODEL 2
REMARK VINA RESULT:      -8.2      2.743      3.553
REMARK  2 active torsions:
REMARK  status: ('A' for Active; 'I' for Inactive)
REMARK    1  A    between atoms: C_8  and  S_9 
REMARK    2  A    between atoms: S_9  and  C_10 
ROOT
HETATM    1  C   UNL     1       8.471  20.058  55.426  1.00  0.00     0.002 A 
HETATM    2  C   UNL     1       7.835  21.214  55.882  1.00  0.00     0.034 A 
HETATM    3  C   UNL     1       7.583  22.283  55.031  1.00  0.00     0.087 A 
HETATM    4  C   UNL     1       7.997  22.193  53.674  1.00  0.00     0.087 A 
HETATM    5  N   UNL     1       7.806  23.212  52.812  1.00  0.00    -0.231 NA
HETATM    6  C   UNL     1       7.230  24.334  53.293  1.00  0.00     0.167 A 
HETATM    7 CL   UNL     1       7.081  25.578  52.130  1.00  0.00    -0.059 Cl
HETATM    8  C   UNL     1       6.820  24.403  54.603  1.00  0.00     0.193 A 
HETATM    9  N   UNL     1       6.956  23.383  55.503  1.00  0.00    -0.232 NA
HETATM   10  C   UNL     1       8.615  21.032  53.230  1.00  0.00     0.034 A 
HETATM   11  C   UNL     1       8.855  19.963  54.095  1.00  0.00     0.002 A 
ENDROOT
BRANCH   8  12
HETATM   12  S   UNL     1       6.025  25.832  55.244  1.00  0.00     0.201 S 
HETATM   13  O   UNL     1       5.432  26.534  54.125  1.00  0.00    -0.221 OA
HETATM   14  O   UNL     1       5.245  25.433  56.401  1.00  0.00    -0.221 OA
BRANCH  12  15
HETATM   15  C   UNL     1       7.331  26.875  55.894  1.00  0.00     0.141 C 
HETATM   16  C   UNL     1       6.925  27.384  57.273  1.00  0.00     0.252 C 
HETATM   17  N   UNL     1       7.947  28.359  57.794  1.00  0.00    -0.074 N 
HETATM   18  H   UNL     1       8.845  27.882  57.967  1.00  0.00     0.277 HD
HETATM   19  H   UNL     1       7.639  28.702  58.717  1.00  0.00     0.277 HD
HETATM   20  C   UNL     1       8.164  29.538  56.902  1.00  0.00     0.232 C 
HETATM   21  C   UNL     1       8.605  29.043  55.534  1.00  0.00     0.029 C 
HETATM   22  C   UNL     1       7.603  28.051  54.943  1.00  0.00     0.024 C 
ENDBRANCH  12  15
ENDBRANCH   8  12
TORSDOF 2
ENDMDL
MODEL 3
REMARK VINA RESULT:      -8.2      3.021      3.750
REMARK  2 active torsions:
REMARK  status: ('A' for Active; 'I' for Inactive)
REMARK    1  A    between atoms: C_8  and  S_9 
REMARK    2  A    between atoms: S_9  and  C_10 
ROOT
HETATM    1  C   UNL     1       7.926  22.096  52.914  1.00  0.00     0.002 A 
HETATM    2  C   UNL     1       7.865  23.490  52.938  1.00  0.00     0.034 A 
HETATM    3  C   UNL     1       7.743  24.187  54.135  1.00  0.00     0.087 A 
HETATM    4  C   UNL     1       7.665  23.454  55.351  1.00  0.00     0.087 A 
HETATM    5  N   UNL     1       7.515  24.076  56.537  1.00  0.00    -0.231 NA
HETATM    6  C   UNL     1       7.413  25.423  56.526  1.00  0.00     0.167 A 
HETATM    7 CL   UNL     1       7.176  26.103  58.075  1.00  0.00    -0.059 Cl
HETATM    8  C   UNL     1       7.505  26.120  55.345  1.00  0.00     0.193 A 
HETATM    9  N   UNL     1       7.697  25.537  54.124  1.00  0.00    -0.232 NA
HETATM   10  C   UNL     1       7.742  22.069  55.312  1.00  0.00     0.034 A 
HETATM   11  C   UNL     1       7.872  21.384  54.104  1.00  0.00     0.002 A 
ENDROOT
BRANCH   8  12
HETATM   12  S   UNL     1       7.424  27.874  55.305  1.00  0.00     0.201 S 
HETATM   13  O   UNL     1       7.882  28.297  53.997  1.00  0.00    -0.221 OA
HETATM   14  O   UNL     1       6.136  28.278  55.835  1.00  0.00    -0.221 OA
BRANCH  12  15
HETATM   15  C   UNL     1       8.628  28.453  56.502  1.00  0.00     0.141 C 
HETATM   16  C   UNL     1       7.925  29.322  57.538  1.00  0.00     0.252 C 
HETATM   17  N   UNL     1       8.928  29.922  58.488  1.00  0.00    -0.074 N 
HETATM   18  H   UNL     1       9.374  29.184  59.053  1.00  0.00     0.277 HD
HETATM   19  H   UNL     1       8.428  30.519  59.165  1.00  0.00     0.277 HD
HETATM   20  C   UNL     1       9.976  30.747  57.814  1.00  0.00     0.232 C 
HETATM   21  C   UNL     1      10.708  29.879  56.803  1.00  0.00     0.029 C 
HETATM   22  C   UNL     1       9.744  29.244  55.801  1.00  0.00     0.024 C 
ENDBRANCH  12  15
ENDBRANCH   8  12
TORSDOF 2
ENDMDL
MODEL 4
REMARK VINA RESULT:      -8.2      2.929      3.793
REMARK  2 active torsions:
REMARK  status: ('A' for Active; 'I' for Inactive)
REMARK    1  A    between atoms: C_8  and  S_9 
REMARK    2  A    between atoms: S_9  and  C_10 
ROOT
HETATM    1  C   UNL     1       9.245  21.992  55.088  1.00  0.00     0.002 A 
HETATM    2  C   UNL     1       8.884  23.286  55.465  1.00  0.00     0.034 A 
HETATM    3  C   UNL     1       7.946  24.013  54.742  1.00  0.00     0.087 A 
HETATM    4  C   UNL     1       7.358  23.422  53.590  1.00  0.00     0.087 A 
HETATM    5  N   UNL     1       6.465  24.092  52.835  1.00  0.00    -0.231 NA
HETATM    6  C   UNL     1       6.169  25.359  53.197  1.00  0.00     0.167 A 
HETATM    7 CL   UNL     1       5.067  26.132  52.144  1.00  0.00    -0.059 Cl
HETATM    8  C   UNL     1       6.733  25.914  54.321  1.00  0.00     0.193 A 
HETATM    9  N   UNL     1       7.611  25.260  55.140  1.00  0.00    -0.232 NA
HETATM   10  C   UNL     1       7.715  22.128  53.237  1.00  0.00     0.034 A 
HETATM   11  C   UNL     1       8.653  21.408  53.976  1.00  0.00     0.002 A 
ENDROOT
BRANCH   8  12
HETATM   12  S   UNL     1       6.332  27.542  54.843  1.00  0.00     0.201 S 
HETATM   13  O   UNL     1       6.716  28.444  53.778  1.00  0.00    -0.221 OA
HETATM   14  O   UNL     1       4.986  27.523  55.385  1.00  0.00    -0.221 OA
BRANCH  12  15
HETATM   15  C   UNL     1       7.397  27.889  56.244  1.00  0.00     0.141 C 
HETATM   16  C   UNL     1       6.563  28.482  57.373  1.00  0.00     0.252 C 
HETATM   17  N   UNL     1       7.447  28.896  58.519  1.00  0.00    -0.074 N 
HETATM   18  H   UNL     1       7.887  28.070  58.951  1.00  0.00     0.277 HD
HETATM   19  H   UNL     1       6.860  29.311  59.259  1.00  0.00     0.277 HD
HETATM   20  C   UNL     1       8.499  29.888  58.139  1.00  0.00     0.232 C 
HETATM   21  C   UNL     1       9.361  29.292  57.038  1.00  0.00     0.029 C 
HETATM   22  C   UNL     1       8.521  28.856  55.837  1.00  0.00     0.024 C 
ENDBRANCH  12  15
ENDBRANCH   8  12
TORSDOF 2
ENDMDL
MODEL 5
REMARK VINA RESULT:      -8.0      1.595      2.082
REMARK  2 active torsions:
REMARK  status: ('A' for Active; 'I' for Inactive)
REMARK    1  A    between atoms: C_8  and  S_9 
REMARK    2  A    between atoms: S_9  and  C_10 
ROOT
HETATM    1  C   UNL     1       8.188  20.850  53.080  1.00  0.00     0.002 A 
HETATM    2  C   UNL     1       7.836  22.181  52.849  1.00  0.00     0.034 A 
HETATM    3  C   UNL     1       7.534  23.040  53.899  1.00  0.00     0.087 A 
HETATM    4  C   UNL     1       7.575  22.540  55.230  1.00  0.00     0.087 A 
HETATM    5  N   UNL     1       7.262  23.320  56.284  1.00  0.00    -0.231 NA
HETATM    6  C   UNL     1       6.881  24.590  56.027  1.00  0.00     0.167 A 
HETATM    7 CL   UNL     1       6.460  25.474  57.427  1.00  0.00    -0.059 Cl
HETATM    8  C   UNL     1       6.861  25.066  54.738  1.00  0.00     0.193 A 
HETATM    9  N   UNL     1       7.207  24.325  53.642  1.00  0.00    -0.232 NA
HETATM   10  C   UNL     1       7.941  21.218  55.445  1.00  0.00     0.034 A 
HETATM   11  C   UNL     1       8.249  20.369  54.381  1.00  0.00     0.002 A 
ENDROOT
BRANCH   8  12
HETATM   12  S   UNL     1       6.415  26.726  54.377  1.00  0.00     0.201 S 
HETATM   13  O   UNL     1       5.098  26.951  54.936  1.00  0.00    -0.221 OA
HETATM   14  O   UNL     1       7.544  27.577  54.704  1.00  0.00    -0.221 OA
BRANCH  12  15
HETATM   15  C   UNL     1       6.259  26.820  52.593  1.00  0.00     0.141 C 
HETATM   16  C   UNL     1       5.892  28.246  52.197  1.00  0.00     0.252 C 
HETATM   17  N   UNL     1       5.635  28.330  50.716  1.00  0.00    -0.074 N 
HETATM   18  H   UNL     1       6.502  28.147  50.189  1.00  0.00     0.277 HD
HETATM   19  H   UNL     1       5.371  29.298  50.479  1.00  0.00     0.277 HD
HETATM   20  C   UNL     1       4.552  27.415  50.240  1.00  0.00     0.232 C 
HETATM   21  C   UNL     1       4.925  25.986  50.598  1.00  0.00     0.029 C 
HETATM   22  C   UNL     1       5.193  25.830  52.095  1.00  0.00     0.024 C 
ENDBRANCH  12  15
ENDBRANCH   8  12
TORSDOF 2
ENDMDL
MODEL 6
REMARK VINA RESULT:      -7.6      3.108      6.151
REMARK  2 active torsions:
REMARK  status: ('A' for Active; 'I' for Inactive)
REMARK    1  A    between atoms: C_8  and  S_9 
REMARK    2  A    between atoms: S_9  and  C_10 
ROOT
HETATM    1  C   UNL     1       9.870  30.213  57.194  1.00  0.00     0.002 A 
HETATM    2  C   UNL     1       9.491  29.402  56.123  1.00  0.00     0.034 A 
HETATM    3  C   UNL     1       8.412  28.532  56.223  1.00  0.00     0.087 A 
HETATM    4  C   UNL     1       7.695  28.465  57.450  1.00  0.00     0.087 A 
HETATM    5  N   UNL     1       6.660  27.618  57.613  1.00  0.00    -0.231 NA
HETATM    6  C   UNL     1       6.344  26.813  56.575  1.00  0.00     0.167 A 
HETATM    7 CL   UNL     1       5.051  25.746  56.907  1.00  0.00    -0.059 Cl
HETATM    8  C   UNL     1       7.035  26.898  55.390  1.00  0.00     0.193 A 
HETATM    9  N   UNL     1       8.064  27.769  55.164  1.00  0.00    -0.232 NA
HETATM   10  C   UNL     1       8.075  29.288  58.501  1.00  0.00     0.034 A 
HETATM   11  C   UNL     1       9.156  30.162  58.383  1.00  0.00     0.002 A 
ENDROOT
BRANCH   8  12
HETATM   12  S   UNL     1       6.616  25.898  54.008  1.00  0.00     0.201 S 
HETATM   13  O   UNL     1       5.176  25.939  53.866  1.00  0.00    -0.221 OA
HETATM   14  O   UNL     1       7.507  26.244  52.916  1.00  0.00    -0.221 OA
BRANCH  12  15
HETATM   15  C   UNL     1       7.058  24.220  54.460  1.00  0.00     0.141 C 
HETATM   16  C   UNL     1       8.303  24.249  55.340  1.00  0.00     0.252 C 
HETATM   17  N   UNL     1       8.770  22.849  55.637  1.00  0.00    -0.074 N 
HETATM   18  H   UNL     1       8.076  22.354  56.216  1.00  0.00     0.277 HD
HETATM   19  H   UNL     1       9.622  22.899  56.216  1.00  0.00     0.277 HD
HETATM   20  C   UNL     1       9.075  22.044  54.415  1.00  0.00     0.232 C 
HETATM   21  C   UNL     1       7.828  21.978  53.548  1.00  0.00     0.029 C 
HETATM   22  C   UNL     1       7.306  23.372  53.202  1.00  0.00     0.024 C 
ENDBRANCH  12  15
ENDBRANCH   8  12
TORSDOF 2
ENDMDL
MODEL 7
REMARK VINA RESULT:      -7.4      1.716      2.494
REMARK  2 active torsions:
REMARK  status: ('A' for Active; 'I' for Inactive)
REMARK    1  A    between atoms: C_8  and  S_9 
REMARK    2  A    between atoms: S_9  and  C_10 
ROOT
HETATM    1  C   UNL     1       8.285  20.010  55.420  1.00  0.00     0.002 A 
HETATM    2  C   UNL     1       7.835  21.196  56.002  1.00  0.00     0.034 A 
HETATM    3  C   UNL     1       7.795  22.384  55.283  1.00  0.00     0.087 A 
HETATM    4  C   UNL     1       8.235  22.383  53.931  1.00  0.00     0.087 A 
HETATM    5  N   UNL     1       8.246  23.512  53.195  1.00  0.00    -0.231 NA
HETATM    6  C   UNL     1       7.848  24.653  53.799  1.00  0.00     0.167 A 
HETATM    7 CL   UNL     1       7.949  26.030  52.792  1.00  0.00    -0.059 Cl
HETATM    8  C   UNL     1       7.410  24.638  55.101  1.00  0.00     0.193 A 
HETATM    9  N   UNL     1       7.343  23.511  55.874  1.00  0.00    -0.232 NA
HETATM   10  C   UNL     1       8.666  21.194  53.360  1.00  0.00     0.034 A 
HETATM   11  C   UNL     1       8.694  20.007  54.093  1.00  0.00     0.002 A 
ENDROOT
BRANCH   8  12
HETATM   12  S   UNL     1       6.842  26.096  55.898  1.00  0.00     0.201 S 
HETATM   13  O   UNL     1       5.736  25.718  56.753  1.00  0.00    -0.221 OA
HETATM   14  O   UNL     1       7.997  26.811  56.407  1.00  0.00    -0.221 OA
BRANCH  12  15
HETATM   15  C   UNL     1       6.178  27.141  54.601  1.00  0.00     0.141 C 
HETATM   16  C   UNL     1       6.121  28.582  55.098  1.00  0.00     0.252 C 
HETATM   17  N   UNL     1       5.456  29.465  54.076  1.00  0.00    -0.074 N 
HETATM   18  H   UNL     1       6.032  29.525  53.223  1.00  0.00     0.277 HD
HETATM   19  H   UNL     1       5.414  30.427  54.446  1.00  0.00     0.277 HD
HETATM   20  C   UNL     1       4.069  29.035  53.721  1.00  0.00     0.232 C 
HETATM   21  C   UNL     1       4.119  27.611  53.189  1.00  0.00     0.029 C 
HETATM   22  C   UNL     1       4.778  26.658  54.186  1.00  0.00     0.024 C 
ENDBRANCH  12  15
ENDBRANCH   8  12
TORSDOF 2
ENDMDL
MODEL 8
REMARK VINA RESULT:      -7.3     10.554     12.432
REMARK  2 active torsions:
REMARK  status: ('A' for Active; 'I' for Inactive)
REMARK    1  A    between atoms: C_8  and  S_9 
REMARK    2  A    between atoms: S_9  and  C_10 
ROOT
HETATM    1  C   UNL     1       9.428  31.615  61.722  1.00  0.00     0.002 A 
HETATM    2  C   UNL     1       8.464  32.327  62.437  1.00  0.00     0.034 A 
HETATM    3  C   UNL     1       7.208  32.580  61.900  1.00  0.00     0.087 A 
HETATM    4  C   UNL     1       6.914  32.111  60.590  1.00  0.00     0.087 A 
HETATM    5  N   UNL     1       5.723  32.354  60.007  1.00  0.00    -0.231 NA
HETATM    6  C   UNL     1       4.826  33.084  60.705  1.00  0.00     0.167 A 
HETATM    7 CL   UNL     1       3.372  33.374  59.855  1.00  0.00    -0.059 Cl
HETATM    8  C   UNL     1       5.116  33.518  61.976  1.00  0.00     0.193 A 
HETATM    9  N   UNL     1       6.294  33.263  62.623  1.00  0.00    -0.232 NA
HETATM   10  C   UNL     1       7.877  31.392  59.896  1.00  0.00     0.034 A 
HETATM   11  C   UNL     1       9.132  31.139  60.452  1.00  0.00     0.002 A 
ENDROOT
BRANCH   8  12
HETATM   12  S   UNL     1       3.952  34.429  62.925  1.00  0.00     0.201 S 
HETATM   13  O   UNL     1       3.739  35.692  62.250  1.00  0.00    -0.221 OA
HETATM   14  O   UNL     1       2.854  33.543  63.262  1.00  0.00    -0.221 OA
BRANCH  12  15
HETATM   15  C   UNL     1       4.760  34.789  64.485  1.00  0.00     0.141 C 
HETATM   16  C   UNL     1       4.729  33.545  65.365  1.00  0.00     0.252 C 
HETATM   17  N   UNL     1       5.292  33.850  66.727  1.00  0.00    -0.074 N 
HETATM   18  H   UNL     1       6.297  34.074  66.660  1.00  0.00     0.277 HD
HETATM   19  H   UNL     1       5.242  32.998  67.306  1.00  0.00     0.277 HD
HETATM   20  C   UNL     1       4.576  34.950  67.442  1.00  0.00     0.232 C 
HETATM   21  C   UNL     1       4.633  36.207  66.589  1.00  0.00     0.029 C 
HETATM   22  C   UNL     1       4.066  35.966  65.190  1.00  0.00     0.024 C 
ENDBRANCH  12  15
ENDBRANCH   8  12
TORSDOF 2
ENDMDL
MODEL 9
REMARK VINA RESULT:      -7.3      2.216      5.934
REMARK  2 active torsions:
REMARK  status: ('A' for Active; 'I' for Inactive)
REMARK    1  A    between atoms: C_8  and  S_9 
REMARK    2  A    between atoms: S_9  and  C_10 
ROOT
HETATM    1  C   UNL     1       4.915  26.478  50.387  1.00  0.00     0.002 A 
HETATM    2  C   UNL     1       5.339  25.579  51.367  1.00  0.00     0.034 A 
HETATM    3  C   UNL     1       5.929  26.021  52.545  1.00  0.00     0.087 A 
HETATM    4  C   UNL     1       6.112  27.417  52.740  1.00  0.00     0.087 A 
HETATM    5  N   UNL     1       6.706  27.900  53.850  1.00  0.00    -0.231 NA
HETATM    6  C   UNL     1       7.146  27.004  54.760  1.00  0.00     0.167 A 
HETATM    7 CL   UNL     1       7.926  27.720  56.101  1.00  0.00    -0.059 Cl
HETATM    8  C   UNL     1       6.949  25.658  54.567  1.00  0.00     0.193 A 
HETATM    9  N   UNL     1       6.317  25.124  53.478  1.00  0.00    -0.232 NA
HETATM   10  C   UNL     1       5.672  28.300  51.764  1.00  0.00     0.034 A 
HETATM   11  C   UNL     1       5.075  27.843  50.589  1.00  0.00     0.002 A 
ENDROOT
BRANCH   8  12
HETATM   12  S   UNL     1       7.469  24.473  55.755  1.00  0.00     0.201 S 
HETATM   13  O   UNL     1       8.873  24.712  56.018  1.00  0.00    -0.221 OA
HETATM   14  O   UNL     1       6.483  24.439  56.818  1.00  0.00    -0.221 OA
BRANCH  12  15
HETATM   15  C   UNL     1       7.344  22.876  54.947  1.00  0.00     0.141 C 
HETATM   16  C   UNL     1       7.666  21.779  55.955  1.00  0.00     0.252 C 
HETATM   17  N   UNL     1       7.689  20.434  55.279  1.00  0.00    -0.074 N 
HETATM   18  H   UNL     1       6.746  20.185  54.942  1.00  0.00     0.277 HD
HETATM   19  H   UNL     1       7.927  19.714  55.978  1.00  0.00     0.277 HD
HETATM   20  C   UNL     1       8.668  20.342  54.154  1.00  0.00     0.232 C 
HETATM   21  C   UNL     1       8.333  21.409  53.124  1.00  0.00     0.029 C 
HETATM   22  C   UNL     1       8.302  22.805  53.747  1.00  0.00     0.024 C 
ENDBRANCH  12  15
ENDBRANCH   8  12
TORSDOF 2
ENDMDL
MODEL 10
REMARK VINA RESULT:      -7.1      3.998      5.152
REMARK  2 active torsions:
REMARK  status: ('A' for Active; 'I' for Inactive)
REMARK    1  A    between atoms: C_8  and  S_9 
REMARK    2  A    between atoms: S_9  and  C_10 
ROOT
HETATM    1  C   UNL     1       7.739  23.817  52.980  1.00  0.00     0.002 A 
HETATM    2  C   UNL     1       7.431  24.725  51.966  1.00  0.00     0.034 A 
HETATM    3  C   UNL     1       6.461  25.704  52.143  1.00  0.00     0.087 A 
HETATM    4  C   UNL     1       5.764  25.764  53.381  1.00  0.00     0.087 A 
HETATM    5  N   UNL     1       4.793  26.673  53.597  1.00  0.00    -0.231 NA
HETATM    6  C   UNL     1       4.486  27.509  52.582  1.00  0.00     0.167 A 
HETATM    7 CL   UNL     1       3.209  28.585  52.945  1.00  0.00    -0.059 Cl
HETATM    8  C   UNL     1       5.177  27.451  51.395  1.00  0.00     0.193 A 
HETATM    9  N   UNL     1       6.196  26.574  51.144  1.00  0.00    -0.232 NA
HETATM   10  C   UNL     1       6.091  24.864  54.386  1.00  0.00     0.034 A 
HETATM   11  C   UNL     1       7.073  23.891  54.196  1.00  0.00     0.002 A 
ENDROOT
BRANCH   8  12
HETATM   12  S   UNL     1       4.832  28.556  50.075  1.00  0.00     0.201 S 
HETATM   13  O   UNL     1       4.700  29.881  50.644  1.00  0.00    -0.221 OA
HETATM   14  O   UNL     1       5.760  28.272  48.996  1.00  0.00    -0.221 OA
BRANCH  12  15
HETATM   15  C   UNL     1       3.220  28.085  49.444  1.00  0.00     0.141 C 
HETATM   16  C   UNL     1       3.313  26.698  48.818  1.00  0.00     0.252 C 
HETATM   17  N   UNL     1       2.006  26.325  48.172  1.00  0.00    -0.074 N 
HETATM   18  H   UNL     1       1.269  26.219  48.885  1.00  0.00     0.277 HD
HETATM   19  H   UNL     1       2.103  25.393  47.741  1.00  0.00     0.277 HD
HETATM   20  C   UNL     1       1.557  27.287  47.120  1.00  0.00     0.232 C 
HETATM   21  C   UNL     1       1.426  28.668  47.743  1.00  0.00     0.029 C 
HETATM   22  C   UNL     1       2.727  29.112  48.412  1.00  0.00     0.024 C 
ENDBRANCH  12  15
ENDBRANCH   8  12
TORSDOF 2
ENDMDL
