MODEL 1
REMARK VINA RESULT:     -10.0      0.000      0.000
REMARK  4 active torsions:
REMARK  status: ('A' for Active; 'I' for Inactive)
REMARK    1  A    between atoms: C_5  and  C_6 
REMARK    2  A    between atoms: C_6  and  N_7 
REMARK       I    between atoms: N_7  and  C_8 
REMARK    3  A    between atoms: C_8  and  C_10 
REMARK    4  A    between atoms: C_16  and  C_20 
ROOT
HETATM    1  C   UNL     1       5.771  26.672  52.799  1.00  0.00     0.059 A 
HETATM    2  C   UNL     1       5.086  26.835  53.991  1.00  0.00     0.106 A 
HETATM    3  N   UNL     1       5.318  25.750  54.786  1.00  0.00    -0.364 N 
HETATM    4  H   UNL     1       4.933  25.611  55.710  1.00  0.00     0.165 HD
HETATM    5  C   UNL     1       6.174  24.878  54.155  1.00  0.00     0.044 A 
HETATM    6  C   UNL     1       6.686  23.649  54.601  1.00  0.00     0.042 A 
HETATM    7  C   UNL     1       7.586  22.958  53.775  1.00  0.00    -0.021 A 
HETATM    8  C   UNL     1       7.951  23.513  52.545  1.00  0.00     0.013 A 
HETATM    9  C   UNL     1       7.428  24.742  52.112  1.00  0.00     0.016 A 
HETATM   10  C   UNL     1       6.502  25.438  52.918  1.00  0.00     0.008 A 
ENDROOT
BRANCH   1  11
HETATM   11  C   UNL     1       5.705  27.641  51.708  1.00  0.00     0.254 C 
HETATM   12  N   UNL     1       5.469  27.100  50.466  1.00  0.00    -0.353 N 
HETATM   13  H   UNL     1       5.269  26.115  50.396  1.00  0.00     0.163 HD
HETATM   14  O   UNL     1       5.794  28.850  51.901  1.00  0.00    -0.268 OA
BRANCH  12  15
HETATM   15  C   UNL     1       5.335  27.920  49.290  1.00  0.00     0.161 C 
BRANCH  15  16
HETATM   16  C   UNL     1       4.060  27.607  48.548  1.00  0.00    -0.037 A 
HETATM   17  C   UNL     1       2.972  28.495  48.606  1.00  0.00     0.012 A 
HETATM   18  C   UNL     1       1.790  28.220  47.913  1.00  0.00     0.046 A 
HETATM   19  C   UNL     1       1.698  27.060  47.151  1.00  0.00     0.154 A 
HETATM   20  F   UNL     1       0.563  26.798  46.488  1.00  0.00    -0.203 F 
HETATM   21  C   UNL     1       2.773  26.183  47.074  1.00  0.00     0.155 A 
HETATM   22  C   UNL     1       3.953  26.449  47.764  1.00  0.00     0.054 A 
HETATM   23  F   UNL     1       2.683  25.071  46.333  1.00  0.00    -0.203 F 
ENDBRANCH  15  16
ENDBRANCH  12  15
ENDBRANCH   1  11
BRANCH   7  24
HETATM   24  C   UNL     1       8.128  21.681  54.212  1.00  0.00     0.010 A 
HETATM   25  C   UNL     1       8.563  20.558  53.468  1.00  0.00     0.152 A 
HETATM   26  N   UNL     1       8.986  19.555  54.242  1.00  0.00    -0.187 NA
HETATM   27  N   UNL     1       8.820  20.028  55.486  1.00  0.00    -0.289 N 
HETATM   28  H   UNL     1       9.073  19.430  56.265  1.00  0.00     0.188 HD
HETATM   29  C   UNL     1       8.311  21.294  55.523  1.00  0.00     0.123 A 
ENDBRANCH   7  24
TORSDOF 4
ENDMDL
MODEL 2
REMARK VINA RESULT:      -9.6      5.455      8.574
REMARK  4 active torsions:
REMARK  status: ('A' for Active; 'I' for Inactive)
REMARK    1  A    between atoms: C_5  and  C_6 
REMARK    2  A    between atoms: C_6  and  N_7 
REMARK       I    between atoms: N_7  and  C_8 
REMARK    3  A    between atoms: C_8  and  C_10 
REMARK    4  A    between atoms: C_16  and  C_20 
ROOT
HETATM    1  C   UNL     1       5.896  27.134  55.442  1.00  0.00     0.059 A 
HETATM    2  C   UNL     1       4.661  27.422  55.999  1.00  0.00     0.106 A 
HETATM    3  N   UNL     1       4.834  28.306  57.024  1.00  0.00    -0.364 N 
HETATM    4  H   UNL     1       4.095  28.677  57.604  1.00  0.00     0.165 HD
HETATM    5  C   UNL     1       6.164  28.637  57.142  1.00  0.00     0.044 A 
HETATM    6  C   UNL     1       6.790  29.509  58.047  1.00  0.00     0.042 A 
HETATM    7  C   UNL     1       8.174  29.710  57.935  1.00  0.00    -0.021 A 
HETATM    8  C   UNL     1       8.884  29.048  56.928  1.00  0.00     0.013 A 
HETATM    9  C   UNL     1       8.243  28.177  56.033  1.00  0.00     0.016 A 
HETATM   10  C   UNL     1       6.856  27.943  56.146  1.00  0.00     0.008 A 
ENDROOT
BRANCH   1  11
HETATM   11  C   UNL     1       6.068  26.188  54.342  1.00  0.00     0.254 C 
HETATM   12  N   UNL     1       7.357  25.747  54.154  1.00  0.00    -0.353 N 
HETATM   13  H   UNL     1       8.065  26.017  54.819  1.00  0.00     0.163 HD
HETATM   14  O   UNL     1       5.121  25.777  53.679  1.00  0.00    -0.268 OA
BRANCH  12  15
HETATM   15  C   UNL     1       7.692  24.782  53.139  1.00  0.00     0.161 C 
BRANCH  15  16
HETATM   16  C   UNL     1       7.857  23.404  53.728  1.00  0.00    -0.037 A 
HETATM   17  C   UNL     1       7.847  23.226  55.122  1.00  0.00     0.012 A 
HETATM   18  C   UNL     1       7.987  21.951  55.679  1.00  0.00     0.046 A 
HETATM   19  C   UNL     1       8.127  20.851  54.841  1.00  0.00     0.154 A 
HETATM   20  F   UNL     1       8.262  19.630  55.377  1.00  0.00    -0.203 F 
HETATM   21  C   UNL     1       8.123  21.014  53.461  1.00  0.00     0.155 A 
HETATM   22  C   UNL     1       7.987  22.280  52.899  1.00  0.00     0.054 A 
HETATM   23  F   UNL     1       8.251  19.950  52.657  1.00  0.00    -0.203 F 
ENDBRANCH  15  16
ENDBRANCH  12  15
ENDBRANCH   1  11
BRANCH   7  24
HETATM   24  C   UNL     1       8.849  30.605  58.862  1.00  0.00     0.010 A 
HETATM   25  C   UNL     1       9.856  31.575  58.643  1.00  0.00     0.152 A 
HETATM   26  N   UNL     1      10.236  32.192  59.765  1.00  0.00    -0.187 NA
HETATM   27  N   UNL     1       9.477  31.617  60.710  1.00  0.00    -0.289 N 
HETATM   28  H   UNL     1       9.591  31.923  61.671  1.00  0.00     0.188 HD
HETATM   29  C   UNL     1       8.631  30.663  60.222  1.00  0.00     0.123 A 
ENDBRANCH   7  24
TORSDOF 4
ENDMDL
MODEL 3
REMARK VINA RESULT:      -9.5      6.595      8.799
REMARK  4 active torsions:
REMARK  status: ('A' for Active; 'I' for Inactive)
REMARK    1  A    between atoms: C_5  and  C_6 
REMARK    2  A    between atoms: C_6  and  N_7 
REMARK       I    between atoms: N_7  and  C_8 
REMARK    3  A    between atoms: C_8  and  C_10 
REMARK    4  A    between atoms: C_16  and  C_20 
ROOT
HETATM    1  C   UNL     1       6.739  27.519  55.452  1.00  0.00     0.059 A 
HETATM    2  C   UNL     1       7.193  28.035  54.249  1.00  0.00     0.106 A 
HETATM    3  N   UNL     1       7.686  27.014  53.489  1.00  0.00    -0.364 N 
HETATM    4  H   UNL     1       8.086  27.115  52.567  1.00  0.00     0.165 HD
HETATM    5  C   UNL     1       7.541  25.819  54.154  1.00  0.00     0.044 A 
HETATM    6  C   UNL     1       7.899  24.523  53.749  1.00  0.00     0.042 A 
HETATM    7  C   UNL     1       7.605  23.449  54.603  1.00  0.00    -0.021 A 
HETATM    8  C   UNL     1       6.962  23.697  55.820  1.00  0.00     0.013 A 
HETATM    9  C   UNL     1       6.613  24.999  56.211  1.00  0.00     0.016 A 
HETATM   10  C   UNL     1       6.923  26.094  55.376  1.00  0.00     0.008 A 
ENDROOT
BRANCH   1  11
HETATM   11  C   UNL     1       6.182  28.356  56.513  1.00  0.00     0.254 C 
HETATM   12  N   UNL     1       6.618  29.659  56.511  1.00  0.00    -0.353 N 
HETATM   13  H   UNL     1       7.200  29.976  55.751  1.00  0.00     0.163 HD
HETATM   14  O   UNL     1       5.344  27.935  57.305  1.00  0.00    -0.268 OA
BRANCH  12  15
HETATM   15  C   UNL     1       6.136  30.626  57.464  1.00  0.00     0.161 C 
BRANCH  15  16
HETATM   16  C   UNL     1       7.221  31.028  58.430  1.00  0.00    -0.037 A 
HETATM   17  C   UNL     1       8.520  30.507  58.292  1.00  0.00     0.012 A 
HETATM   18  C   UNL     1       9.536  30.881  59.175  1.00  0.00     0.046 A 
HETATM   19  C   UNL     1       9.259  31.787  60.192  1.00  0.00     0.154 A 
HETATM   20  F   UNL     1      10.234  32.144  61.039  1.00  0.00    -0.203 F 
HETATM   21  C   UNL     1       7.983  32.320  60.329  1.00  0.00     0.155 A 
HETATM   22  C   UNL     1       6.964  31.950  59.455  1.00  0.00     0.054 A 
HETATM   23  F   UNL     1       7.720  33.198  61.307  1.00  0.00    -0.203 F 
ENDBRANCH  15  16
ENDBRANCH  12  15
ENDBRANCH   1  11
BRANCH   7  24
HETATM   24  C   UNL     1       7.969  22.096  54.210  1.00  0.00     0.010 A 
HETATM   25  C   UNL     1       8.396  20.992  54.984  1.00  0.00     0.152 A 
HETATM   26  N   UNL     1       8.655  19.909  54.246  1.00  0.00    -0.187 NA
HETATM   27  N   UNL     1       8.399  20.316  52.993  1.00  0.00    -0.289 N 
HETATM   28  H   UNL     1       8.532  19.654  52.236  1.00  0.00     0.188 HD
HETATM   29  C   UNL     1       7.986  21.615  52.918  1.00  0.00     0.123 A 
ENDBRANCH   7  24
TORSDOF 4
ENDMDL
MODEL 4
REMARK VINA RESULT:      -9.3      5.163      7.339
REMARK  4 active torsions:
REMARK  status: ('A' for Active; 'I' for Inactive)
REMARK    1  A    between atoms: C_5  and  C_6 
REMARK    2  A    between atoms: C_6  and  N_7 
REMARK       I    between atoms: N_7  and  C_8 
REMARK    3  A    between atoms: C_8  and  C_10 
REMARK    4  A    between atoms: C_16  and  C_20 
ROOT
HETATM    1  C   UNL     1       5.951  26.985  53.304  1.00  0.00     0.059 A 
HETATM    2  C   UNL     1       5.976  26.923  51.921  1.00  0.00     0.106 A 
HETATM    3  N   UNL     1       6.511  25.726  51.541  1.00  0.00    -0.364 N 
HETATM    4  H   UNL     1       6.650  25.427  50.586  1.00  0.00     0.165 HD
HETATM    5  C   UNL     1       6.816  24.973  52.651  1.00  0.00     0.044 A 
HETATM    6  C   UNL     1       7.372  23.687  52.732  1.00  0.00     0.042 A 
HETATM    7  C   UNL     1       7.552  23.113  54.000  1.00  0.00    -0.021 A 
HETATM    8  C   UNL     1       7.167  23.830  55.137  1.00  0.00     0.013 A 
HETATM    9  C   UNL     1       6.615  25.117  55.040  1.00  0.00     0.016 A 
HETATM   10  C   UNL     1       6.451  25.720  53.774  1.00  0.00     0.008 A 
ENDROOT
BRANCH   1  11
HETATM   11  C   UNL     1       5.470  28.154  54.037  1.00  0.00     0.254 C 
HETATM   12  N   UNL     1       5.837  28.198  55.360  1.00  0.00    -0.353 N 
HETATM   13  H   UNL     1       6.471  27.498  55.713  1.00  0.00     0.163 HD
HETATM   14  O   UNL     1       4.839  29.053  53.491  1.00  0.00    -0.268 OA
BRANCH  12  15
HETATM   15  C   UNL     1       5.480  29.302  56.215  1.00  0.00     0.161 C 
BRANCH  15  16
HETATM   16  C   UNL     1       6.667  29.782  57.011  1.00  0.00    -0.037 A 
HETATM   17  C   UNL     1       6.517  30.823  57.945  1.00  0.00     0.012 A 
HETATM   18  C   UNL     1       7.607  31.268  58.697  1.00  0.00     0.046 A 
HETATM   19  C   UNL     1       8.849  30.667  58.524  1.00  0.00     0.154 A 
HETATM   20  F   UNL     1       9.893  31.096  59.245  1.00  0.00    -0.203 F 
HETATM   21  C   UNL     1       9.005  29.628  57.615  1.00  0.00     0.155 A 
HETATM   22  C   UNL     1       7.924  29.180  56.860  1.00  0.00     0.054 A 
HETATM   23  F   UNL     1      10.201  29.045  57.456  1.00  0.00    -0.203 F 
ENDBRANCH  15  16
ENDBRANCH  12  15
ENDBRANCH   1  11
BRANCH   7  24
HETATM   24  C   UNL     1       8.129  21.782  54.112  1.00  0.00     0.010 A 
HETATM   25  C   UNL     1       8.363  20.791  53.130  1.00  0.00     0.152 A 
HETATM   26  N   UNL     1       8.903  19.677  53.635  1.00  0.00    -0.187 NA
HETATM   27  N   UNL     1       9.013  19.949  54.944  1.00  0.00    -0.289 N 
HETATM   28  H   UNL     1       9.401  19.236  55.552  1.00  0.00     0.188 HD
HETATM   29  C   UNL     1       8.565  21.194  55.280  1.00  0.00     0.123 A 
ENDBRANCH   7  24
TORSDOF 4
ENDMDL
MODEL 5
REMARK VINA RESULT:      -9.3      9.142     11.631
REMARK  4 active torsions:
REMARK  status: ('A' for Active; 'I' for Inactive)
REMARK    1  A    between atoms: C_5  and  C_6 
REMARK    2  A    between atoms: C_6  and  N_7 
REMARK       I    between atoms: N_7  and  C_8 
REMARK    3  A    between atoms: C_8  and  C_10 
REMARK    4  A    between atoms: C_16  and  C_20 
ROOT
HETATM    1  C   UNL     1       6.896  30.582  58.334  1.00  0.00     0.059 A 
HETATM    2  C   UNL     1       5.719  31.066  57.788  1.00  0.00     0.106 A 
HETATM    3  N   UNL     1       5.248  30.162  56.881  1.00  0.00    -0.364 N 
HETATM    4  H   UNL     1       4.406  30.271  56.333  1.00  0.00     0.165 HD
HETATM    5  C   UNL     1       6.076  29.065  56.835  1.00  0.00     0.044 A 
HETATM    6  C   UNL     1       5.974  27.901  56.057  1.00  0.00     0.042 A 
HETATM    7  C   UNL     1       6.939  26.896  56.224  1.00  0.00    -0.021 A 
HETATM    8  C   UNL     1       7.963  27.078  57.160  1.00  0.00     0.013 A 
HETATM    9  C   UNL     1       8.052  28.249  57.928  1.00  0.00     0.016 A 
HETATM   10  C   UNL     1       7.105  29.281  57.755  1.00  0.00     0.008 A 
ENDROOT
BRANCH   1  11
HETATM   11  C   UNL     1       7.680  31.328  59.316  1.00  0.00     0.254 C 
HETATM   12  N   UNL     1       7.631  30.828  60.596  1.00  0.00    -0.353 N 
HETATM   13  H   UNL     1       7.153  29.955  60.759  1.00  0.00     0.163 HD
HETATM   14  O   UNL     1       8.374  32.290  59.004  1.00  0.00    -0.268 OA
BRANCH  12  15
HETATM   15  C   UNL     1       8.378  31.421  61.675  1.00  0.00     0.161 C 
BRANCH  15  16
HETATM   16  C   UNL     1       7.460  32.048  62.694  1.00  0.00    -0.037 A 
HETATM   17  C   UNL     1       6.071  31.856  62.607  1.00  0.00     0.012 A 
HETATM   18  C   UNL     1       5.212  32.423  63.553  1.00  0.00     0.046 A 
HETATM   19  C   UNL     1       5.743  33.175  64.595  1.00  0.00     0.154 A 
HETATM   20  F   UNL     1       4.918  33.720  65.500  1.00  0.00    -0.203 F 
HETATM   21  C   UNL     1       7.116  33.360  64.698  1.00  0.00     0.155 A 
HETATM   22  C   UNL     1       7.978  32.800  63.759  1.00  0.00     0.054 A 
HETATM   23  F   UNL     1       7.625  34.080  65.707  1.00  0.00    -0.203 F 
ENDBRANCH  15  16
ENDBRANCH  12  15
ENDBRANCH   1  11
BRANCH   7  24
HETATM   24  C   UNL     1       6.859  25.682  55.428  1.00  0.00     0.010 A 
HETATM   25  C   UNL     1       6.407  25.473  54.103  1.00  0.00     0.152 A 
HETATM   26  N   UNL     1       6.475  24.193  53.726  1.00  0.00    -0.187 NA
HETATM   27  N   UNL     1       6.966  23.574  54.810  1.00  0.00    -0.289 N 
HETATM   28  H   UNL     1       7.105  22.570  54.769  1.00  0.00     0.188 HD
HETATM   29  C   UNL     1       7.214  24.419  55.854  1.00  0.00     0.123 A 
ENDBRANCH   7  24
TORSDOF 4
ENDMDL
MODEL 6
REMARK VINA RESULT:      -9.2      2.029      2.535
REMARK  4 active torsions:
REMARK  status: ('A' for Active; 'I' for Inactive)
REMARK    1  A    between atoms: C_5  and  C_6 
REMARK    2  A    between atoms: C_6  and  N_7 
REMARK       I    between atoms: N_7  and  C_8 
REMARK    3  A    between atoms: C_8  and  C_10 
REMARK    4  A    between atoms: C_16  and  C_20 
ROOT
HETATM    1  C   UNL     1       5.529  26.769  54.282  1.00  0.00     0.059 A 
HETATM    2  C   UNL     1       5.328  26.849  55.650  1.00  0.00     0.106 A 
HETATM    3  N   UNL     1       5.799  25.710  56.234  1.00  0.00    -0.364 N 
HETATM    4  H   UNL     1       5.770  25.507  57.223  1.00  0.00     0.165 HD
HETATM    5  C   UNL     1       6.342  24.881  55.279  1.00  0.00     0.044 A 
HETATM    6  C   UNL     1       6.943  23.621  55.428  1.00  0.00     0.042 A 
HETATM    7  C   UNL     1       7.461  22.988  54.288  1.00  0.00    -0.021 A 
HETATM    8  C   UNL     1       7.373  23.628  53.048  1.00  0.00     0.013 A 
HETATM    9  C   UNL     1       6.766  24.886  52.916  1.00  0.00     0.016 A 
HETATM   10  C   UNL     1       6.216  25.527  54.047  1.00  0.00     0.008 A 
ENDROOT
BRANCH   1  11
HETATM   11  C   UNL     1       5.101  27.815  53.356  1.00  0.00     0.254 C 
HETATM   12  N   UNL     1       3.929  27.552  52.687  1.00  0.00    -0.353 N 
HETATM   13  H   UNL     1       3.403  26.729  52.935  1.00  0.00     0.163 HD
HETATM   14  O   UNL     1       5.715  28.871  53.233  1.00  0.00    -0.268 OA
BRANCH  12  15
HETATM   15  C   UNL     1       3.347  28.496  51.768  1.00  0.00     0.161 C 
BRANCH  15  16
HETATM   16  C   UNL     1       3.993  28.403  50.408  1.00  0.00    -0.037 A 
HETATM   17  C   UNL     1       4.288  27.147  49.850  1.00  0.00     0.012 A 
HETATM   18  C   UNL     1       4.876  27.049  48.586  1.00  0.00     0.046 A 
HETATM   19  C   UNL     1       5.160  28.208  47.872  1.00  0.00     0.154 A 
HETATM   20  F   UNL     1       5.725  28.112  46.661  1.00  0.00    -0.203 F 
HETATM   21  C   UNL     1       4.859  29.454  48.408  1.00  0.00     0.155 A 
HETATM   22  C   UNL     1       4.276  29.560  49.668  1.00  0.00     0.054 A 
HETATM   23  F   UNL     1       5.128  30.569  47.715  1.00  0.00    -0.203 F 
ENDBRANCH  15  16
ENDBRANCH  12  15
ENDBRANCH   1  11
BRANCH   7  24
HETATM   24  C   UNL     1       8.086  21.680  54.414  1.00  0.00     0.010 A 
HETATM   25  C   UNL     1       8.368  20.693  53.439  1.00  0.00     0.152 A 
HETATM   26  N   UNL     1       8.943  19.603  53.955  1.00  0.00    -0.187 NA
HETATM   27  N   UNL     1       9.029  19.885  55.264  1.00  0.00    -0.289 N 
HETATM   28  H   UNL     1       9.436  19.189  55.880  1.00  0.00     0.188 HD
HETATM   29  C   UNL     1       8.532  21.114  55.590  1.00  0.00     0.123 A 
ENDBRANCH   7  24
TORSDOF 4
ENDMDL
MODEL 7
REMARK VINA RESULT:      -9.0      5.833      8.839
REMARK  4 active torsions:
REMARK  status: ('A' for Active; 'I' for Inactive)
REMARK    1  A    between atoms: C_5  and  C_6 
REMARK    2  A    between atoms: C_6  and  N_7 
REMARK       I    between atoms: N_7  and  C_8 
REMARK    3  A    between atoms: C_8  and  C_10 
REMARK    4  A    between atoms: C_16  and  C_20 
ROOT
HETATM    1  C   UNL     1       5.750  28.637  55.078  1.00  0.00     0.059 A 
HETATM    2  C   UNL     1       4.796  29.625  54.894  1.00  0.00     0.106 A 
HETATM    3  N   UNL     1       4.899  30.532  55.908  1.00  0.00    -0.364 N 
HETATM    4  H   UNL     1       4.316  31.351  56.019  1.00  0.00     0.165 HD
HETATM    5  C   UNL     1       5.928  30.183  56.750  1.00  0.00     0.044 A 
HETATM    6  C   UNL     1       6.392  30.828  57.908  1.00  0.00     0.042 A 
HETATM    7  C   UNL     1       7.499  30.286  58.579  1.00  0.00    -0.021 A 
HETATM    8  C   UNL     1       8.110  29.133  58.074  1.00  0.00     0.013 A 
HETATM    9  C   UNL     1       7.632  28.499  56.917  1.00  0.00     0.016 A 
HETATM   10  C   UNL     1       6.504  29.016  56.244  1.00  0.00     0.008 A 
ENDROOT
BRANCH   1  11
HETATM   11  C   UNL     1       5.885  27.490  54.183  1.00  0.00     0.254 C 
HETATM   12  N   UNL     1       5.242  26.350  54.605  1.00  0.00    -0.353 N 
HETATM   13  H   UNL     1       4.659  26.396  55.426  1.00  0.00     0.163 HD
HETATM   14  O   UNL     1       6.477  27.562  53.111  1.00  0.00    -0.268 OA
BRANCH  12  15
HETATM   15  C   UNL     1       5.241  25.141  53.821  1.00  0.00     0.161 C 
BRANCH  15  16
HETATM   16  C   UNL     1       6.458  24.299  54.115  1.00  0.00    -0.037 A 
HETATM   17  C   UNL     1       7.128  23.638  53.071  1.00  0.00     0.012 A 
HETATM   18  C   UNL     1       8.263  22.865  53.330  1.00  0.00     0.046 A 
HETATM   19  C   UNL     1       8.737  22.760  54.633  1.00  0.00     0.154 A 
HETATM   20  F   UNL     1       9.825  22.018  54.879  1.00  0.00    -0.203 F 
HETATM   21  C   UNL     1       8.091  23.422  55.670  1.00  0.00     0.155 A 
HETATM   22  C   UNL     1       6.958  24.192  55.420  1.00  0.00     0.054 A 
HETATM   23  F   UNL     1       8.555  23.325  56.923  1.00  0.00    -0.203 F 
ENDBRANCH  15  16
ENDBRANCH  12  15
ENDBRANCH   1  11
BRANCH   7  24
HETATM   24  C   UNL     1       7.998  30.932  59.783  1.00  0.00     0.010 A 
HETATM   25  C   UNL     1       9.112  30.628  60.602  1.00  0.00     0.152 A 
HETATM   26  N   UNL     1       9.232  31.456  61.643  1.00  0.00    -0.187 NA
HETATM   27  N   UNL     1       8.193  32.292  61.500  1.00  0.00    -0.289 N 
HETATM   28  H   UNL     1       8.066  33.024  62.190  1.00  0.00     0.188 HD
HETATM   29  C   UNL     1       7.425  32.022  60.404  1.00  0.00     0.123 A 
ENDBRANCH   7  24
TORSDOF 4
ENDMDL
MODEL 8
REMARK VINA RESULT:      -8.9      2.370      3.228
REMARK  4 active torsions:
REMARK  status: ('A' for Active; 'I' for Inactive)
REMARK    1  A    between atoms: C_5  and  C_6 
REMARK    2  A    between atoms: C_6  and  N_7 
REMARK       I    between atoms: N_7  and  C_8 
REMARK    3  A    between atoms: C_8  and  C_10 
REMARK    4  A    between atoms: C_16  and  C_20 
ROOT
HETATM    1  C   UNL     1       6.676  26.946  56.169  1.00  0.00     0.059 A 
HETATM    2  C   UNL     1       7.260  26.969  57.424  1.00  0.00     0.106 A 
HETATM    3  N   UNL     1       7.853  25.763  57.658  1.00  0.00    -0.364 N 
HETATM    4  H   UNL     1       8.346  25.510  58.504  1.00  0.00     0.165 HD
HETATM    5  C   UNL     1       7.701  24.943  56.565  1.00  0.00     0.044 A 
HETATM    6  C   UNL     1       8.153  23.629  56.364  1.00  0.00     0.042 A 
HETATM    7  C   UNL     1       7.901  23.015  55.128  1.00  0.00    -0.021 A 
HETATM    8  C   UNL     1       7.218  23.726  54.136  1.00  0.00     0.013 A 
HETATM    9  C   UNL     1       6.770  25.038  54.353  1.00  0.00     0.016 A 
HETATM   10  C   UNL     1       6.993  25.663  55.599  1.00  0.00     0.008 A 
ENDROOT
BRANCH   1  11
HETATM   11  C   UNL     1       5.923  28.073  55.624  1.00  0.00     0.254 C 
HETATM   12  N   UNL     1       5.022  27.745  54.640  1.00  0.00    -0.353 N 
HETATM   13  H   UNL     1       4.868  26.772  54.425  1.00  0.00     0.163 HD
HETATM   14  O   UNL     1       6.050  29.214  56.058  1.00  0.00    -0.268 OA
BRANCH  12  15
HETATM   15  C   UNL     1       4.171  28.732  54.025  1.00  0.00     0.161 C 
BRANCH  15  16
HETATM   16  C   UNL     1       4.000  28.463  52.551  1.00  0.00    -0.037 A 
HETATM   17  C   UNL     1       3.079  29.213  51.798  1.00  0.00     0.012 A 
HETATM   18  C   UNL     1       2.920  28.980  50.429  1.00  0.00     0.046 A 
HETATM   19  C   UNL     1       3.690  28.003  49.808  1.00  0.00     0.154 A 
HETATM   20  F   UNL     1       3.536  27.780  48.496  1.00  0.00    -0.203 F 
HETATM   21  C   UNL     1       4.613  27.266  50.540  1.00  0.00     0.155 A 
HETATM   22  C   UNL     1       4.776  27.491  51.904  1.00  0.00     0.054 A 
HETATM   23  F   UNL     1       5.359  26.330  49.936  1.00  0.00    -0.203 F 
ENDBRANCH  15  16
ENDBRANCH  12  15
ENDBRANCH   1  11
BRANCH   7  24
HETATM   24  C   UNL     1       8.355  21.653  54.895  1.00  0.00     0.010 A 
HETATM   25  C   UNL     1       8.359  20.868  53.717  1.00  0.00     0.152 A 
HETATM   26  N   UNL     1       8.849  19.641  53.912  1.00  0.00    -0.187 NA
HETATM   27  N   UNL     1       9.159  19.631  55.217  1.00  0.00    -0.289 N 
HETATM   28  H   UNL     1       9.553  18.784  55.612  1.00  0.00     0.188 HD
HETATM   29  C   UNL     1       8.884  20.809  55.850  1.00  0.00     0.123 A 
ENDBRANCH   7  24
TORSDOF 4
ENDMDL
MODEL 9
REMARK VINA RESULT:      -8.6      2.115      2.560
REMARK  4 active torsions:
REMARK  status: ('A' for Active; 'I' for Inactive)
REMARK    1  A    between atoms: C_5  and  C_6 
REMARK    2  A    between atoms: C_6  and  N_7 
REMARK       I    between atoms: N_7  and  C_8 
REMARK    3  A    between atoms: C_8  and  C_10 
REMARK    4  A    between atoms: C_16  and  C_20 
ROOT
HETATM    1  C   UNL     1       5.485  26.202  52.276  1.00  0.00     0.059 A 
HETATM    2  C   UNL     1       4.778  26.585  53.403  1.00  0.00     0.106 A 
HETATM    3  N   UNL     1       5.077  25.731  54.424  1.00  0.00    -0.364 N 
HETATM    4  H   UNL     1       4.692  25.781  55.357  1.00  0.00     0.165 HD
HETATM    5  C   UNL     1       5.999  24.801  54.005  1.00  0.00     0.044 A 
HETATM    6  C   UNL     1       6.591  23.746  54.718  1.00  0.00     0.042 A 
HETATM    7  C   UNL     1       7.546  22.950  54.068  1.00  0.00    -0.021 A 
HETATM    8  C   UNL     1       7.885  23.232  52.741  1.00  0.00     0.013 A 
HETATM    9  C   UNL     1       7.281  24.289  52.040  1.00  0.00     0.016 A 
HETATM   10  C   UNL     1       6.300  25.084  52.671  1.00  0.00     0.008 A 
ENDROOT
BRANCH   1  11
HETATM   11  C   UNL     1       5.363  26.889  50.992  1.00  0.00     0.254 C 
HETATM   12  N   UNL     1       4.381  26.398  50.165  1.00  0.00    -0.353 N 
HETATM   13  H   UNL     1       3.763  25.682  50.515  1.00  0.00     0.163 HD
HETATM   14  O   UNL     1       6.047  27.867  50.705  1.00  0.00    -0.268 OA
BRANCH  12  15
HETATM   15  C   UNL     1       4.102  26.986  48.880  1.00  0.00     0.161 C 
BRANCH  15  16
HETATM   16  C   UNL     1       3.345  28.282  49.025  1.00  0.00    -0.037 A 
HETATM   17  C   UNL     1       2.128  28.316  49.728  1.00  0.00     0.012 A 
HETATM   18  C   UNL     1       1.425  29.514  49.879  1.00  0.00     0.046 A 
HETATM   19  C   UNL     1       1.943  30.684  49.336  1.00  0.00     0.154 A 
HETATM   20  F   UNL     1       1.267  31.832  49.481  1.00  0.00    -0.203 F 
HETATM   21  C   UNL     1       3.153  30.665  48.652  1.00  0.00     0.155 A 
HETATM   22  C   UNL     1       3.858  29.475  48.495  1.00  0.00     0.054 A 
HETATM   23  F   UNL     1       3.653  31.796  48.137  1.00  0.00    -0.203 F 
ENDBRANCH  15  16
ENDBRANCH  12  15
ENDBRANCH   1  11
BRANCH   7  24
HETATM   24  C   UNL     1       8.172  21.849  54.783  1.00  0.00     0.010 A 
HETATM   25  C   UNL     1       8.555  21.726  56.140  1.00  0.00     0.152 A 
HETATM   26  N   UNL     1       9.123  20.549  56.415  1.00  0.00    -0.187 NA
HETATM   27  N   UNL     1       9.113  19.913  55.234  1.00  0.00    -0.289 N 
HETATM   28  H   UNL     1       9.506  18.979  55.187  1.00  0.00     0.188 HD
HETATM   29  C   UNL     1       8.555  20.646  54.227  1.00  0.00     0.123 A 
ENDBRANCH   7  24
TORSDOF 4
ENDMDL
MODEL 10
REMARK VINA RESULT:      -8.5      5.441      9.592
REMARK  4 active torsions:
REMARK  status: ('A' for Active; 'I' for Inactive)
REMARK    1  A    between atoms: C_5  and  C_6 
REMARK    2  A    between atoms: C_6  and  N_7 
REMARK       I    between atoms: N_7  and  C_8 
REMARK    3  A    between atoms: C_8  and  C_10 
REMARK    4  A    between atoms: C_16  and  C_20 
ROOT
HETATM    1  C   UNL     1       5.485  27.239  55.178  1.00  0.00     0.059 A 
HETATM    2  C   UNL     1       5.343  26.899  56.513  1.00  0.00     0.106 A 
HETATM    3  N   UNL     1       4.666  27.896  57.154  1.00  0.00    -0.364 N 
HETATM    4  H   UNL     1       4.434  27.904  58.137  1.00  0.00     0.165 HD
HETATM    5  C   UNL     1       4.326  28.884  56.260  1.00  0.00     0.044 A 
HETATM    6  C   UNL     1       3.625  30.081  56.476  1.00  0.00     0.042 A 
HETATM    7  C   UNL     1       3.367  30.915  55.377  1.00  0.00    -0.021 A 
HETATM    8  C   UNL     1       3.805  30.529  54.106  1.00  0.00     0.013 A 
HETATM    9  C   UNL     1       4.507  29.330  53.907  1.00  0.00     0.016 A 
HETATM   10  C   UNL     1       4.798  28.492  55.005  1.00  0.00     0.008 A 
ENDROOT
BRANCH   1  11
HETATM   11  C   UNL     1       6.198  26.400  54.218  1.00  0.00     0.254 C 
HETATM   12  N   UNL     1       5.755  25.101  54.144  1.00  0.00    -0.353 N 
HETATM   13  H   UNL     1       4.934  24.837  54.667  1.00  0.00     0.163 HD
HETATM   14  O   UNL     1       7.084  26.843  53.494  1.00  0.00    -0.268 OA
BRANCH  12  15
HETATM   15  C   UNL     1       6.323  24.153  53.220  1.00  0.00     0.161 C 
BRANCH  15  16
HETATM   16  C   UNL     1       7.234  23.180  53.927  1.00  0.00    -0.037 A 
HETATM   17  C   UNL     1       8.002  22.265  53.186  1.00  0.00     0.012 A 
HETATM   18  C   UNL     1       8.858  21.368  53.830  1.00  0.00     0.046 A 
HETATM   19  C   UNL     1       8.956  21.390  55.216  1.00  0.00     0.154 A 
HETATM   20  F   UNL     1       9.776  20.527  55.832  1.00  0.00    -0.203 F 
HETATM   21  C   UNL     1       8.211  22.300  55.958  1.00  0.00     0.155 A 
HETATM   22  C   UNL     1       7.354  23.196  55.324  1.00  0.00     0.054 A 
HETATM   23  F   UNL     1       8.313  22.323  57.294  1.00  0.00    -0.203 F 
ENDBRANCH  15  16
ENDBRANCH  12  15
ENDBRANCH   1  11
BRANCH   7  24
HETATM   24  C   UNL     1       2.646  32.163  55.574  1.00  0.00     0.010 A 
HETATM   25  C   UNL     1       1.390  32.592  55.082  1.00  0.00     0.152 A 
HETATM   26  N   UNL     1       1.073  33.829  55.477  1.00  0.00    -0.187 NA
HETATM   27  N   UNL     1       2.127  34.200  56.220  1.00  0.00    -0.289 N 
HETATM   28  H   UNL     1       2.121  35.125  56.635  1.00  0.00     0.188 HD
HETATM   29  C   UNL     1       3.093  33.240  56.310  1.00  0.00     0.123 A 
ENDBRANCH   7  24
TORSDOF 4
ENDMDL
