MODEL 1
REMARK VINA RESULT:      -9.4      0.000      0.000
REMARK  2 active torsions:
REMARK  status: ('A' for Active; 'I' for Inactive)
REMARK    1  A    between atoms: C_9  and  C_10 
REMARK       I    between atoms: C_10  and  N_11 
REMARK    2  A    between atoms: N_11  and  C_12 
ROOT
HETATM    1  C   UNL     1       5.467  27.192  53.922  1.00  0.00     0.267 C 
HETATM    2  N   UNL     1       5.531  28.303  54.707  1.00  0.00    -0.156 N 
HETATM    3  O   UNL     1       4.464  27.010  53.217  1.00  0.00    -0.270 OA
HETATM    4  H   UNL     1       4.714  28.902  54.694  1.00  0.00     0.187 HD
ENDROOT
BRANCH   1   5
HETATM    5  C   UNL     1       6.591  26.135  53.871  1.00  0.00     0.282 C 
HETATM    6  N   UNL     1       6.620  25.540  52.458  1.00  0.00    -0.058 N 
HETATM    7  C   UNL     1       7.728  24.579  52.259  1.00  0.00     0.272 C 
HETATM    8  H   UNL     1       5.710  25.090  52.290  1.00  0.00     0.278 HD
HETATM    9  H   UNL     1       6.657  26.309  51.777  1.00  0.00     0.278 HD
HETATM   10  C   UNL     1       7.818  23.562  53.360  1.00  0.00    -0.026 A 
HETATM   11  C   UNL     1       7.181  23.770  54.600  1.00  0.00    -0.048 A 
HETATM   12  C   UNL     1       8.596  22.411  53.171  1.00  0.00     0.009 A 
HETATM   13  C   UNL     1       7.310  22.808  55.613  1.00  0.00     0.008 A 
HETATM   14  C   UNL     1       6.309  24.980  54.842  1.00  0.00     0.082 C 
HETATM   15  C   UNL     1       8.080  21.665  55.408  1.00  0.00     0.001 A 
HETATM   16  C   UNL     1       8.723  21.466  54.189  1.00  0.00     0.001 A 
ENDBRANCH   1   5
BRANCH   2  17
HETATM   17  C   UNL     1       6.638  28.681  55.415  1.00  0.00     0.708 A 
HETATM   18  N   UNL     1       6.706  28.916  56.703  1.00  0.00    -0.062 NA
HETATM   19  C   UNL     1       8.010  29.282  56.945  1.00  0.00     0.103 A 
HETATM   20  C   UNL     1       8.753  29.258  55.771  1.00  0.00     0.078 A 
HETATM   21  C   UNL     1       8.630  29.653  58.145  1.00  0.00     0.034 A 
HETATM   22  N   UNL     1       7.859  28.857  54.812  1.00  0.00    -0.188 N 
HETATM   23  C   UNL     1      10.106  29.594  55.714  1.00  0.00     0.032 A 
HETATM   24  H   UNL     1       8.069  28.735  53.832  1.00  0.00     0.184 HD
HETATM   25  C   UNL     1      10.710  29.967  56.921  1.00  0.00     0.002 A 
HETATM   26  C   UNL     1       9.988  29.995  58.117  1.00  0.00     0.002 A 
ENDBRANCH   2  17
TORSDOF 2
ENDMDL
MODEL 2
REMARK VINA RESULT:      -9.0      4.277      8.903
REMARK  2 active torsions:
REMARK  status: ('A' for Active; 'I' for Inactive)
REMARK    1  A    between atoms: C_9  and  C_10 
REMARK       I    between atoms: C_10  and  N_11 
REMARK    2  A    between atoms: N_11  and  C_12 
ROOT
HETATM    1  C   UNL     1       9.558  31.176  58.491  1.00  0.00     0.267 C 
HETATM    2  N   UNL     1       9.573  30.208  57.535  1.00  0.00    -0.156 N 
HETATM    3  O   UNL     1      10.431  32.055  58.473  1.00  0.00    -0.270 OA
HETATM    4  H   UNL     1      10.344  30.247  56.877  1.00  0.00     0.187 HD
ENDROOT
BRANCH   1   5
HETATM    5  C   UNL     1       8.498  31.230  59.613  1.00  0.00     0.282 C 
HETATM    6  N   UNL     1       7.328  32.090  59.120  1.00  0.00    -0.058 N 
HETATM    7  C   UNL     1       6.201  32.135  60.079  1.00  0.00     0.272 C 
HETATM    8  H   UNL     1       7.691  33.036  58.938  1.00  0.00     0.278 HD
HETATM    9  H   UNL     1       7.030  31.746  58.199  1.00  0.00     0.278 HD
HETATM   10  C   UNL     1       6.643  32.439  61.481  1.00  0.00    -0.026 A 
HETATM   11  C   UNL     1       7.990  32.290  61.870  1.00  0.00    -0.048 A 
HETATM   12  C   UNL     1       5.690  32.822  62.436  1.00  0.00     0.009 A 
HETATM   13  C   UNL     1       8.360  32.559  63.196  1.00  0.00     0.008 A 
HETATM   14  C   UNL     1       9.059  31.908  60.872  1.00  0.00     0.082 C 
HETATM   15  C   UNL     1       7.403  32.947  64.131  1.00  0.00     0.001 A 
HETATM   16  C   UNL     1       6.070  33.077  63.753  1.00  0.00     0.001 A 
ENDBRANCH   1   5
BRANCH   2  17
HETATM   17  C   UNL     1       8.587  29.275  57.369  1.00  0.00     0.708 A 
HETATM   18  N   UNL     1       7.310  29.503  57.187  1.00  0.00    -0.062 NA
HETATM   19  C   UNL     1       6.720  28.264  57.092  1.00  0.00     0.103 A 
HETATM   20  C   UNL     1       7.671  27.258  57.211  1.00  0.00     0.078 A 
HETATM   21  C   UNL     1       5.374  27.921  56.909  1.00  0.00     0.034 A 
HETATM   22  N   UNL     1       8.856  27.928  57.371  1.00  0.00    -0.188 N 
HETATM   23  C   UNL     1       7.359  25.898  57.164  1.00  0.00     0.032 A 
HETATM   24  H   UNL     1       9.761  27.496  57.490  1.00  0.00     0.184 HD
HETATM   25  C   UNL     1       6.009  25.572  56.984  1.00  0.00     0.002 A 
HETATM   26  C   UNL     1       5.033  26.564  56.857  1.00  0.00     0.002 A 
ENDBRANCH   2  17
TORSDOF 2
ENDMDL
MODEL 3
REMARK VINA RESULT:      -8.9      1.153      6.367
REMARK  2 active torsions:
REMARK  status: ('A' for Active; 'I' for Inactive)
REMARK    1  A    between atoms: C_9  and  C_10 
REMARK       I    between atoms: C_10  and  N_11 
REMARK    2  A    between atoms: N_11  and  C_12 
ROOT
HETATM    1  C   UNL     1       4.996  27.545  54.640  1.00  0.00     0.267 C 
HETATM    2  N   UNL     1       4.910  26.408  53.898  1.00  0.00    -0.156 N 
HETATM    3  O   UNL     1       4.129  28.420  54.505  1.00  0.00    -0.270 OA
HETATM    4  H   UNL     1       4.144  26.368  53.234  1.00  0.00     0.187 HD
ENDROOT
BRANCH   1   5
HETATM    5  C   UNL     1       6.136  27.803  55.650  1.00  0.00     0.282 C 
HETATM    6  N   UNL     1       5.625  28.797  56.699  1.00  0.00    -0.058 N 
HETATM    7  C   UNL     1       6.605  29.048  57.780  1.00  0.00     0.272 C 
HETATM    8  H   UNL     1       5.387  29.672  56.211  1.00  0.00     0.278 HD
HETATM    9  H   UNL     1       4.730  28.455  57.069  1.00  0.00     0.278 HD
HETATM   10  C   UNL     1       7.979  29.352  57.260  1.00  0.00    -0.026 A 
HETATM   11  C   UNL     1       8.346  29.031  55.937  1.00  0.00    -0.048 A 
HETATM   12  C   UNL     1       8.934  29.912  58.121  1.00  0.00     0.009 A 
HETATM   13  C   UNL     1       9.649  29.307  55.495  1.00  0.00     0.008 A 
HETATM   14  C   UNL     1       7.346  28.453  54.962  1.00  0.00     0.082 C 
HETATM   15  C   UNL     1      10.583  29.872  56.360  1.00  0.00     0.001 A 
HETATM   16  C   UNL     1      10.227  30.173  57.672  1.00  0.00     0.001 A 
ENDBRANCH   1   5
BRANCH   2  17
HETATM   17  C   UNL     1       5.722  25.319  54.061  1.00  0.00     0.708 A 
HETATM   18  N   UNL     1       6.045  24.740  55.191  1.00  0.00    -0.062 NA
HETATM   19  C   UNL     1       6.890  23.709  54.853  1.00  0.00     0.103 A 
HETATM   20  C   UNL     1       7.075  23.657  53.477  1.00  0.00     0.078 A 
HETATM   21  C   UNL     1       7.542  22.777  55.671  1.00  0.00     0.034 A 
HETATM   22  N   UNL     1       6.307  24.685  52.993  1.00  0.00    -0.188 N 
HETATM   23  C   UNL     1       7.892  22.717  52.848  1.00  0.00     0.032 A 
HETATM   24  H   UNL     1       6.213  24.935  52.019  1.00  0.00     0.184 HD
HETATM   25  C   UNL     1       8.540  21.796  53.679  1.00  0.00     0.002 A 
HETATM   26  C   UNL     1       8.368  21.821  55.066  1.00  0.00     0.002 A 
ENDBRANCH   2  17
TORSDOF 2
ENDMDL
MODEL 4
REMARK VINA RESULT:      -8.6      3.109      4.754
REMARK  2 active torsions:
REMARK  status: ('A' for Active; 'I' for Inactive)
REMARK    1  A    between atoms: C_9  and  C_10 
REMARK       I    between atoms: C_10  and  N_11 
REMARK    2  A    between atoms: N_11  and  C_12 
ROOT
HETATM    1  C   UNL     1       5.405  27.004  55.242  1.00  0.00     0.267 C 
HETATM    2  N   UNL     1       4.808  28.066  54.637  1.00  0.00    -0.156 N 
HETATM    3  O   UNL     1       5.224  26.822  56.455  1.00  0.00    -0.270 OA
HETATM    4  H   UNL     1       4.274  28.679  55.242  1.00  0.00     0.187 HD
ENDROOT
BRANCH   1   5
HETATM    5  C   UNL     1       6.311  26.007  54.487  1.00  0.00     0.282 C 
HETATM    6  N   UNL     1       5.411  25.074  53.668  1.00  0.00    -0.058 N 
HETATM    7  C   UNL     1       6.176  24.132  52.821  1.00  0.00     0.272 C 
HETATM    8  H   UNL     1       4.806  24.565  54.328  1.00  0.00     0.278 HD
HETATM    9  H   UNL     1       4.763  25.645  53.112  1.00  0.00     0.278 HD
HETATM   10  C   UNL     1       7.270  23.431  53.574  1.00  0.00    -0.026 A 
HETATM   11  C   UNL     1       7.740  23.926  54.807  1.00  0.00    -0.048 A 
HETATM   12  C   UNL     1       7.874  22.297  53.013  1.00  0.00     0.009 A 
HETATM   13  C   UNL     1       8.781  23.258  55.468  1.00  0.00     0.008 A 
HETATM   14  C   UNL     1       7.102  25.128  55.466  1.00  0.00     0.082 C 
HETATM   15  C   UNL     1       9.366  22.127  54.902  1.00  0.00     0.001 A 
HETATM   16  C   UNL     1       8.915  21.648  53.676  1.00  0.00     0.001 A 
ENDBRANCH   1   5
BRANCH   2  17
HETATM   17  C   UNL     1       4.819  28.288  53.287  1.00  0.00     0.708 A 
HETATM   18  N   UNL     1       4.251  27.550  52.364  1.00  0.00    -0.062 NA
HETATM   19  C   UNL     1       4.550  28.158  51.166  1.00  0.00     0.103 A 
HETATM   20  C   UNL     1       5.312  29.301  51.373  1.00  0.00     0.078 A 
HETATM   21  C   UNL     1       4.207  27.786  49.860  1.00  0.00     0.034 A 
HETATM   22  N   UNL     1       5.457  29.371  52.735  1.00  0.00    -0.188 N 
HETATM   23  C   UNL     1       5.771  30.114  50.336  1.00  0.00     0.032 A 
HETATM   24  H   UNL     1       5.965  30.087  53.233  1.00  0.00     0.184 HD
HETATM   25  C   UNL     1       5.424  29.726  49.036  1.00  0.00     0.002 A 
HETATM   26  C   UNL     1       4.654  28.585  48.800  1.00  0.00     0.002 A 
ENDBRANCH   2  17
TORSDOF 2
ENDMDL
MODEL 5
REMARK VINA RESULT:      -8.4      1.959      3.172
REMARK  2 active torsions:
REMARK  status: ('A' for Active; 'I' for Inactive)
REMARK    1  A    between atoms: C_9  and  C_10 
REMARK       I    between atoms: C_10  and  N_11 
REMARK    2  A    between atoms: N_11  and  C_12 
ROOT
HETATM    1  C   UNL     1       6.765  25.582  52.394  1.00  0.00     0.267 C 
HETATM    2  N   UNL     1       6.440  26.902  52.456  1.00  0.00    -0.156 N 
HETATM    3  O   UNL     1       7.036  25.080  51.294  1.00  0.00    -0.270 OA
HETATM    4  H   UNL     1       6.400  27.391  51.568  1.00  0.00     0.187 HD
ENDROOT
BRANCH   1   5
HETATM    5  C   UNL     1       6.808  24.670  53.639  1.00  0.00     0.282 C 
HETATM    6  N   UNL     1       7.816  25.264  54.629  1.00  0.00    -0.058 N 
HETATM    7  C   UNL     1       7.872  24.523  55.909  1.00  0.00     0.272 C 
HETATM    8  H   UNL     1       8.738  25.271  54.170  1.00  0.00     0.278 HD
HETATM    9  H   UNL     1       7.592  26.256  54.773  1.00  0.00     0.278 HD
HETATM   10  C   UNL     1       7.996  23.040  55.717  1.00  0.00    -0.026 A 
HETATM   11  C   UNL     1       7.687  22.435  54.482  1.00  0.00    -0.048 A 
HETATM   12  C   UNL     1       8.371  22.234  56.802  1.00  0.00     0.009 A 
HETATM   13  C   UNL     1       7.791  21.043  54.349  1.00  0.00     0.008 A 
HETATM   14  C   UNL     1       7.306  23.263  53.276  1.00  0.00     0.082 C 
HETATM   15  C   UNL     1       8.173  20.256  55.433  1.00  0.00     0.001 A 
HETATM   16  C   UNL     1       8.462  20.850  56.659  1.00  0.00     0.001 A 
ENDBRANCH   1   5
BRANCH   2  17
HETATM   17  C   UNL     1       6.262  27.597  53.621  1.00  0.00     0.708 A 
HETATM   18  N   UNL     1       7.188  28.187  54.335  1.00  0.00    -0.062 NA
HETATM   19  C   UNL     1       6.534  28.731  55.416  1.00  0.00     0.103 A 
HETATM   20  C   UNL     1       5.171  28.469  55.348  1.00  0.00     0.078 A 
HETATM   21  C   UNL     1       7.042  29.459  56.500  1.00  0.00     0.034 A 
HETATM   22  N   UNL     1       5.021  27.757  54.185  1.00  0.00    -0.188 N 
HETATM   23  C   UNL     1       4.260  28.890  56.317  1.00  0.00     0.032 A 
HETATM   24  H   UNL     1       4.147  27.401  53.828  1.00  0.00     0.184 HD
HETATM   25  C   UNL     1       4.784  29.612  57.396  1.00  0.00     0.002 A 
HETATM   26  C   UNL     1       6.150  29.895  57.488  1.00  0.00     0.002 A 
ENDBRANCH   2  17
TORSDOF 2
ENDMDL
MODEL 6
REMARK VINA RESULT:      -8.4      3.343      5.044
REMARK  2 active torsions:
REMARK  status: ('A' for Active; 'I' for Inactive)
REMARK    1  A    between atoms: C_9  and  C_10 
REMARK       I    between atoms: C_10  and  N_11 
REMARK    2  A    between atoms: N_11  and  C_12 
ROOT
HETATM    1  C   UNL     1       5.474  30.650  56.845  1.00  0.00     0.267 C 
HETATM    2  N   UNL     1       5.535  31.780  57.601  1.00  0.00    -0.156 N 
HETATM    3  O   UNL     1       4.888  30.685  55.754  1.00  0.00    -0.270 OA
HETATM    4  H   UNL     1       5.047  32.588  57.230  1.00  0.00     0.187 HD
ENDROOT
BRANCH   1   5
HETATM    5  C   UNL     1       6.103  29.310  57.287  1.00  0.00     0.282 C 
HETATM    6  N   UNL     1       7.603  29.364  56.975  1.00  0.00    -0.058 N 
HETATM    7  C   UNL     1       8.333  28.165  57.446  1.00  0.00     0.272 C 
HETATM    8  H   UNL     1       7.707  29.478  55.957  1.00  0.00     0.278 HD
HETATM    9  H   UNL     1       7.993  30.227  57.373  1.00  0.00     0.278 HD
HETATM   10  C   UNL     1       7.664  26.883  57.045  1.00  0.00    -0.026 A 
HETATM   11  C   UNL     1       6.316  26.860  56.633  1.00  0.00    -0.048 A 
HETATM   12  C   UNL     1       8.375  25.677  57.137  1.00  0.00     0.009 A 
HETATM   13  C   UNL     1       5.718  25.638  56.291  1.00  0.00     0.008 A 
HETATM   14  C   UNL     1       5.517  28.135  56.491  1.00  0.00     0.082 C 
HETATM   15  C   UNL     1       6.440  24.450  56.379  1.00  0.00     0.001 A 
HETATM   16  C   UNL     1       7.766  24.468  56.803  1.00  0.00     0.001 A 
ENDBRANCH   1   5
BRANCH   2  17
HETATM   17  C   UNL     1       6.271  31.900  58.748  1.00  0.00     0.708 A 
HETATM   18  N   UNL     1       7.574  31.996  58.840  1.00  0.00    -0.062 NA
HETATM   19  C   UNL     1       7.847  32.076  60.186  1.00  0.00     0.103 A 
HETATM   20  C   UNL     1       6.673  32.038  60.927  1.00  0.00     0.078 A 
HETATM   21  C   UNL     1       9.077  32.179  60.848  1.00  0.00     0.034 A 
HETATM   22  N   UNL     1       5.680  31.941  59.986  1.00  0.00    -0.188 N 
HETATM   23  C   UNL     1       6.645  32.090  62.322  1.00  0.00     0.032 A 
HETATM   24  H   UNL     1       4.692  31.888  60.183  1.00  0.00     0.184 HD
HETATM   25  C   UNL     1       7.882  32.189  62.969  1.00  0.00     0.002 A 
HETATM   26  C   UNL     1       9.078  32.235  62.248  1.00  0.00     0.002 A 
ENDBRANCH   2  17
TORSDOF 2
ENDMDL
MODEL 7
REMARK VINA RESULT:      -8.4      8.758     12.812
REMARK  2 active torsions:
REMARK  status: ('A' for Active; 'I' for Inactive)
REMARK    1  A    between atoms: C_9  and  C_10 
REMARK       I    between atoms: C_10  and  N_11 
REMARK    2  A    between atoms: N_11  and  C_12 
ROOT
HETATM    1  C   UNL     1       3.405  33.687  63.086  1.00  0.00     0.267 C 
HETATM    2  N   UNL     1       3.809  32.591  62.388  1.00  0.00    -0.156 N 
HETATM    3  O   UNL     1       2.208  33.801  63.388  1.00  0.00    -0.270 OA
HETATM    4  H   UNL     1       3.078  31.943  62.117  1.00  0.00     0.187 HD
ENDROOT
BRANCH   1   5
HETATM    5  C   UNL     1       4.373  34.809  63.520  1.00  0.00     0.282 C 
HETATM    6  N   UNL     1       3.674  35.649  64.596  1.00  0.00    -0.058 N 
HETATM    7  C   UNL     1       4.546  36.703  65.162  1.00  0.00     0.272 C 
HETATM    8  H   UNL     1       2.830  36.061  64.173  1.00  0.00     0.278 HD
HETATM    9  H   UNL     1       3.316  35.020  65.325  1.00  0.00     0.278 HD
HETATM   10  C   UNL     1       5.243  37.509  64.104  1.00  0.00    -0.026 A 
HETATM   11  C   UNL     1       5.350  37.039  62.780  1.00  0.00    -0.048 A 
HETATM   12  C   UNL     1       5.848  38.725  64.453  1.00  0.00     0.009 A 
HETATM   13  C   UNL     1       6.031  37.810  61.826  1.00  0.00     0.008 A 
HETATM   14  C   UNL     1       4.691  35.749  62.348  1.00  0.00     0.082 C 
HETATM   15  C   UNL     1       6.620  39.020  62.186  1.00  0.00     0.001 A 
HETATM   16  C   UNL     1       6.530  39.477  63.497  1.00  0.00     0.001 A 
ENDBRANCH   1   5
BRANCH   2  17
HETATM   17  C   UNL     1       5.116  32.287  62.122  1.00  0.00     0.708 A 
HETATM   18  N   UNL     1       5.944  31.628  62.896  1.00  0.00    -0.062 NA
HETATM   19  C   UNL     1       7.139  31.591  62.215  1.00  0.00     0.103 A 
HETATM   20  C   UNL     1       7.026  32.238  60.990  1.00  0.00     0.078 A 
HETATM   21  C   UNL     1       8.365  31.024  62.585  1.00  0.00     0.034 A 
HETATM   22  N   UNL     1       5.723  32.660  60.948  1.00  0.00    -0.188 N 
HETATM   23  C   UNL     1       8.086  32.366  60.091  1.00  0.00     0.032 A 
HETATM   24  H   UNL     1       5.299  33.174  60.190  1.00  0.00     0.184 HD
HETATM   25  C   UNL     1       9.306  31.798  60.477  1.00  0.00     0.002 A 
HETATM   26  C   UNL     1       9.446  31.136  61.700  1.00  0.00     0.002 A 
ENDBRANCH   2  17
TORSDOF 2
ENDMDL
MODEL 8
REMARK VINA RESULT:      -8.2      3.027      5.815
REMARK  2 active torsions:
REMARK  status: ('A' for Active; 'I' for Inactive)
REMARK    1  A    between atoms: C_9  and  C_10 
REMARK       I    between atoms: C_10  and  N_11 
REMARK    2  A    between atoms: N_11  and  C_12 
ROOT
HETATM    1  C   UNL     1       6.643  28.201  54.091  1.00  0.00     0.267 C 
HETATM    2  N   UNL     1       6.243  28.924  53.010  1.00  0.00    -0.156 N 
HETATM    3  O   UNL     1       7.190  28.785  55.037  1.00  0.00    -0.270 OA
HETATM    4  H   UNL     1       6.463  29.913  53.032  1.00  0.00     0.187 HD
ENDROOT
BRANCH   1   5
HETATM    5  C   UNL     1       6.450  26.672  54.196  1.00  0.00     0.282 C 
HETATM    6  N   UNL     1       6.585  26.276  55.671  1.00  0.00    -0.058 N 
HETATM    7  C   UNL     1       6.323  24.839  55.910  1.00  0.00     0.272 C 
HETATM    8  H   UNL     1       7.535  26.530  55.977  1.00  0.00     0.278 HD
HETATM    9  H   UNL     1       5.965  26.874  56.232  1.00  0.00     0.278 HD
HETATM   10  C   UNL     1       7.069  23.947  54.960  1.00  0.00    -0.026 A 
HETATM   11  C   UNL     1       7.613  24.450  53.761  1.00  0.00    -0.048 A 
HETATM   12  C   UNL     1       7.177  22.578  55.243  1.00  0.00     0.009 A 
HETATM   13  C   UNL     1       8.281  23.580  52.887  1.00  0.00     0.008 A 
HETATM   14  C   UNL     1       7.547  25.923  53.425  1.00  0.00     0.082 C 
HETATM   15  C   UNL     1       8.388  22.224  53.186  1.00  0.00     0.001 A 
HETATM   16  C   UNL     1       7.836  21.722  54.361  1.00  0.00     0.001 A 
ENDBRANCH   1   5
BRANCH   2  17
HETATM   17  C   UNL     1       5.507  28.416  51.974  1.00  0.00     0.708 A 
HETATM   18  N   UNL     1       5.779  27.349  51.264  1.00  0.00    -0.062 NA
HETATM   19  C   UNL     1       4.768  27.252  50.336  1.00  0.00     0.103 A 
HETATM   20  C   UNL     1       3.854  28.287  50.497  1.00  0.00     0.078 A 
HETATM   21  C   UNL     1       4.569  26.308  49.320  1.00  0.00     0.034 A 
HETATM   22  N   UNL     1       4.339  29.006  51.558  1.00  0.00    -0.188 N 
HETATM   23  C   UNL     1       2.730  28.448  49.686  1.00  0.00     0.032 A 
HETATM   24  H   UNL     1       3.914  29.836  51.944  1.00  0.00     0.184 HD
HETATM   25  C   UNL     1       2.547  27.499  48.673  1.00  0.00     0.002 A 
HETATM   26  C   UNL     1       3.448  26.446  48.492  1.00  0.00     0.002 A 
ENDBRANCH   2  17
TORSDOF 2
ENDMDL
MODEL 9
REMARK VINA RESULT:      -7.9      2.709      6.653
REMARK  2 active torsions:
REMARK  status: ('A' for Active; 'I' for Inactive)
REMARK    1  A    between atoms: C_9  and  C_10 
REMARK       I    between atoms: C_10  and  N_11 
REMARK    2  A    between atoms: N_11  and  C_12 
ROOT
HETATM    1  C   UNL     1       7.938  26.598  57.147  1.00  0.00     0.267 C 
HETATM    2  N   UNL     1       8.444  25.362  57.406  1.00  0.00    -0.156 N 
HETATM    3  O   UNL     1       8.232  27.539  57.900  1.00  0.00    -0.270 OA
HETATM    4  H   UNL     1       9.009  25.280  58.244  1.00  0.00     0.187 HD
ENDROOT
BRANCH   1   5
HETATM    5  C   UNL     1       7.003  26.890  55.954  1.00  0.00     0.282 C 
HETATM    6  N   UNL     1       7.859  27.420  54.798  1.00  0.00    -0.058 N 
HETATM    7  C   UNL     1       7.081  27.645  53.559  1.00  0.00     0.272 C 
HETATM    8  H   UNL     1       8.304  28.294  55.113  1.00  0.00     0.278 HD
HETATM    9  H   UNL     1       8.642  26.773  54.643  1.00  0.00     0.278 HD
HETATM   10  C   UNL     1       5.818  28.421  53.799  1.00  0.00    -0.026 A 
HETATM   11  C   UNL     1       5.275  28.548  55.093  1.00  0.00    -0.048 A 
HETATM   12  C   UNL     1       5.137  28.981  52.709  1.00  0.00     0.009 A 
HETATM   13  C   UNL     1       4.079  29.259  55.274  1.00  0.00     0.008 A 
HETATM   14  C   UNL     1       5.986  27.986  56.303  1.00  0.00     0.082 C 
HETATM   15  C   UNL     1       3.418  29.818  54.182  1.00  0.00     0.001 A 
HETATM   16  C   UNL     1       3.945  29.678  52.901  1.00  0.00     0.001 A 
ENDBRANCH   1   5
BRANCH   2  17
HETATM   17  C   UNL     1       8.306  24.285  56.574  1.00  0.00     0.708 A 
HETATM   18  N   UNL     1       8.065  23.045  56.924  1.00  0.00    -0.062 NA
HETATM   19  C   UNL     1       8.032  22.327  55.751  1.00  0.00     0.103 A 
HETATM   20  C   UNL     1       8.251  23.160  54.660  1.00  0.00     0.078 A 
HETATM   21  C   UNL     1       7.826  20.958  55.542  1.00  0.00     0.034 A 
HETATM   22  N   UNL     1       8.407  24.406  55.210  1.00  0.00    -0.188 N 
HETATM   23  C   UNL     1       8.283  22.703  53.342  1.00  0.00     0.032 A 
HETATM   24  H   UNL     1       8.586  25.254  54.693  1.00  0.00     0.184 HD
HETATM   25  C   UNL     1       8.079  21.331  53.150  1.00  0.00     0.002 A 
HETATM   26  C   UNL     1       7.853  20.472  54.228  1.00  0.00     0.002 A 
ENDBRANCH   2  17
TORSDOF 2
ENDMDL
MODEL 10
REMARK VINA RESULT:      -7.8      1.889      6.482
REMARK  2 active torsions:
REMARK  status: ('A' for Active; 'I' for Inactive)
REMARK    1  A    between atoms: C_9  and  C_10 
REMARK       I    between atoms: C_10  and  N_11 
REMARK    2  A    between atoms: N_11  and  C_12 
ROOT
HETATM    1  C   UNL     1       5.132  27.975  56.999  1.00  0.00     0.267 C 
HETATM    2  N   UNL     1       4.670  26.809  56.473  1.00  0.00    -0.156 N 
HETATM    3  O   UNL     1       4.390  28.638  57.739  1.00  0.00    -0.270 OA
HETATM    4  H   UNL     1       3.709  26.572  56.694  1.00  0.00     0.187 HD
ENDROOT
BRANCH   1   5
HETATM    5  C   UNL     1       6.547  28.523  56.712  1.00  0.00     0.282 C 
HETATM    6  N   UNL     1       7.548  27.377  56.901  1.00  0.00    -0.058 N 
HETATM    7  C   UNL     1       8.935  27.760  56.557  1.00  0.00     0.272 C 
HETATM    8  H   UNL     1       7.486  27.067  57.881  1.00  0.00     0.278 HD
HETATM    9  H   UNL     1       7.230  26.568  56.354  1.00  0.00     0.278 HD
HETATM   10  C   UNL     1       9.353  29.056  57.189  1.00  0.00    -0.026 A 
HETATM   11  C   UNL     1       8.400  29.961  57.698  1.00  0.00    -0.048 A 
HETATM   12  C   UNL     1      10.713  29.399  57.222  1.00  0.00     0.009 A 
HETATM   13  C   UNL     1       8.829  31.174  58.258  1.00  0.00     0.008 A 
HETATM   14  C   UNL     1       6.927  29.625  57.712  1.00  0.00     0.082 C 
HETATM   15  C   UNL     1      10.184  31.496  58.291  1.00  0.00     0.001 A 
HETATM   16  C   UNL     1      11.125  30.611  57.773  1.00  0.00     0.001 A 
ENDBRANCH   1   5
BRANCH   2  17
HETATM   17  C   UNL     1       5.438  25.927  55.763  1.00  0.00     0.708 A 
HETATM   18  N   UNL     1       6.106  24.905  56.238  1.00  0.00    -0.062 NA
HETATM   19  C   UNL     1       6.735  24.336  55.155  1.00  0.00     0.103 A 
HETATM   20  C   UNL     1       6.430  25.029  53.990  1.00  0.00     0.078 A 
HETATM   21  C   UNL     1       7.587  23.225  55.093  1.00  0.00     0.034 A 
HETATM   22  N   UNL     1       5.589  26.031  54.402  1.00  0.00    -0.188 N 
HETATM   23  C   UNL     1       6.937  24.682  52.737  1.00  0.00     0.032 A 
HETATM   24  H   UNL     1       5.175  26.729  53.803  1.00  0.00     0.184 HD
HETATM   25  C   UNL     1       7.790  23.573  52.692  1.00  0.00     0.002 A 
HETATM   26  C   UNL     1       8.110  22.855  53.847  1.00  0.00     0.002 A 
ENDBRANCH   2  17
TORSDOF 2
ENDMDL
