MODEL 1
REMARK VINA RESULT:      -9.7      0.000      0.000
REMARK  9 active torsions:
REMARK  status: ('A' for Active; 'I' for Inactive)
REMARK    1  A    between atoms: C_2  and  O_3 
REMARK    2  A    between atoms: O_3  and  C_4 
REMARK    3  A    between atoms: C_7  and  N_8 
REMARK    4  A    between atoms: C_12  and  N_13 
REMARK       I    between atoms: N_13  and  C_14 
REMARK       I    between atoms: C_14  and  N_15 
REMARK    5  A    between atoms: N_15  and  C_16 
REMARK    6  A    between atoms: C_16  and  C_17 
REMARK    7  A    between atoms: C_17  and  C_18 
REMARK    8  A    between atoms: C_21  and  S_22 
REMARK    9  A    between atoms: S_22  and  N_23 
ROOT
HETATM    1  N   UNL     1       9.451  29.596  56.750  1.00  0.00    -0.336 N 
HETATM    2  C   UNL     1      10.056  30.502  57.552  1.00  0.00     0.316 C 
HETATM    3  N   UNL     1       9.304  31.062  58.532  1.00  0.00    -0.343 N 
HETATM    4  O   UNL     1      11.229  30.791  57.339  1.00  0.00    -0.248 OA
HETATM    5  H   UNL     1      10.089  29.292  56.021  1.00  0.00     0.164 HD
HETATM    6  H   UNL     1       8.574  30.488  58.925  1.00  0.00     0.164 HD
ENDROOT
BRANCH   1   7
HETATM    7  C   UNL     1       8.073  29.107  56.663  1.00  0.00     0.113 C 
HETATM    8  C   UNL     1       7.591  28.352  57.891  1.00  0.00     0.130 C 
HETATM    9  C   UNL     1       7.538  26.907  57.459  1.00  0.00     0.226 C 
HETATM   10  N   UNL     1       7.729  26.841  56.070  1.00  0.00    -0.316 N 
HETATM   11  O   UNL     1       7.331  25.995  58.246  1.00  0.00    -0.273 OA
HETATM   12  C   UNL     1       7.813  28.166  55.493  1.00  0.00     0.157 C 
BRANCH  10  13
HETATM   13  C   UNL     1       7.628  25.671  55.259  1.00  0.00     0.037 A 
HETATM   14  C   UNL     1       6.990  25.681  54.011  1.00  0.00     0.032 A 
HETATM   15  C   UNL     1       6.942  24.537  53.201  1.00  0.00     0.039 A 
HETATM   16  C   UNL     1       7.529  23.351  53.628  1.00  0.00     0.068 A 
HETATM   17  C   UNL     1       8.122  23.307  54.886  1.00  0.00     0.039 A 
HETATM   18  C   UNL     1       8.180  24.454  55.687  1.00  0.00     0.032 A 
BRANCH  16  19
HETATM   19  O   UNL     1       7.557  22.182  52.922  1.00  0.00    -0.352 OA
BRANCH  19  20
HETATM   20  C   UNL     1       7.807  21.005  53.693  1.00  0.00     0.171 C 
HETATM   21  C   UNL     1       8.757  20.123  52.903  1.00  0.00     0.034 C 
ENDBRANCH  19  20
ENDBRANCH  16  19
ENDBRANCH  10  13
ENDBRANCH   1   7
BRANCH   3  22
HETATM   22  C   UNL     1       9.862  32.063  59.428  1.00  0.00     0.129 C 
BRANCH  22  23
HETATM   23  C   UNL     1       9.669  31.761  60.923  1.00  0.00     0.058 C 
BRANCH  23  24
HETATM   24  C   UNL     1       8.405  32.250  61.603  1.00  0.00    -0.057 A 
HETATM   25  C   UNL     1       7.233  32.594  60.918  1.00  0.00     0.009 A 
HETATM   26  C   UNL     1       6.107  33.052  61.606  1.00  0.00     0.025 A 
HETATM   27  C   UNL     1       6.138  33.146  62.999  1.00  0.00     0.074 A 
HETATM   28  C   UNL     1       7.289  32.799  63.706  1.00  0.00     0.025 A 
HETATM   29  C   UNL     1       8.414  32.356  63.007  1.00  0.00     0.009 A 
BRANCH  27  30
HETATM   30  S   UNL     1       4.710  33.724  63.858  1.00  0.00     0.239 S 
HETATM   31  O   UNL     1       4.650  33.109  65.164  1.00  0.00    -0.206 OA
HETATM   32  O   UNL     1       4.589  35.149  63.666  1.00  0.00    -0.206 OA
BRANCH  30  33
HETATM   33  N   UNL     1       3.455  33.024  62.985  1.00  0.00    -0.225 NA
HETATM   34  H   UNL     1       2.637  32.920  63.586  1.00  0.00     0.136 HD
HETATM   35  H   UNL     1       3.282  33.566  62.138  1.00  0.00     0.136 HD
ENDBRANCH  30  33
ENDBRANCH  27  30
ENDBRANCH  23  24
ENDBRANCH  22  23
ENDBRANCH   3  22
TORSDOF 9
ENDMDL
MODEL 2
REMARK VINA RESULT:      -9.6      3.625     11.671
REMARK  9 active torsions:
REMARK  status: ('A' for Active; 'I' for Inactive)
REMARK    1  A    between atoms: C_2  and  O_3 
REMARK    2  A    between atoms: O_3  and  C_4 
REMARK    3  A    between atoms: C_7  and  N_8 
REMARK    4  A    between atoms: C_12  and  N_13 
REMARK       I    between atoms: N_13  and  C_14 
REMARK       I    between atoms: C_14  and  N_15 
REMARK    5  A    between atoms: N_15  and  C_16 
REMARK    6  A    between atoms: C_16  and  C_17 
REMARK    7  A    between atoms: C_17  and  C_18 
REMARK    8  A    between atoms: C_21  and  S_22 
REMARK    9  A    between atoms: S_22  and  N_23 
ROOT
HETATM    1  N   UNL     1       8.055  28.901  58.399  1.00  0.00    -0.336 N 
HETATM    2  C   UNL     1       7.581  27.865  57.669  1.00  0.00     0.316 C 
HETATM    3  N   UNL     1       6.963  28.163  56.499  1.00  0.00    -0.343 N 
HETATM    4  O   UNL     1       7.703  26.726  58.108  1.00  0.00    -0.248 OA
HETATM    5  H   UNL     1       8.438  28.563  59.276  1.00  0.00     0.164 HD
HETATM    6  H   UNL     1       7.293  28.981  56.010  1.00  0.00     0.164 HD
ENDROOT
BRANCH   1   7
HETATM    7  C   UNL     1       7.991  30.353  58.225  1.00  0.00     0.113 C 
HETATM    8  C   UNL     1       9.333  31.061  58.310  1.00  0.00     0.130 C 
HETATM    9  C   UNL     1       9.304  31.782  59.636  1.00  0.00     0.226 C 
HETATM   10  N   UNL     1       8.005  31.712  60.163  1.00  0.00    -0.316 N 
HETATM   11  O   UNL     1      10.289  32.338  60.100  1.00  0.00    -0.273 OA
HETATM   12  C   UNL     1       7.101  31.068  59.233  1.00  0.00     0.157 C 
BRANCH  10  13
HETATM   13  C   UNL     1       7.534  32.371  61.338  1.00  0.00     0.037 A 
HETATM   14  C   UNL     1       8.159  32.215  62.582  1.00  0.00     0.032 A 
HETATM   15  C   UNL     1       7.718  32.908  63.719  1.00  0.00     0.039 A 
HETATM   16  C   UNL     1       6.631  33.771  63.634  1.00  0.00     0.068 A 
HETATM   17  C   UNL     1       5.965  33.900  62.420  1.00  0.00     0.039 A 
HETATM   18  C   UNL     1       6.416  33.217  61.284  1.00  0.00     0.032 A 
BRANCH  16  19
HETATM   19  O   UNL     1       6.122  34.506  64.667  1.00  0.00    -0.352 OA
BRANCH  19  20
HETATM   20  C   UNL     1       5.299  33.784  65.586  1.00  0.00     0.171 C 
HETATM   21  C   UNL     1       5.685  34.210  66.991  1.00  0.00     0.034 C 
ENDBRANCH  19  20
ENDBRANCH  16  19
ENDBRANCH  10  13
ENDBRANCH   1   7
BRANCH   3  22
HETATM   22  C   UNL     1       6.401  27.117  55.658  1.00  0.00     0.129 C 
BRANCH  22  23
HETATM   23  C   UNL     1       7.390  26.503  54.654  1.00  0.00     0.058 C 
BRANCH  23  24
HETATM   24  C   UNL     1       7.604  25.002  54.675  1.00  0.00    -0.057 A 
HETATM   25  C   UNL     1       7.793  24.224  53.526  1.00  0.00     0.009 A 
HETATM   26  C   UNL     1       7.971  22.842  53.617  1.00  0.00     0.025 A 
HETATM   27  C   UNL     1       7.986  22.227  54.871  1.00  0.00     0.074 A 
HETATM   28  C   UNL     1       7.811  22.980  56.031  1.00  0.00     0.025 A 
HETATM   29  C   UNL     1       7.620  24.360  55.928  1.00  0.00     0.009 A 
BRANCH  27  30
HETATM   30  S   UNL     1       8.213  20.480  54.974  1.00  0.00     0.239 S 
HETATM   31  O   UNL     1       7.218  19.915  55.858  1.00  0.00    -0.206 OA
HETATM   32  O   UNL     1       8.461  19.958  53.652  1.00  0.00    -0.206 OA
BRANCH  30  33
HETATM   33  N   UNL     1       9.666  20.353  55.809  1.00  0.00    -0.225 NA
HETATM   34  H   UNL     1       9.563  20.761  56.739  1.00  0.00     0.136 HD
HETATM   35  H   UNL     1       9.976  19.381  55.814  1.00  0.00     0.136 HD
ENDBRANCH  30  33
ENDBRANCH  27  30
ENDBRANCH  23  24
ENDBRANCH  22  23
ENDBRANCH   3  22
TORSDOF 9
ENDMDL
MODEL 3
REMARK VINA RESULT:      -9.6      2.351      2.979
REMARK  9 active torsions:
REMARK  status: ('A' for Active; 'I' for Inactive)
REMARK    1  A    between atoms: C_2  and  O_3 
REMARK    2  A    between atoms: O_3  and  C_4 
REMARK    3  A    between atoms: C_7  and  N_8 
REMARK    4  A    between atoms: C_12  and  N_13 
REMARK       I    between atoms: N_13  and  C_14 
REMARK       I    between atoms: C_14  and  N_15 
REMARK    5  A    between atoms: N_15  and  C_16 
REMARK    6  A    between atoms: C_16  and  C_17 
REMARK    7  A    between atoms: C_17  and  C_18 
REMARK    8  A    between atoms: C_21  and  S_22 
REMARK    9  A    between atoms: S_22  and  N_23 
ROOT
HETATM    1  N   UNL     1       8.640  29.789  59.404  1.00  0.00    -0.336 N 
HETATM    2  C   UNL     1       8.388  30.677  60.393  1.00  0.00     0.316 C 
HETATM    3  N   UNL     1       7.533  31.692  60.112  1.00  0.00    -0.343 N 
HETATM    4  O   UNL     1       8.958  30.541  61.471  1.00  0.00    -0.248 OA
HETATM    5  H   UNL     1       9.335  29.115  59.708  1.00  0.00     0.164 HD
HETATM    6  H   UNL     1       6.799  31.495  59.449  1.00  0.00     0.164 HD
ENDROOT
BRANCH   1   7
HETATM    7  C   UNL     1       8.218  29.714  58.003  1.00  0.00     0.113 C 
HETATM    8  C   UNL     1       6.714  29.655  57.798  1.00  0.00     0.130 C 
HETATM    9  C   UNL     1       6.439  28.233  57.373  1.00  0.00     0.226 C 
HETATM   10  N   UNL     1       7.660  27.590  57.119  1.00  0.00    -0.316 N 
HETATM   11  O   UNL     1       5.304  27.790  57.265  1.00  0.00    -0.273 OA
HETATM   12  C   UNL     1       8.769  28.512  57.246  1.00  0.00     0.157 C 
BRANCH  10  13
HETATM   13  C   UNL     1       7.828  26.279  56.581  1.00  0.00     0.037 A 
HETATM   14  C   UNL     1       7.395  25.940  55.293  1.00  0.00     0.032 A 
HETATM   15  C   UNL     1       7.612  24.662  54.756  1.00  0.00     0.039 A 
HETATM   16  C   UNL     1       8.264  23.689  55.507  1.00  0.00     0.068 A 
HETATM   17  C   UNL     1       8.656  23.991  56.807  1.00  0.00     0.039 A 
HETATM   18  C   UNL     1       8.450  25.271  57.335  1.00  0.00     0.032 A 
BRANCH  16  19
HETATM   19  O   UNL     1       8.542  22.420  55.086  1.00  0.00    -0.352 OA
BRANCH  19  20
HETATM   20  C   UNL     1       8.794  22.279  53.686  1.00  0.00     0.171 C 
HETATM   21  C   UNL     1       7.978  21.103  53.181  1.00  0.00     0.034 C 
ENDBRANCH  19  20
ENDBRANCH  16  19
ENDBRANCH  10  13
ENDBRANCH   1   7
BRANCH   3  22
HETATM   22  C   UNL     1       7.220  32.708  61.105  1.00  0.00     0.129 C 
BRANCH  22  23
HETATM   23  C   UNL     1       6.028  32.367  62.015  1.00  0.00     0.058 C 
BRANCH  23  24
HETATM   24  C   UNL     1       6.001  32.943  63.417  1.00  0.00    -0.057 A 
HETATM   25  C   UNL     1       7.144  33.149  64.199  1.00  0.00     0.009 A 
HETATM   26  C   UNL     1       7.045  33.672  65.490  1.00  0.00     0.025 A 
HETATM   27  C   UNL     1       5.794  34.017  66.004  1.00  0.00     0.074 A 
HETATM   28  C   UNL     1       4.641  33.832  65.242  1.00  0.00     0.025 A 
HETATM   29  C   UNL     1       4.749  33.296  63.957  1.00  0.00     0.009 A 
BRANCH  27  30
HETATM   30  S   UNL     1       5.682  34.677  67.636  1.00  0.00     0.239 S 
HETATM   31  O   UNL     1       6.921  34.437  68.341  1.00  0.00    -0.206 OA
HETATM   32  O   UNL     1       5.063  35.979  67.577  1.00  0.00    -0.206 OA
BRANCH  30  33
HETATM   33  N   UNL     1       4.559  33.657  68.362  1.00  0.00    -0.225 NA
HETATM   34  H   UNL     1       4.337  34.002  69.295  1.00  0.00     0.136 HD
HETATM   35  H   UNL     1       3.748  33.551  67.753  1.00  0.00     0.136 HD
ENDBRANCH  30  33
ENDBRANCH  27  30
ENDBRANCH  23  24
ENDBRANCH  22  23
ENDBRANCH   3  22
TORSDOF 9
ENDMDL
MODEL 4
REMARK VINA RESULT:      -9.1      2.191      3.137
REMARK  9 active torsions:
REMARK  status: ('A' for Active; 'I' for Inactive)
REMARK    1  A    between atoms: C_2  and  O_3 
REMARK    2  A    between atoms: O_3  and  C_4 
REMARK    3  A    between atoms: C_7  and  N_8 
REMARK    4  A    between atoms: C_12  and  N_13 
REMARK       I    between atoms: N_13  and  C_14 
REMARK       I    between atoms: C_14  and  N_15 
REMARK    5  A    between atoms: N_15  and  C_16 
REMARK    6  A    between atoms: C_16  and  C_17 
REMARK    7  A    between atoms: C_17  and  C_18 
REMARK    8  A    between atoms: C_21  and  S_22 
REMARK    9  A    between atoms: S_22  and  N_23 
ROOT
HETATM    1  N   UNL     1       9.290  28.666  57.067  1.00  0.00    -0.336 N 
HETATM    2  C   UNL     1       9.757  29.795  57.650  1.00  0.00     0.316 C 
HETATM    3  N   UNL     1       8.984  30.362  58.609  1.00  0.00    -0.343 N 
HETATM    4  O   UNL     1      10.826  30.259  57.268  1.00  0.00    -0.248 OA
HETATM    5  H   UNL     1       9.919  28.369  56.328  1.00  0.00     0.164 HD
HETATM    6  H   UNL     1       8.419  29.737  59.163  1.00  0.00     0.164 HD
ENDROOT
BRANCH   1   7
HETATM    7  C   UNL     1       8.039  27.918  57.208  1.00  0.00     0.113 C 
HETATM    8  C   UNL     1       8.215  26.418  57.376  1.00  0.00     0.130 C 
HETATM    9  C   UNL     1       7.766  25.828  56.062  1.00  0.00     0.226 C 
HETATM   10  N   UNL     1       7.165  26.836  55.293  1.00  0.00    -0.316 N 
HETATM   11  O   UNL     1       7.914  24.645  55.791  1.00  0.00    -0.273 OA
HETATM   12  C   UNL     1       7.078  28.075  56.036  1.00  0.00     0.157 C 
BRANCH  10  13
HETATM   13  C   UNL     1       6.503  26.661  54.040  1.00  0.00     0.037 A 
HETATM   14  C   UNL     1       6.452  27.676  53.076  1.00  0.00     0.032 A 
HETATM   15  C   UNL     1       5.842  27.474  51.828  1.00  0.00     0.039 A 
HETATM   16  C   UNL     1       5.263  26.247  51.522  1.00  0.00     0.068 A 
HETATM   17  C   UNL     1       5.259  25.245  52.485  1.00  0.00     0.039 A 
HETATM   18  C   UNL     1       5.879  25.444  53.725  1.00  0.00     0.032 A 
BRANCH  16  19
HETATM   19  O   UNL     1       4.656  25.932  50.339  1.00  0.00    -0.352 OA
BRANCH  19  20
HETATM   20  C   UNL     1       4.663  26.967  49.352  1.00  0.00     0.171 C 
HETATM   21  C   UNL     1       4.491  26.314  47.993  1.00  0.00     0.034 C 
ENDBRANCH  19  20
ENDBRANCH  16  19
ENDBRANCH  10  13
ENDBRANCH   1   7
BRANCH   3  22
HETATM   22  C   UNL     1       9.392  31.590  59.275  1.00  0.00     0.129 C 
BRANCH  22  23
HETATM   23  C   UNL     1       9.417  31.506  60.810  1.00  0.00     0.058 C 
BRANCH  23  24
HETATM   24  C   UNL     1       8.253  32.092  61.585  1.00  0.00    -0.057 A 
HETATM   25  C   UNL     1       8.278  32.340  62.963  1.00  0.00     0.009 A 
HETATM   26  C   UNL     1       7.164  32.869  63.617  1.00  0.00     0.025 A 
HETATM   27  C   UNL     1       6.015  33.179  62.887  1.00  0.00     0.074 A 
HETATM   28  C   UNL     1       5.967  32.951  61.513  1.00  0.00     0.025 A 
HETATM   29  C   UNL     1       7.082  32.410  60.870  1.00  0.00     0.009 A 
BRANCH  27  30
HETATM   30  S   UNL     1       4.613  33.847  63.725  1.00  0.00     0.239 S 
HETATM   31  O   UNL     1       4.774  35.276  63.873  1.00  0.00    -0.206 OA
HETATM   32  O   UNL     1       3.414  33.254  63.184  1.00  0.00    -0.206 OA
BRANCH  30  33
HETATM   33  N   UNL     1       4.787  33.223  65.276  1.00  0.00    -0.225 NA
HETATM   34  H   UNL     1       5.147  33.947  65.898  1.00  0.00     0.136 HD
HETATM   35  H   UNL     1       3.904  32.813  65.582  1.00  0.00     0.136 HD
ENDBRANCH  30  33
ENDBRANCH  27  30
ENDBRANCH  23  24
ENDBRANCH  22  23
ENDBRANCH   3  22
TORSDOF 9
ENDMDL
MODEL 5
REMARK VINA RESULT:      -9.0      2.538      3.549
REMARK  9 active torsions:
REMARK  status: ('A' for Active; 'I' for Inactive)
REMARK    1  A    between atoms: C_2  and  O_3 
REMARK    2  A    between atoms: O_3  and  C_4 
REMARK    3  A    between atoms: C_7  and  N_8 
REMARK    4  A    between atoms: C_12  and  N_13 
REMARK       I    between atoms: N_13  and  C_14 
REMARK       I    between atoms: C_14  and  N_15 
REMARK    5  A    between atoms: N_15  and  C_16 
REMARK    6  A    between atoms: C_16  and  C_17 
REMARK    7  A    between atoms: C_17  and  C_18 
REMARK    8  A    between atoms: C_21  and  S_22 
REMARK    9  A    between atoms: S_22  and  N_23 
ROOT
HETATM    1  N   UNL     1       6.975  30.586  58.649  1.00  0.00    -0.336 N 
HETATM    2  C   UNL     1       6.891  31.600  59.542  1.00  0.00     0.316 C 
HETATM    3  N   UNL     1       7.925  31.750  60.407  1.00  0.00    -0.343 N 
HETATM    4  O   UNL     1       5.887  32.304  59.545  1.00  0.00    -0.248 OA
HETATM    5  H   UNL     1       6.124  30.534  58.098  1.00  0.00     0.164 HD
HETATM    6  H   UNL     1       8.837  31.483  60.072  1.00  0.00     0.164 HD
ENDROOT
BRANCH   1   7
HETATM    7  C   UNL     1       7.960  29.523  58.441  1.00  0.00     0.113 C 
HETATM    8  C   UNL     1       9.214  29.957  57.701  1.00  0.00     0.130 C 
HETATM    9  C   UNL     1       9.086  29.338  56.330  1.00  0.00     0.226 C 
HETATM   10  N   UNL     1       8.006  28.441  56.336  1.00  0.00    -0.316 N 
HETATM   11  O   UNL     1       9.854  29.604  55.417  1.00  0.00    -0.273 OA
HETATM   12  C   UNL     1       7.435  28.325  57.660  1.00  0.00     0.157 C 
BRANCH  10  13
HETATM   13  C   UNL     1       7.630  27.566  55.273  1.00  0.00     0.037 A 
HETATM   14  C   UNL     1       7.519  26.181  55.451  1.00  0.00     0.032 A 
HETATM   15  C   UNL     1       7.100  25.337  54.411  1.00  0.00     0.039 A 
HETATM   16  C   UNL     1       6.787  25.866  53.164  1.00  0.00     0.068 A 
HETATM   17  C   UNL     1       6.940  27.232  52.953  1.00  0.00     0.039 A 
HETATM   18  C   UNL     1       7.347  28.073  53.995  1.00  0.00     0.032 A 
BRANCH  16  19
HETATM   19  O   UNL     1       6.356  25.146  52.085  1.00  0.00    -0.352 OA
BRANCH  19  20
HETATM   20  C   UNL     1       4.987  25.342  51.725  1.00  0.00     0.171 C 
HETATM   21  C   UNL     1       4.956  26.050  50.382  1.00  0.00     0.034 C 
ENDBRANCH  19  20
ENDBRANCH  16  19
ENDBRANCH  10  13
ENDBRANCH   1   7
BRANCH   3  22
HETATM   22  C   UNL     1       7.912  32.797  61.418  1.00  0.00     0.129 C 
BRANCH  22  23
HETATM   23  C   UNL     1       7.979  32.286  62.867  1.00  0.00     0.058 C 
BRANCH  23  24
HETATM   24  C   UNL     1       7.035  32.887  63.890  1.00  0.00    -0.057 A 
HETATM   25  C   UNL     1       5.640  32.799  63.812  1.00  0.00     0.009 A 
HETATM   26  C   UNL     1       4.828  33.388  64.783  1.00  0.00     0.025 A 
HETATM   27  C   UNL     1       5.411  34.055  65.861  1.00  0.00     0.074 A 
HETATM   28  C   UNL     1       6.798  34.149  65.969  1.00  0.00     0.025 A 
HETATM   29  C   UNL     1       7.602  33.568  64.985  1.00  0.00     0.009 A 
BRANCH  27  30
HETATM   30  S   UNL     1       4.375  34.796  67.083  1.00  0.00     0.239 S 
HETATM   31  O   UNL     1       3.984  33.799  68.053  1.00  0.00    -0.206 OA
HETATM   32  O   UNL     1       4.933  36.072  67.463  1.00  0.00    -0.206 OA
BRANCH  30  33
HETATM   33  N   UNL     1       2.977  35.135  66.213  1.00  0.00    -0.225 NA
HETATM   34  H   UNL     1       2.541  34.262  65.913  1.00  0.00     0.136 HD
HETATM   35  H   UNL     1       2.366  35.736  66.766  1.00  0.00     0.136 HD
ENDBRANCH  30  33
ENDBRANCH  27  30
ENDBRANCH  23  24
ENDBRANCH  22  23
ENDBRANCH   3  22
TORSDOF 9
ENDMDL
MODEL 6
REMARK VINA RESULT:      -8.8      3.755     12.141
REMARK  9 active torsions:
REMARK  status: ('A' for Active; 'I' for Inactive)
REMARK    1  A    between atoms: C_2  and  O_3 
REMARK    2  A    between atoms: O_3  and  C_4 
REMARK    3  A    between atoms: C_7  and  N_8 
REMARK    4  A    between atoms: C_12  and  N_13 
REMARK       I    between atoms: N_13  and  C_14 
REMARK       I    between atoms: C_14  and  N_15 
REMARK    5  A    between atoms: N_15  and  C_16 
REMARK    6  A    between atoms: C_16  and  C_17 
REMARK    7  A    between atoms: C_17  and  C_18 
REMARK    8  A    between atoms: C_21  and  S_22 
REMARK    9  A    between atoms: S_22  and  N_23 
ROOT
HETATM    1  N   UNL     1       7.022  32.660  60.734  1.00  0.00    -0.336 N 
HETATM    2  C   UNL     1       7.861  31.960  59.935  1.00  0.00     0.316 C 
HETATM    3  N   UNL     1       7.563  30.655  59.717  1.00  0.00    -0.343 N 
HETATM    4  O   UNL     1       8.850  32.522  59.477  1.00  0.00    -0.248 OA
HETATM    5  H   UNL     1       7.377  33.601  60.873  1.00  0.00     0.164 HD
HETATM    6  H   UNL     1       6.585  30.408  59.717  1.00  0.00     0.164 HD
ENDROOT
BRANCH   1   7
HETATM    7  C   UNL     1       5.836  32.284  61.505  1.00  0.00     0.113 C 
HETATM    8  C   UNL     1       4.653  33.223  61.345  1.00  0.00     0.130 C 
HETATM    9  C   UNL     1       4.576  33.972  62.654  1.00  0.00     0.226 C 
HETATM   10  N   UNL     1       5.455  33.375  63.571  1.00  0.00    -0.316 N 
HETATM   11  O   UNL     1       3.825  34.922  62.821  1.00  0.00    -0.273 OA
HETATM   12  C   UNL     1       6.067  32.191  63.008  1.00  0.00     0.157 C 
BRANCH  10  13
HETATM   13  C   UNL     1       5.588  33.708  64.952  1.00  0.00     0.037 A 
HETATM   14  C   UNL     1       4.479  33.840  65.798  1.00  0.00     0.032 A 
HETATM   15  C   UNL     1       4.626  34.118  67.165  1.00  0.00     0.039 A 
HETATM   16  C   UNL     1       5.893  34.277  67.715  1.00  0.00     0.068 A 
HETATM   17  C   UNL     1       7.004  34.201  66.882  1.00  0.00     0.039 A 
HETATM   18  C   UNL     1       6.855  33.910  65.520  1.00  0.00     0.032 A 
BRANCH  16  19
HETATM   19  O   UNL     1       6.159  34.535  69.030  1.00  0.00    -0.352 OA
BRANCH  19  20
HETATM   20  C   UNL     1       7.270  35.401  69.272  1.00  0.00     0.171 C 
HETATM   21  C   UNL     1       8.247  34.663  70.171  1.00  0.00     0.034 C 
ENDBRANCH  19  20
ENDBRANCH  16  19
ENDBRANCH  10  13
ENDBRANCH   1   7
BRANCH   3  22
HETATM   22  C   UNL     1       8.419  29.816  58.892  1.00  0.00     0.129 C 
BRANCH  22  23
HETATM   23  C   UNL     1       8.028  29.771  57.406  1.00  0.00     0.058 C 
BRANCH  23  24
HETATM   24  C   UNL     1       7.725  28.424  56.778  1.00  0.00    -0.057 A 
HETATM   25  C   UNL     1       7.650  27.226  57.499  1.00  0.00     0.009 A 
HETATM   26  C   UNL     1       7.380  26.017  56.854  1.00  0.00     0.025 A 
HETATM   27  C   UNL     1       7.159  26.002  55.476  1.00  0.00     0.074 A 
HETATM   28  C   UNL     1       7.218  27.182  54.736  1.00  0.00     0.025 A 
HETATM   29  C   UNL     1       7.502  28.385  55.388  1.00  0.00     0.009 A 
BRANCH  27  30
HETATM   30  S   UNL     1       6.818  24.468  54.672  1.00  0.00     0.239 S 
HETATM   31  O   UNL     1       7.022  23.380  55.601  1.00  0.00    -0.206 OA
HETATM   32  O   UNL     1       5.615  24.604  53.888  1.00  0.00    -0.206 OA
BRANCH  30  33
HETATM   33  N   UNL     1       8.084  24.348  53.571  1.00  0.00    -0.225 NA
HETATM   34  H   UNL     1       8.399  25.283  53.310  1.00  0.00     0.136 HD
HETATM   35  H   UNL     1       8.819  23.755  53.957  1.00  0.00     0.136 HD
ENDBRANCH  30  33
ENDBRANCH  27  30
ENDBRANCH  23  24
ENDBRANCH  22  23
ENDBRANCH   3  22
TORSDOF 9
ENDMDL
MODEL 7
REMARK VINA RESULT:      -8.7      3.057      3.829
REMARK  9 active torsions:
REMARK  status: ('A' for Active; 'I' for Inactive)
REMARK    1  A    between atoms: C_2  and  O_3 
REMARK    2  A    between atoms: O_3  and  C_4 
REMARK    3  A    between atoms: C_7  and  N_8 
REMARK    4  A    between atoms: C_12  and  N_13 
REMARK       I    between atoms: N_13  and  C_14 
REMARK       I    between atoms: C_14  and  N_15 
REMARK    5  A    between atoms: N_15  and  C_16 
REMARK    6  A    between atoms: C_16  and  C_17 
REMARK    7  A    between atoms: C_17  and  C_18 
REMARK    8  A    between atoms: C_21  and  S_22 
REMARK    9  A    between atoms: S_22  and  N_23 
ROOT
HETATM    1  N   UNL     1       8.350  30.361  57.803  1.00  0.00    -0.336 N 
HETATM    2  C   UNL     1       8.962  31.121  58.741  1.00  0.00     0.316 C 
HETATM    3  N   UNL     1       8.577  30.945  60.029  1.00  0.00    -0.343 N 
HETATM    4  O   UNL     1       9.803  31.940  58.383  1.00  0.00    -0.248 OA
HETATM    5  H   UNL     1       8.674  30.621  56.877  1.00  0.00     0.164 HD
HETATM    6  H   UNL     1       8.274  30.019  60.288  1.00  0.00     0.164 HD
ENDROOT
BRANCH   1   7
HETATM    7  C   UNL     1       7.262  29.384  57.869  1.00  0.00     0.113 C 
HETATM    8  C   UNL     1       7.712  27.933  57.828  1.00  0.00     0.130 C 
HETATM    9  C   UNL     1       7.314  27.446  56.455  1.00  0.00     0.226 C 
HETATM   10  N   UNL     1       6.505  28.417  55.845  1.00  0.00    -0.316 N 
HETATM   11  O   UNL     1       7.658  26.356  56.022  1.00  0.00    -0.273 OA
HETATM   12  C   UNL     1       6.234  29.512  56.753  1.00  0.00     0.157 C 
BRANCH  10  13
HETATM   13  C   UNL     1       5.827  28.288  54.596  1.00  0.00     0.037 A 
HETATM   14  C   UNL     1       4.429  28.303  54.502  1.00  0.00     0.032 A 
HETATM   15  C   UNL     1       3.775  28.226  53.263  1.00  0.00     0.039 A 
HETATM   16  C   UNL     1       4.512  28.126  52.087  1.00  0.00     0.068 A 
HETATM   17  C   UNL     1       5.899  28.057  52.165  1.00  0.00     0.039 A 
HETATM   18  C   UNL     1       6.549  28.147  53.401  1.00  0.00     0.032 A 
BRANCH  16  19
HETATM   19  O   UNL     1       3.987  28.058  50.828  1.00  0.00    -0.352 OA
BRANCH  19  20
HETATM   20  C   UNL     1       4.901  27.660  49.803  1.00  0.00     0.171 C 
HETATM   21  C   UNL     1       4.686  28.571  48.608  1.00  0.00     0.034 C 
ENDBRANCH  19  20
ENDBRANCH  16  19
ENDBRANCH  10  13
ENDBRANCH   1   7
BRANCH   3  22
HETATM   22  C   UNL     1       9.161  31.733  61.103  1.00  0.00     0.129 C 
BRANCH  22  23
HETATM   23  C   UNL     1       8.701  31.332  62.514  1.00  0.00     0.058 C 
BRANCH  23  24
HETATM   24  C   UNL     1       7.556  32.099  63.147  1.00  0.00    -0.057 A 
HETATM   25  C   UNL     1       6.213  31.938  62.784  1.00  0.00     0.009 A 
HETATM   26  C   UNL     1       5.209  32.688  63.399  1.00  0.00     0.025 A 
HETATM   27  C   UNL     1       5.541  33.595  64.407  1.00  0.00     0.074 A 
HETATM   28  C   UNL     1       6.869  33.767  64.794  1.00  0.00     0.025 A 
HETATM   29  C   UNL     1       7.868  33.022  64.164  1.00  0.00     0.009 A 
BRANCH  27  30
HETATM   30  S   UNL     1       4.263  34.537  65.177  1.00  0.00     0.239 S 
HETATM   31  O   UNL     1       4.629  35.936  65.179  1.00  0.00    -0.206 OA
HETATM   32  O   UNL     1       2.983  34.071  64.703  1.00  0.00    -0.206 OA
BRANCH  30  33
HETATM   33  N   UNL     1       4.375  34.052  66.783  1.00  0.00    -0.225 NA
HETATM   34  H   UNL     1       5.351  34.068  67.078  1.00  0.00     0.136 HD
HETATM   35  H   UNL     1       3.757  34.625  67.359  1.00  0.00     0.136 HD
ENDBRANCH  30  33
ENDBRANCH  27  30
ENDBRANCH  23  24
ENDBRANCH  22  23
ENDBRANCH   3  22
TORSDOF 9
ENDMDL
MODEL 8
REMARK VINA RESULT:      -8.7      2.603      3.251
REMARK  9 active torsions:
REMARK  status: ('A' for Active; 'I' for Inactive)
REMARK    1  A    between atoms: C_2  and  O_3 
REMARK    2  A    between atoms: O_3  and  C_4 
REMARK    3  A    between atoms: C_7  and  N_8 
REMARK    4  A    between atoms: C_12  and  N_13 
REMARK       I    between atoms: N_13  and  C_14 
REMARK       I    between atoms: C_14  and  N_15 
REMARK    5  A    between atoms: N_15  and  C_16 
REMARK    6  A    between atoms: C_16  and  C_17 
REMARK    7  A    between atoms: C_17  and  C_18 
REMARK    8  A    between atoms: C_21  and  S_22 
REMARK    9  A    between atoms: S_22  and  N_23 
ROOT
HETATM    1  N   UNL     1       4.778  29.314  56.232  1.00  0.00    -0.336 N 
HETATM    2  C   UNL     1       4.808  30.220  57.236  1.00  0.00     0.316 C 
HETATM    3  N   UNL     1       5.758  31.186  57.172  1.00  0.00    -0.343 N 
HETATM    4  O   UNL     1       4.006  30.108  58.159  1.00  0.00    -0.248 OA
HETATM    5  H   UNL     1       4.071  28.610  56.417  1.00  0.00     0.164 HD
HETATM    6  H   UNL     1       6.035  31.485  56.250  1.00  0.00     0.164 HD
ENDROOT
BRANCH   1   7
HETATM    7  C   UNL     1       5.628  29.099  55.059  1.00  0.00     0.113 C 
HETATM    8  C   UNL     1       4.874  28.765  53.783  1.00  0.00     0.130 C 
HETATM    9  C   UNL     1       5.144  27.299  53.550  1.00  0.00     0.226 C 
HETATM   10  N   UNL     1       6.138  26.871  54.443  1.00  0.00    -0.316 N 
HETATM   11  O   UNL     1       4.568  26.657  52.683  1.00  0.00    -0.273 OA
HETATM   12  C   UNL     1       6.649  27.980  55.221  1.00  0.00     0.157 C 
BRANCH  10  13
HETATM   13  C   UNL     1       6.760  25.587  54.463  1.00  0.00     0.037 A 
HETATM   14  C   UNL     1       7.593  25.146  53.427  1.00  0.00     0.032 A 
HETATM   15  C   UNL     1       8.239  23.901  53.482  1.00  0.00     0.039 A 
HETATM   16  C   UNL     1       8.059  23.067  54.580  1.00  0.00     0.068 A 
HETATM   17  C   UNL     1       7.195  23.465  55.594  1.00  0.00     0.039 A 
HETATM   18  C   UNL     1       6.562  24.713  55.543  1.00  0.00     0.032 A 
BRANCH  16  19
HETATM   19  O   UNL     1       8.644  21.844  54.749  1.00  0.00    -0.352 OA
BRANCH  19  20
HETATM   20  C   UNL     1       7.869  20.727  54.309  1.00  0.00     0.171 C 
HETATM   21  C   UNL     1       8.282  20.406  52.883  1.00  0.00     0.034 C 
ENDBRANCH  19  20
ENDBRANCH  16  19
ENDBRANCH  10  13
ENDBRANCH   1   7
BRANCH   3  22
HETATM   22  C   UNL     1       5.883  32.188  58.218  1.00  0.00     0.129 C 
BRANCH  22  23
HETATM   23  C   UNL     1       6.851  31.811  59.352  1.00  0.00     0.058 C 
BRANCH  23  24
HETATM   24  C   UNL     1       6.605  32.385  60.734  1.00  0.00    -0.057 A 
HETATM   25  C   UNL     1       7.566  32.411  61.751  1.00  0.00     0.009 A 
HETATM   26  C   UNL     1       7.267  32.943  63.008  1.00  0.00     0.025 A 
HETATM   27  C   UNL     1       6.001  33.479  63.249  1.00  0.00     0.074 A 
HETATM   28  C   UNL     1       5.029  33.475  62.250  1.00  0.00     0.025 A 
HETATM   29  C   UNL     1       5.333  32.929  61.001  1.00  0.00     0.009 A 
BRANCH  27  30
HETATM   30  S   UNL     1       5.635  34.149  64.840  1.00  0.00     0.239 S 
HETATM   31  O   UNL     1       5.370  35.565  64.718  1.00  0.00    -0.206 OA
HETATM   32  O   UNL     1       4.747  33.251  65.537  1.00  0.00    -0.206 OA
BRANCH  30  33
HETATM   33  N   UNL     1       7.119  34.046  65.625  1.00  0.00    -0.225 NA
HETATM   34  H   UNL     1       7.664  33.283  65.226  1.00  0.00     0.136 HD
HETATM   35  H   UNL     1       7.586  34.952  65.595  1.00  0.00     0.136 HD
ENDBRANCH  30  33
ENDBRANCH  27  30
ENDBRANCH  23  24
ENDBRANCH  22  23
ENDBRANCH   3  22
TORSDOF 9
ENDMDL
MODEL 9
REMARK VINA RESULT:      -8.6      6.937     10.396
REMARK  9 active torsions:
REMARK  status: ('A' for Active; 'I' for Inactive)
REMARK    1  A    between atoms: C_2  and  O_3 
REMARK    2  A    between atoms: O_3  and  C_4 
REMARK    3  A    between atoms: C_7  and  N_8 
REMARK    4  A    between atoms: C_12  and  N_13 
REMARK       I    between atoms: N_13  and  C_14 
REMARK       I    between atoms: C_14  and  N_15 
REMARK    5  A    between atoms: N_15  and  C_16 
REMARK    6  A    between atoms: C_16  and  C_17 
REMARK    7  A    between atoms: C_17  and  C_18 
REMARK    8  A    between atoms: C_21  and  S_22 
REMARK    9  A    between atoms: S_22  and  N_23 
ROOT
HETATM    1  N   UNL     1       4.485  30.217  52.894  1.00  0.00    -0.336 N 
HETATM    2  C   UNL     1       3.958  31.208  52.139  1.00  0.00     0.316 C 
HETATM    3  N   UNL     1       2.624  31.162  51.898  1.00  0.00    -0.343 N 
HETATM    4  O   UNL     1       4.705  32.071  51.690  1.00  0.00    -0.248 OA
HETATM    5  H   UNL     1       5.493  30.322  52.955  1.00  0.00     0.164 HD
HETATM    6  H   UNL     1       2.049  30.753  52.619  1.00  0.00     0.164 HD
ENDROOT
BRANCH   1   7
HETATM    7  C   UNL     1       3.913  29.008  53.489  1.00  0.00     0.113 C 
HETATM    8  C   UNL     1       4.088  28.899  54.995  1.00  0.00     0.130 C 
HETATM    9  C   UNL     1       5.129  27.823  55.184  1.00  0.00     0.226 C 
HETATM   10  N   UNL     1       5.364  27.196  53.951  1.00  0.00    -0.316 N 
HETATM   11  O   UNL     1       5.625  27.577  56.274  1.00  0.00    -0.273 OA
HETATM   12  C   UNL     1       4.474  27.706  52.930  1.00  0.00     0.157 C 
BRANCH  10  13
HETATM   13  C   UNL     1       6.187  26.051  53.730  1.00  0.00     0.037 A 
HETATM   14  C   UNL     1       7.153  26.011  52.716  1.00  0.00     0.032 A 
HETATM   15  C   UNL     1       7.990  24.899  52.541  1.00  0.00     0.039 A 
HETATM   16  C   UNL     1       7.872  23.795  53.378  1.00  0.00     0.068 A 
HETATM   17  C   UNL     1       6.884  23.795  54.358  1.00  0.00     0.039 A 
HETATM   18  C   UNL     1       6.059  24.911  54.539  1.00  0.00     0.032 A 
BRANCH  16  19
HETATM   19  O   UNL     1       8.638  22.666  53.312  1.00  0.00    -0.352 OA
BRANCH  19  20
HETATM   20  C   UNL     1       7.997  21.464  53.748  1.00  0.00     0.171 C 
HETATM   21  C   UNL     1       8.365  20.361  52.772  1.00  0.00     0.034 C 
ENDBRANCH  19  20
ENDBRANCH  16  19
ENDBRANCH  10  13
ENDBRANCH   1   7
BRANCH   3  22
HETATM   22  C   UNL     1       1.972  32.171  51.077  1.00  0.00     0.129 C 
BRANCH  22  23
HETATM   23  C   UNL     1       1.744  31.755  49.615  1.00  0.00     0.058 C 
BRANCH  23  24
HETATM   24  C   UNL     1       2.180  30.369  49.181  1.00  0.00    -0.057 A 
HETATM   25  C   UNL     1       1.384  29.224  49.310  1.00  0.00     0.009 A 
HETATM   26  C   UNL     1       1.854  27.974  48.901  1.00  0.00     0.025 A 
HETATM   27  C   UNL     1       3.125  27.863  48.334  1.00  0.00     0.074 A 
HETATM   28  C   UNL     1       3.933  28.989  48.185  1.00  0.00     0.025 A 
HETATM   29  C   UNL     1       3.460  30.233  48.608  1.00  0.00     0.009 A 
BRANCH  27  30
HETATM   30  S   UNL     1       3.708  26.279  47.821  1.00  0.00     0.239 S 
HETATM   31  O   UNL     1       3.771  25.395  48.963  1.00  0.00    -0.206 OA
HETATM   32  O   UNL     1       3.051  25.910  46.591  1.00  0.00    -0.206 OA
BRANCH  30  33
HETATM   33  N   UNL     1       5.310  26.595  47.422  1.00  0.00    -0.225 NA
HETATM   34  H   UNL     1       5.357  26.989  46.482  1.00  0.00     0.136 HD
HETATM   35  H   UNL     1       5.733  27.184  48.140  1.00  0.00     0.136 HD
ENDBRANCH  30  33
ENDBRANCH  27  30
ENDBRANCH  23  24
ENDBRANCH  22  23
ENDBRANCH   3  22
TORSDOF 9
ENDMDL
MODEL 10
REMARK VINA RESULT:      -8.6      4.598     10.427
REMARK  9 active torsions:
REMARK  status: ('A' for Active; 'I' for Inactive)
REMARK    1  A    between atoms: C_2  and  O_3 
REMARK    2  A    between atoms: O_3  and  C_4 
REMARK    3  A    between atoms: C_7  and  N_8 
REMARK    4  A    between atoms: C_12  and  N_13 
REMARK       I    between atoms: N_13  and  C_14 
REMARK       I    between atoms: C_14  and  N_15 
REMARK    5  A    between atoms: N_15  and  C_16 
REMARK    6  A    between atoms: C_16  and  C_17 
REMARK    7  A    between atoms: C_17  and  C_18 
REMARK    8  A    between atoms: C_21  and  S_22 
REMARK    9  A    between atoms: S_22  and  N_23 
ROOT
HETATM    1  N   UNL     1       4.253  28.841  51.787  1.00  0.00    -0.336 N 
HETATM    2  C   UNL     1       4.853  27.728  51.304  1.00  0.00     0.316 C 
HETATM    3  N   UNL     1       4.796  26.611  52.072  1.00  0.00    -0.343 N 
HETATM    4  O   UNL     1       5.435  27.789  50.226  1.00  0.00    -0.248 OA
HETATM    5  H   UNL     1       4.412  29.623  51.160  1.00  0.00     0.164 HD
HETATM    6  H   UNL     1       3.977  26.501  52.649  1.00  0.00     0.164 HD
ENDROOT
BRANCH   1   7
HETATM    7  C   UNL     1       3.574  29.138  53.050  1.00  0.00     0.113 C 
HETATM    8  C   UNL     1       3.256  30.608  53.267  1.00  0.00     0.130 C 
HETATM    9  C   UNL     1       4.228  31.058  54.331  1.00  0.00     0.226 C 
HETATM   10  N   UNL     1       4.879  29.932  54.858  1.00  0.00    -0.316 N 
HETATM   11  O   UNL     1       4.353  32.232  54.648  1.00  0.00    -0.273 OA
HETATM   12  C   UNL     1       4.345  28.711  54.292  1.00  0.00     0.157 C 
BRANCH  10  13
HETATM   13  C   UNL     1       5.780  29.919  55.965  1.00  0.00     0.037 A 
HETATM   14  C   UNL     1       5.523  30.630  57.144  1.00  0.00     0.032 A 
HETATM   15  C   UNL     1       6.392  30.568  58.244  1.00  0.00     0.039 A 
HETATM   16  C   UNL     1       7.545  29.793  58.182  1.00  0.00     0.068 A 
HETATM   17  C   UNL     1       7.844  29.121  57.002  1.00  0.00     0.039 A 
HETATM   18  C   UNL     1       6.968  29.174  55.911  1.00  0.00     0.032 A 
BRANCH  16  19
HETATM   19  O   UNL     1       8.455  29.647  59.191  1.00  0.00    -0.352 OA
BRANCH  19  20
HETATM   20  C   UNL     1       9.358  30.741  59.366  1.00  0.00     0.171 C 
HETATM   21  C   UNL     1       9.299  31.165  60.823  1.00  0.00     0.034 C 
ENDBRANCH  19  20
ENDBRANCH  16  19
ENDBRANCH  10  13
ENDBRANCH   1   7
BRANCH   3  22
HETATM   22  C   UNL     1       5.432  25.374  51.647  1.00  0.00     0.129 C 
BRANCH  22  23
HETATM   23  C   UNL     1       6.883  25.204  52.126  1.00  0.00     0.058 C 
BRANCH  23  24
HETATM   24  C   UNL     1       7.172  24.185  53.212  1.00  0.00    -0.057 A 
HETATM   25  C   UNL     1       6.946  24.411  54.575  1.00  0.00     0.009 A 
HETATM   26  C   UNL     1       7.248  23.432  55.525  1.00  0.00     0.025 A 
HETATM   27  C   UNL     1       7.759  22.201  55.111  1.00  0.00     0.074 A 
HETATM   28  C   UNL     1       7.984  21.947  53.759  1.00  0.00     0.025 A 
HETATM   29  C   UNL     1       7.692  22.937  52.818  1.00  0.00     0.009 A 
BRANCH  27  30
HETATM   30  S   UNL     1       8.137  20.972  56.320  1.00  0.00     0.239 S 
HETATM   31  O   UNL     1       8.472  21.612  57.571  1.00  0.00    -0.206 OA
HETATM   32  O   UNL     1       7.166  19.908  56.228  1.00  0.00    -0.206 OA
BRANCH  30  33
HETATM   33  N   UNL     1       9.585  20.337  55.749  1.00  0.00    -0.225 NA
HETATM   34  H   UNL     1       9.666  19.361  56.034  1.00  0.00     0.136 HD
HETATM   35  H   UNL     1       9.650  20.483  54.741  1.00  0.00     0.136 HD
ENDBRANCH  30  33
ENDBRANCH  27  30
ENDBRANCH  23  24
ENDBRANCH  22  23
ENDBRANCH   3  22
TORSDOF 9
ENDMDL
