MODEL 1
REMARK VINA RESULT:     -10.7      0.000      0.000
REMARK  9 active torsions:
REMARK  status: ('A' for Active; 'I' for Inactive)
REMARK    1  A    between atoms: C_7  and  C_8 
REMARK    2  A    between atoms: C_9  and  O_10 
REMARK    3  A    between atoms: C_12  and  N_13 
REMARK    4  A    between atoms: N_13  and  C_14 
REMARK    5  A    between atoms: C_14  and  N_15 
REMARK       I    between atoms: N_15  and  C_16 
REMARK    6  A    between atoms: C_16  and  C_17 
REMARK    7  A    between atoms: C_19  and  O_20 
REMARK    8  A    between atoms: O_20  and  C_21 
REMARK    9  A    between atoms: C_21  and  C_22 
ROOT
HETATM    1  N   UNL     1       6.503  30.803  57.347  1.00  0.00    -0.337 N 
HETATM    2  H   UNL     1       6.281  31.406  56.561  1.00  0.00     0.168 HD
ENDROOT
BRANCH   1   3
HETATM    3  C   UNL     1       6.818  29.477  56.986  1.00  0.00     0.036 A 
HETATM    4  C   UNL     1       5.824  28.746  56.329  1.00  0.00     0.067 A 
HETATM    5  C   UNL     1       6.028  27.407  55.989  1.00  0.00     0.082 A 
HETATM    6  C   UNL     1       7.222  26.748  56.318  1.00  0.00     0.050 A 
HETATM    7  C   UNL     1       8.208  27.492  56.991  1.00  0.00     0.021 A 
HETATM    8  C   UNL     1       8.011  28.841  57.321  1.00  0.00     0.030 A 
BRANCH   5   9
HETATM    9  O   UNL     1       4.979  26.810  55.336  1.00  0.00    -0.360 OA
HETATM   10  H   UNL     1       4.869  25.907  55.687  1.00  0.00     0.217 HD
ENDBRANCH   5   9
BRANCH   6  11
HETATM   11  C   UNL     1       7.487  25.340  56.023  1.00  0.00     0.183 A 
HETATM   12  N   UNL     1       7.750  24.347  56.856  1.00  0.00    -0.221 NA
HETATM   13  C   UNL     1       7.896  23.258  56.034  1.00  0.00     0.093 A 
HETATM   14  C   UNL     1       7.719  23.636  54.715  1.00  0.00     0.107 A 
HETATM   15  C   UNL     1       8.178  21.917  56.320  1.00  0.00     0.035 A 
HETATM   16  C   UNL     1       7.803  22.780  53.624  1.00  0.00     0.046 A 
HETATM   17  O   UNL     1       7.454  24.973  54.697  1.00  0.00    -0.289 OA
HETATM   18  C   UNL     1       8.079  21.433  53.914  1.00  0.00    -0.059 A 
HETATM   19  C   UNL     1       8.216  20.435  52.800  1.00  0.00     0.048 C 
HETATM   20  C   UNL     1       8.269  21.016  55.246  1.00  0.00     0.009 A 
ENDBRANCH   6  11
ENDBRANCH   1   3
BRANCH   1  21
HETATM   21  C   UNL     1       6.173  31.334  58.542  1.00  0.00     0.157 C 
HETATM   22  S   UNL     1       4.841  32.346  58.636  1.00  0.00    -0.047 SA
BRANCH  21  23
HETATM   23  N   UNL     1       6.914  31.168  59.670  1.00  0.00    -0.201 NA
HETATM   24  C   UNL     1       7.713  32.187  60.176  1.00  0.00     0.237 C 
HETATM   25  O   UNL     1       8.677  32.690  59.610  1.00  0.00    -0.274 OA
HETATM   26  H   UNL     1       6.295  30.760  60.355  1.00  0.00     0.139 HD
BRANCH  24  27
HETATM   27  C   UNL     1       7.367  32.677  61.543  1.00  0.00     0.029 A 
HETATM   28  C   UNL     1       6.255  33.492  61.811  1.00  0.00     0.053 A 
HETATM   29  C   UNL     1       6.047  33.977  63.105  1.00  0.00     0.069 A 
HETATM   30  C   UNL     1       6.923  33.610  64.131  1.00  0.00     0.037 A 
HETATM   31  C   UNL     1       8.008  32.775  63.877  1.00  0.00     0.004 A 
HETATM   32  C   UNL     1       8.231  32.311  62.585  1.00  0.00     0.017 A 
BRANCH  29  33
HETATM   33  O   UNL     1       5.036  34.806  63.502  1.00  0.00    -0.351 OA
BRANCH  33  34
HETATM   34  C   UNL     1       3.987  34.247  64.292  1.00  0.00     0.179 C 
BRANCH  34  35
HETATM   35  C   UNL     1       3.829  35.061  65.588  1.00  0.00     0.002 C 
HETATM   36  C   UNL     1       4.329  34.284  66.807  1.00  0.00     0.011 C 
HETATM   37  C   UNL     1       4.562  36.400  65.487  1.00  0.00     0.011 C 
ENDBRANCH  34  35
ENDBRANCH  33  34
ENDBRANCH  29  33
ENDBRANCH  24  27
ENDBRANCH  21  23
ENDBRANCH   1  21
TORSDOF 9
ENDMDL
MODEL 2
REMARK VINA RESULT:     -10.6      1.673      2.000
REMARK  9 active torsions:
REMARK  status: ('A' for Active; 'I' for Inactive)
REMARK    1  A    between atoms: C_7  and  C_8 
REMARK    2  A    between atoms: C_9  and  O_10 
REMARK    3  A    between atoms: C_12  and  N_13 
REMARK    4  A    between atoms: N_13  and  C_14 
REMARK    5  A    between atoms: C_14  and  N_15 
REMARK       I    between atoms: N_15  and  C_16 
REMARK    6  A    between atoms: C_16  and  C_17 
REMARK    7  A    between atoms: C_19  and  O_20 
REMARK    8  A    between atoms: O_20  and  C_21 
REMARK    9  A    between atoms: C_21  and  C_22 
ROOT
HETATM    1  N   UNL     1       7.002  30.830  58.215  1.00  0.00    -0.337 N 
HETATM    2  H   UNL     1       6.022  31.034  58.388  1.00  0.00     0.168 HD
ENDROOT
BRANCH   1   3
HETATM    3  C   UNL     1       7.224  29.630  57.510  1.00  0.00     0.036 A 
HETATM    4  C   UNL     1       6.930  29.635  56.143  1.00  0.00     0.067 A 
HETATM    5  C   UNL     1       7.062  28.472  55.379  1.00  0.00     0.082 A 
HETATM    6  C   UNL     1       7.467  27.262  55.962  1.00  0.00     0.050 A 
HETATM    7  C   UNL     1       7.745  27.268  57.340  1.00  0.00     0.021 A 
HETATM    8  C   UNL     1       7.626  28.438  58.107  1.00  0.00     0.030 A 
BRANCH   5   9
HETATM    9  O   UNL     1       6.756  28.617  54.050  1.00  0.00    -0.360 OA
HETATM   10  H   UNL     1       7.567  28.479  53.527  1.00  0.00     0.217 HD
ENDBRANCH   5   9
BRANCH   6  11
HETATM   11  C   UNL     1       7.591  26.003  55.228  1.00  0.00     0.183 A 
HETATM   12  N   UNL     1       7.539  25.787  53.925  1.00  0.00    -0.221 NA
HETATM   13  C   UNL     1       7.730  24.433  53.807  1.00  0.00     0.093 A 
HETATM   14  C   UNL     1       7.887  23.869  55.060  1.00  0.00     0.107 A 
HETATM   15  C   UNL     1       7.784  23.602  52.682  1.00  0.00     0.035 A 
HETATM   16  C   UNL     1       8.094  22.517  55.305  1.00  0.00     0.046 A 
HETATM   17  O   UNL     1       7.801  24.871  55.982  1.00  0.00    -0.289 OA
HETATM   18  C   UNL     1       8.155  21.687  54.173  1.00  0.00    -0.059 A 
HETATM   19  C   UNL     1       8.349  20.205  54.334  1.00  0.00     0.048 C 
HETATM   20  C   UNL     1       7.994  22.228  52.883  1.00  0.00     0.009 A 
ENDBRANCH   6  11
ENDBRANCH   1   3
BRANCH   1  21
HETATM   21  C   UNL     1       7.847  31.595  58.936  1.00  0.00     0.157 C 
HETATM   22  S   UNL     1       9.471  31.186  58.977  1.00  0.00    -0.047 SA
BRANCH  21  23
HETATM   23  N   UNL     1       7.444  32.637  59.710  1.00  0.00    -0.201 NA
HETATM   24  C   UNL     1       6.275  32.580  60.461  1.00  0.00     0.237 C 
HETATM   25  O   UNL     1       5.140  32.468  60.013  1.00  0.00    -0.274 OA
HETATM   26  H   UNL     1       8.254  32.921  60.241  1.00  0.00     0.139 HD
BRANCH  24  27
HETATM   27  C   UNL     1       6.437  32.699  61.940  1.00  0.00     0.029 A 
HETATM   28  C   UNL     1       5.354  32.803  62.828  1.00  0.00     0.053 A 
HETATM   29  C   UNL     1       5.591  32.996  64.191  1.00  0.00     0.069 A 
HETATM   30  C   UNL     1       6.905  33.037  64.667  1.00  0.00     0.037 A 
HETATM   31  C   UNL     1       7.983  32.901  63.795  1.00  0.00     0.004 A 
HETATM   32  C   UNL     1       7.749  32.735  62.434  1.00  0.00     0.017 A 
BRANCH  29  33
HETATM   33  O   UNL     1       4.641  33.152  65.160  1.00  0.00    -0.351 OA
BRANCH  33  34
HETATM   34  C   UNL     1       3.807  34.309  65.097  1.00  0.00     0.179 C 
BRANCH  34  35
HETATM   35  C   UNL     1       4.649  35.567  65.374  1.00  0.00     0.002 C 
HETATM   36  C   UNL     1       4.431  36.639  64.307  1.00  0.00     0.011 C 
HETATM   37  C   UNL     1       4.338  36.139  66.759  1.00  0.00     0.011 C 
ENDBRANCH  34  35
ENDBRANCH  33  34
ENDBRANCH  29  33
ENDBRANCH  24  27
ENDBRANCH  21  23
ENDBRANCH   1  21
TORSDOF 9
ENDMDL
MODEL 3
REMARK VINA RESULT:     -10.6      2.253     12.106
REMARK  9 active torsions:
REMARK  status: ('A' for Active; 'I' for Inactive)
REMARK    1  A    between atoms: C_7  and  C_8 
REMARK    2  A    between atoms: C_9  and  O_10 
REMARK    3  A    between atoms: C_12  and  N_13 
REMARK    4  A    between atoms: N_13  and  C_14 
REMARK    5  A    between atoms: C_14  and  N_15 
REMARK       I    between atoms: N_15  and  C_16 
REMARK    6  A    between atoms: C_16  and  C_17 
REMARK    7  A    between atoms: C_19  and  O_20 
REMARK    8  A    between atoms: O_20  and  C_21 
REMARK    9  A    between atoms: C_21  and  C_22 
ROOT
HETATM    1  N   UNL     1       9.453  31.383  59.078  1.00  0.00    -0.337 N 
HETATM    2  H   UNL     1      10.261  31.961  58.871  1.00  0.00     0.168 HD
ENDROOT
BRANCH   1   3
HETATM    3  C   UNL     1       8.788  31.728  60.272  1.00  0.00     0.036 A 
HETATM    4  C   UNL     1       7.484  32.218  60.152  1.00  0.00     0.067 A 
HETATM    5  C   UNL     1       6.773  32.642  61.278  1.00  0.00     0.082 A 
HETATM    6  C   UNL     1       7.352  32.615  62.556  1.00  0.00     0.050 A 
HETATM    7  C   UNL     1       8.669  32.133  62.659  1.00  0.00     0.021 A 
HETATM    8  C   UNL     1       9.381  31.694  61.532  1.00  0.00     0.030 A 
BRANCH   5   9
HETATM    9  O   UNL     1       5.500  33.086  61.024  1.00  0.00    -0.360 OA
HETATM   10  H   UNL     1       5.368  33.932  61.490  1.00  0.00     0.217 HD
ENDBRANCH   5   9
BRANCH   6  11
HETATM   11  C   UNL     1       6.677  33.076  63.768  1.00  0.00     0.183 A 
HETATM   12  N   UNL     1       5.384  33.228  63.999  1.00  0.00    -0.221 NA
HETATM   13  C   UNL     1       5.330  33.669  65.298  1.00  0.00     0.093 A 
HETATM   14  C   UNL     1       6.610  33.776  65.812  1.00  0.00     0.107 A 
HETATM   15  C   UNL     1       4.245  34.003  66.115  1.00  0.00     0.035 A 
HETATM   16  C   UNL     1       6.918  34.199  67.099  1.00  0.00     0.046 A 
HETATM   17  O   UNL     1       7.484  33.395  64.837  1.00  0.00    -0.289 OA
HETATM   18  C   UNL     1       5.826  34.526  67.920  1.00  0.00    -0.059 A 
HETATM   19  C   UNL     1       6.056  35.020  69.320  1.00  0.00     0.048 C 
HETATM   20  C   UNL     1       4.510  34.433  67.426  1.00  0.00     0.009 A 
ENDBRANCH   6  11
ENDBRANCH   1   3
BRANCH   1  21
HETATM   21  C   UNL     1       9.381  30.267  58.324  1.00  0.00     0.157 C 
HETATM   22  S   UNL     1      10.458  30.082  57.053  1.00  0.00    -0.047 SA
BRANCH  21  23
HETATM   23  N   UNL     1       8.423  29.316  58.476  1.00  0.00    -0.201 NA
HETATM   24  C   UNL     1       7.476  29.068  57.489  1.00  0.00     0.237 C 
HETATM   25  O   UNL     1       6.631  29.862  57.091  1.00  0.00    -0.274 OA
HETATM   26  H   UNL     1       8.900  28.486  58.797  1.00  0.00     0.139 HD
BRANCH  24  27
HETATM   27  C   UNL     1       7.486  27.697  56.896  1.00  0.00     0.029 A 
HETATM   28  C   UNL     1       6.931  27.397  55.641  1.00  0.00     0.053 A 
HETATM   29  C   UNL     1       6.906  26.074  55.193  1.00  0.00     0.069 A 
HETATM   30  C   UNL     1       7.475  25.066  55.978  1.00  0.00     0.037 A 
HETATM   31  C   UNL     1       8.055  25.364  57.209  1.00  0.00     0.004 A 
HETATM   32  C   UNL     1       8.059  26.677  57.667  1.00  0.00     0.017 A 
BRANCH  29  33
HETATM   33  O   UNL     1       6.367  25.631  54.019  1.00  0.00    -0.351 OA
BRANCH  33  34
HETATM   34  C   UNL     1       6.248  24.221  53.829  1.00  0.00     0.179 C 
BRANCH  34  35
HETATM   35  C   UNL     1       7.141  23.781  52.656  1.00  0.00     0.002 C 
HETATM   36  C   UNL     1       7.976  24.942  52.115  1.00  0.00     0.011 C 
HETATM   37  C   UNL     1       8.058  22.627  53.069  1.00  0.00     0.011 C 
ENDBRANCH  34  35
ENDBRANCH  33  34
ENDBRANCH  29  33
ENDBRANCH  24  27
ENDBRANCH  21  23
ENDBRANCH   1  21
TORSDOF 9
ENDMDL
MODEL 4
REMARK VINA RESULT:     -10.5      2.153     12.091
REMARK  9 active torsions:
REMARK  status: ('A' for Active; 'I' for Inactive)
REMARK    1  A    between atoms: C_7  and  C_8 
REMARK    2  A    between atoms: C_9  and  O_10 
REMARK    3  A    between atoms: C_12  and  N_13 
REMARK    4  A    between atoms: N_13  and  C_14 
REMARK    5  A    between atoms: C_14  and  N_15 
REMARK       I    between atoms: N_15  and  C_16 
REMARK    6  A    between atoms: C_16  and  C_17 
REMARK    7  A    between atoms: C_19  and  O_20 
REMARK    8  A    between atoms: O_20  and  C_21 
REMARK    9  A    between atoms: C_21  and  C_22 
ROOT
HETATM    1  N   UNL     1       8.264  30.197  57.611  1.00  0.00    -0.337 N 
HETATM    2  H   UNL     1       7.975  30.704  56.780  1.00  0.00     0.168 HD
ENDROOT
BRANCH   1   3
HETATM    3  C   UNL     1       7.946  30.846  58.822  1.00  0.00     0.036 A 
HETATM    4  C   UNL     1       8.623  30.417  59.967  1.00  0.00     0.067 A 
HETATM    5  C   UNL     1       8.326  30.962  61.219  1.00  0.00     0.082 A 
HETATM    6  C   UNL     1       7.326  31.933  61.369  1.00  0.00     0.050 A 
HETATM    7  C   UNL     1       6.643  32.345  60.211  1.00  0.00     0.021 A 
HETATM    8  C   UNL     1       6.948  31.809  58.950  1.00  0.00     0.030 A 
BRANCH   5   9
HETATM    9  O   UNL     1       9.072  30.463  62.257  1.00  0.00    -0.360 OA
HETATM   10  H   UNL     1       8.873  29.514  62.354  1.00  0.00     0.217 HD
ENDBRANCH   5   9
BRANCH   6  11
HETATM   11  C   UNL     1       6.942  32.519  62.653  1.00  0.00     0.183 A 
HETATM   12  N   UNL     1       7.681  32.733  63.729  1.00  0.00    -0.221 NA
HETATM   13  C   UNL     1       6.810  33.312  64.618  1.00  0.00     0.093 A 
HETATM   14  C   UNL     1       5.556  33.422  64.044  1.00  0.00     0.107 A 
HETATM   15  C   UNL     1       6.996  33.771  65.926  1.00  0.00     0.035 A 
HETATM   16  C   UNL     1       4.438  33.959  64.671  1.00  0.00     0.046 A 
HETATM   17  O   UNL     1       5.630  32.916  62.780  1.00  0.00    -0.289 OA
HETATM   18  C   UNL     1       4.630  34.426  65.983  1.00  0.00    -0.059 A 
HETATM   19  C   UNL     1       3.476  35.000  66.755  1.00  0.00     0.048 C 
HETATM   20  C   UNL     1       5.893  34.324  66.598  1.00  0.00     0.009 A 
ENDBRANCH   6  11
ENDBRANCH   1   3
BRANCH   1  21
HETATM   21  C   UNL     1       9.116  29.183  57.354  1.00  0.00     0.157 C 
HETATM   22  S   UNL     1      10.700  29.544  56.944  1.00  0.00    -0.047 SA
BRANCH  21  23
HETATM   23  N   UNL     1       8.742  27.877  57.320  1.00  0.00    -0.201 NA
HETATM   24  C   UNL     1       7.466  27.492  56.926  1.00  0.00     0.237 C 
HETATM   25  O   UNL     1       6.421  27.781  57.499  1.00  0.00    -0.274 OA
HETATM   26  H   UNL     1       9.480  27.387  56.836  1.00  0.00     0.139 HD
BRANCH  24  27
HETATM   27  C   UNL     1       7.384  26.625  55.713  1.00  0.00     0.029 A 
HETATM   28  C   UNL     1       7.181  25.237  55.771  1.00  0.00     0.053 A 
HETATM   29  C   UNL     1       7.201  24.484  54.594  1.00  0.00     0.069 A 
HETATM   30  C   UNL     1       7.378  25.126  53.364  1.00  0.00     0.037 A 
HETATM   31  C   UNL     1       7.546  26.506  53.298  1.00  0.00     0.004 A 
HETATM   32  C   UNL     1       7.552  27.255  54.472  1.00  0.00     0.017 A 
BRANCH  29  33
HETATM   33  O   UNL     1       7.057  23.129  54.502  1.00  0.00    -0.351 OA
BRANCH  33  34
HETATM   34  C   UNL     1       7.662  22.323  55.514  1.00  0.00     0.179 C 
BRANCH  34  35
HETATM   35  C   UNL     1       8.458  21.183  54.857  1.00  0.00     0.002 C 
HETATM   36  C   UNL     1       8.463  19.924  55.725  1.00  0.00     0.011 C 
HETATM   37  C   UNL     1       7.904  20.856  53.468  1.00  0.00     0.011 C 
ENDBRANCH  34  35
ENDBRANCH  33  34
ENDBRANCH  29  33
ENDBRANCH  24  27
ENDBRANCH  21  23
ENDBRANCH   1  21
TORSDOF 9
ENDMDL
MODEL 5
REMARK VINA RESULT:     -10.3      2.185     11.280
REMARK  9 active torsions:
REMARK  status: ('A' for Active; 'I' for Inactive)
REMARK    1  A    between atoms: C_7  and  C_8 
REMARK    2  A    between atoms: C_9  and  O_10 
REMARK    3  A    between atoms: C_12  and  N_13 
REMARK    4  A    between atoms: N_13  and  C_14 
REMARK    5  A    between atoms: C_14  and  N_15 
REMARK       I    between atoms: N_15  and  C_16 
REMARK    6  A    between atoms: C_16  and  C_17 
REMARK    7  A    between atoms: C_19  and  O_20 
REMARK    8  A    between atoms: O_20  and  C_21 
REMARK    9  A    between atoms: C_21  and  C_22 
ROOT
HETATM    1  N   UNL     1       5.783  29.562  54.618  1.00  0.00    -0.337 N 
HETATM    2  H   UNL     1       6.565  29.563  53.970  1.00  0.00     0.168 HD
ENDROOT
BRANCH   1   3
HETATM    3  C   UNL     1       6.079  30.121  55.878  1.00  0.00     0.036 A 
HETATM    4  C   UNL     1       6.984  29.424  56.684  1.00  0.00     0.067 A 
HETATM    5  C   UNL     1       7.287  29.873  57.971  1.00  0.00     0.082 A 
HETATM    6  C   UNL     1       6.676  31.018  58.504  1.00  0.00     0.050 A 
HETATM    7  C   UNL     1       5.757  31.701  57.688  1.00  0.00     0.021 A 
HETATM    8  C   UNL     1       5.461  31.260  56.389  1.00  0.00     0.030 A 
BRANCH   5   9
HETATM    9  O   UNL     1       8.200  29.106  58.650  1.00  0.00    -0.360 OA
HETATM   10  H   UNL     1       7.790  28.795  59.478  1.00  0.00     0.217 HD
ENDBRANCH   5   9
BRANCH   6  11
HETATM   11  C   UNL     1       6.922  31.521  59.855  1.00  0.00     0.183 A 
HETATM   12  N   UNL     1       7.888  31.208  60.701  1.00  0.00    -0.221 NA
HETATM   13  C   UNL     1       7.633  31.990  61.799  1.00  0.00     0.093 A 
HETATM   14  C   UNL     1       6.501  32.754  61.579  1.00  0.00     0.107 A 
HETATM   15  C   UNL     1       8.303  32.114  63.021  1.00  0.00     0.035 A 
HETATM   16  C   UNL     1       5.958  33.653  62.489  1.00  0.00     0.046 A 
HETATM   17  O   UNL     1       6.036  32.462  60.331  1.00  0.00    -0.289 OA
HETATM   18  C   UNL     1       6.638  33.781  63.712  1.00  0.00    -0.059 A 
HETATM   19  C   UNL     1       6.114  34.708  64.772  1.00  0.00     0.048 C 
HETATM   20  C   UNL     1       7.790  33.014  63.970  1.00  0.00     0.009 A 
ENDBRANCH   6  11
ENDBRANCH   1   3
BRANCH   1  21
HETATM   21  C   UNL     1       4.755  28.785  54.220  1.00  0.00     0.157 C 
HETATM   22  S   UNL     1       3.549  29.464  53.275  1.00  0.00    -0.047 SA
BRANCH  21  23
HETATM   23  N   UNL     1       4.589  27.496  54.615  1.00  0.00    -0.201 NA
HETATM   24  C   UNL     1       5.344  26.462  54.073  1.00  0.00     0.237 C 
HETATM   25  O   UNL     1       5.337  26.109  52.900  1.00  0.00    -0.274 OA
HETATM   26  H   UNL     1       4.588  27.510  55.624  1.00  0.00     0.139 HD
BRANCH  24  27
HETATM   27  C   UNL     1       6.211  25.710  55.027  1.00  0.00     0.029 A 
HETATM   28  C   UNL     1       7.186  24.785  54.617  1.00  0.00     0.053 A 
HETATM   29  C   UNL     1       7.899  24.060  55.576  1.00  0.00     0.069 A 
HETATM   30  C   UNL     1       7.669  24.294  56.935  1.00  0.00     0.037 A 
HETATM   31  C   UNL     1       6.727  25.233  57.346  1.00  0.00     0.004 A 
HETATM   32  C   UNL     1       5.998  25.939  56.394  1.00  0.00     0.017 A 
BRANCH  29  33
HETATM   33  O   UNL     1       8.844  23.105  55.325  1.00  0.00    -0.351 OA
BRANCH  33  34
HETATM   34  C   UNL     1       8.855  22.501  54.031  1.00  0.00     0.179 C 
BRANCH  34  35
HETATM   35  C   UNL     1       8.026  21.206  54.060  1.00  0.00     0.002 C 
HETATM   36  C   UNL     1       8.267  20.352  52.815  1.00  0.00     0.011 C 
HETATM   37  C   UNL     1       8.330  20.389  55.319  1.00  0.00     0.011 C 
ENDBRANCH  34  35
ENDBRANCH  33  34
ENDBRANCH  29  33
ENDBRANCH  24  27
ENDBRANCH  21  23
ENDBRANCH   1  21
TORSDOF 9
ENDMDL
MODEL 6
REMARK VINA RESULT:     -10.3      1.682      2.237
REMARK  9 active torsions:
REMARK  status: ('A' for Active; 'I' for Inactive)
REMARK    1  A    between atoms: C_7  and  C_8 
REMARK    2  A    between atoms: C_9  and  O_10 
REMARK    3  A    between atoms: C_12  and  N_13 
REMARK    4  A    between atoms: N_13  and  C_14 
REMARK    5  A    between atoms: C_14  and  N_15 
REMARK       I    between atoms: N_15  and  C_16 
REMARK    6  A    between atoms: C_16  and  C_17 
REMARK    7  A    between atoms: C_19  and  O_20 
REMARK    8  A    between atoms: O_20  and  C_21 
REMARK    9  A    between atoms: C_21  and  C_22 
ROOT
HETATM    1  N   UNL     1       6.989  30.492  58.723  1.00  0.00    -0.337 N 
HETATM    2  H   UNL     1       6.048  30.875  58.730  1.00  0.00     0.168 HD
ENDROOT
BRANCH   1   3
HETATM    3  C   UNL     1       7.144  29.359  57.899  1.00  0.00     0.036 A 
HETATM    4  C   UNL     1       5.977  28.767  57.408  1.00  0.00     0.067 A 
HETATM    5  C   UNL     1       6.035  27.605  56.635  1.00  0.00     0.082 A 
HETATM    6  C   UNL     1       7.259  26.983  56.349  1.00  0.00     0.050 A 
HETATM    7  C   UNL     1       8.425  27.581  56.861  1.00  0.00     0.021 A 
HETATM    8  C   UNL     1       8.370  28.756  57.627  1.00  0.00     0.030 A 
BRANCH   5   9
HETATM    9  O   UNL     1       4.819  27.136  56.206  1.00  0.00    -0.360 OA
HETATM   10  H   UNL     1       4.251  27.899  55.989  1.00  0.00     0.217 HD
ENDBRANCH   5   9
BRANCH   6  11
HETATM   11  C   UNL     1       7.388  25.748  55.577  1.00  0.00     0.183 A 
HETATM   12  N   UNL     1       7.062  25.512  54.317  1.00  0.00    -0.221 NA
HETATM   13  C   UNL     1       7.413  24.200  54.125  1.00  0.00     0.093 A 
HETATM   14  C   UNL     1       7.940  23.678  55.294  1.00  0.00     0.107 A 
HETATM   15  C   UNL     1       7.320  23.373  53.000  1.00  0.00     0.035 A 
HETATM   16  C   UNL     1       8.391  22.373  55.450  1.00  0.00     0.046 A 
HETATM   17  O   UNL     1       7.930  24.666  56.233  1.00  0.00    -0.289 OA
HETATM   18  C   UNL     1       8.303  21.549  54.316  1.00  0.00    -0.059 A 
HETATM   19  C   UNL     1       8.741  20.113  54.392  1.00  0.00     0.048 C 
HETATM   20  C   UNL     1       7.767  22.047  53.113  1.00  0.00     0.009 A 
ENDBRANCH   6  11
ENDBRANCH   1   3
BRANCH   1  21
HETATM   21  C   UNL     1       7.776  30.981  59.703  1.00  0.00     0.157 C 
HETATM   22  S   UNL     1       9.143  31.854  59.281  1.00  0.00    -0.047 SA
BRANCH  21  23
HETATM   23  N   UNL     1       7.576  30.733  61.024  1.00  0.00    -0.201 NA
HETATM   24  C   UNL     1       8.220  31.468  62.012  1.00  0.00     0.237 C 
HETATM   25  O   UNL     1       9.431  31.511  62.198  1.00  0.00    -0.274 OA
HETATM   26  H   UNL     1       6.576  30.674  61.149  1.00  0.00     0.139 HD
BRANCH  24  27
HETATM   27  C   UNL     1       7.339  32.243  62.936  1.00  0.00     0.029 A 
HETATM   28  C   UNL     1       5.947  32.338  62.774  1.00  0.00     0.053 A 
HETATM   29  C   UNL     1       5.204  33.151  63.633  1.00  0.00     0.069 A 
HETATM   30  C   UNL     1       5.846  33.828  64.675  1.00  0.00     0.037 A 
HETATM   31  C   UNL     1       7.221  33.710  64.860  1.00  0.00     0.004 A 
HETATM   32  C   UNL     1       7.967  32.921  63.990  1.00  0.00     0.017 A 
BRANCH  29  33
HETATM   33  O   UNL     1       3.857  33.369  63.571  1.00  0.00    -0.351 OA
BRANCH  33  34
HETATM   34  C   UNL     1       3.226  33.290  62.292  1.00  0.00     0.179 C 
BRANCH  34  35
HETATM   35  C   UNL     1       3.108  34.700  61.688  1.00  0.00     0.002 C 
HETATM   36  C   UNL     1       3.078  35.779  62.771  1.00  0.00     0.011 C 
HETATM   37  C   UNL     1       4.254  34.974  60.711  1.00  0.00     0.011 C 
ENDBRANCH  34  35
ENDBRANCH  33  34
ENDBRANCH  29  33
ENDBRANCH  24  27
ENDBRANCH  21  23
ENDBRANCH   1  21
TORSDOF 9
ENDMDL
MODEL 7
REMARK VINA RESULT:      -9.9      1.576      2.032
REMARK  9 active torsions:
REMARK  status: ('A' for Active; 'I' for Inactive)
REMARK    1  A    between atoms: C_7  and  C_8 
REMARK    2  A    between atoms: C_9  and  O_10 
REMARK    3  A    between atoms: C_12  and  N_13 
REMARK    4  A    between atoms: N_13  and  C_14 
REMARK    5  A    between atoms: C_14  and  N_15 
REMARK       I    between atoms: N_15  and  C_16 
REMARK    6  A    between atoms: C_16  and  C_17 
REMARK    7  A    between atoms: C_19  and  O_20 
REMARK    8  A    between atoms: O_20  and  C_21 
REMARK    9  A    between atoms: C_21  and  C_22 
ROOT
HETATM    1  N   UNL     1       7.313  30.661  57.983  1.00  0.00    -0.337 N 
HETATM    2  H   UNL     1       8.235  31.017  58.212  1.00  0.00     0.168 HD
ENDROOT
BRANCH   1   3
HETATM    3  C   UNL     1       7.325  29.434  57.287  1.00  0.00     0.036 A 
HETATM    4  C   UNL     1       7.437  28.272  58.056  1.00  0.00     0.067 A 
HETATM    5  C   UNL     1       7.519  27.017  57.446  1.00  0.00     0.082 A 
HETATM    6  C   UNL     1       7.517  26.887  56.049  1.00  0.00     0.050 A 
HETATM    7  C   UNL     1       7.419  28.066  55.289  1.00  0.00     0.021 A 
HETATM    8  C   UNL     1       7.323  29.326  55.899  1.00  0.00     0.030 A 
BRANCH   5   9
HETATM    9  O   UNL     1       7.611  25.959  58.313  1.00  0.00    -0.360 OA
HETATM   10  H   UNL     1       7.689  25.137  57.794  1.00  0.00     0.217 HD
ENDBRANCH   5   9
BRANCH   6  11
HETATM   11  C   UNL     1       7.635  25.609  55.347  1.00  0.00     0.183 A 
HETATM   12  N   UNL     1       7.335  25.314  54.094  1.00  0.00    -0.221 NA
HETATM   13  C   UNL     1       7.659  23.985  53.982  1.00  0.00     0.093 A 
HETATM   14  C   UNL     1       8.142  23.515  55.190  1.00  0.00     0.107 A 
HETATM   15  C   UNL     1       7.574  23.101  52.900  1.00  0.00     0.035 A 
HETATM   16  C   UNL     1       8.557  22.210  55.428  1.00  0.00     0.046 A 
HETATM   17  O   UNL     1       8.132  24.552  56.075  1.00  0.00    -0.289 OA
HETATM   18  C   UNL     1       8.477  21.328  54.337  1.00  0.00    -0.059 A 
HETATM   19  C   UNL     1       8.878  19.888  54.501  1.00  0.00     0.048 C 
HETATM   20  C   UNL     1       7.985  21.772  53.095  1.00  0.00     0.009 A 
ENDBRANCH   6  11
ENDBRANCH   1   3
BRANCH   1  21
HETATM   21  C   UNL     1       6.329  31.569  58.146  1.00  0.00     0.157 C 
HETATM   22  S   UNL     1       4.969  31.470  57.172  1.00  0.00    -0.047 SA
BRANCH  21  23
HETATM   23  N   UNL     1       6.413  32.623  58.999  1.00  0.00    -0.201 NA
HETATM   24  C   UNL     1       5.640  32.693  60.153  1.00  0.00     0.237 C 
HETATM   25  O   UNL     1       4.416  32.751  60.193  1.00  0.00    -0.274 OA
HETATM   26  H   UNL     1       7.397  32.775  59.162  1.00  0.00     0.139 HD
BRANCH  24  27
HETATM   27  C   UNL     1       6.387  32.730  61.445  1.00  0.00     0.029 A 
HETATM   28  C   UNL     1       6.054  33.592  62.503  1.00  0.00     0.053 A 
HETATM   29  C   UNL     1       6.854  33.625  63.648  1.00  0.00     0.069 A 
HETATM   30  C   UNL     1       7.954  32.767  63.749  1.00  0.00     0.037 A 
HETATM   31  C   UNL     1       8.269  31.887  62.717  1.00  0.00     0.004 A 
HETATM   32  C   UNL     1       7.488  31.870  61.566  1.00  0.00     0.017 A 
BRANCH  29  33
HETATM   33  O   UNL     1       6.675  34.435  64.733  1.00  0.00    -0.351 OA
BRANCH  33  34
HETATM   34  C   UNL     1       6.652  33.826  66.024  1.00  0.00     0.179 C 
BRANCH  34  35
HETATM   35  C   UNL     1       5.346  34.200  66.746  1.00  0.00     0.002 C 
HETATM   36  C   UNL     1       5.565  34.387  68.248  1.00  0.00     0.011 C 
HETATM   37  C   UNL     1       4.731  35.466  66.147  1.00  0.00     0.011 C 
ENDBRANCH  34  35
ENDBRANCH  33  34
ENDBRANCH  29  33
ENDBRANCH  24  27
ENDBRANCH  21  23
ENDBRANCH   1  21
TORSDOF 9
ENDMDL
MODEL 8
REMARK VINA RESULT:      -9.7      2.806     11.725
REMARK  9 active torsions:
REMARK  status: ('A' for Active; 'I' for Inactive)
REMARK    1  A    between atoms: C_7  and  C_8 
REMARK    2  A    between atoms: C_9  and  O_10 
REMARK    3  A    between atoms: C_12  and  N_13 
REMARK    4  A    between atoms: N_13  and  C_14 
REMARK    5  A    between atoms: C_14  and  N_15 
REMARK       I    between atoms: N_15  and  C_16 
REMARK    6  A    between atoms: C_16  and  C_17 
REMARK    7  A    between atoms: C_19  and  O_20 
REMARK    8  A    between atoms: O_20  and  C_21 
REMARK    9  A    between atoms: C_21  and  C_22 
ROOT
HETATM    1  N   UNL     1       8.173  29.942  57.398  1.00  0.00    -0.337 N 
HETATM    2  H   UNL     1       7.621  30.255  56.606  1.00  0.00     0.168 HD
ENDROOT
BRANCH   1   3
HETATM    3  C   UNL     1       7.886  30.617  58.603  1.00  0.00     0.036 A 
HETATM    4  C   UNL     1       8.558  30.181  59.748  1.00  0.00     0.067 A 
HETATM    5  C   UNL     1       8.289  30.752  60.995  1.00  0.00     0.082 A 
HETATM    6  C   UNL     1       7.321  31.757  61.140  1.00  0.00     0.050 A 
HETATM    7  C   UNL     1       6.642  32.175  59.981  1.00  0.00     0.021 A 
HETATM    8  C   UNL     1       6.920  31.613  58.726  1.00  0.00     0.030 A 
BRANCH   5   9
HETATM    9  O   UNL     1       9.027  30.244  62.033  1.00  0.00    -0.360 OA
HETATM   10  H   UNL     1       9.973  30.367  61.831  1.00  0.00     0.217 HD
ENDBRANCH   5   9
BRANCH   6  11
HETATM   11  C   UNL     1       6.967  32.371  62.419  1.00  0.00     0.183 A 
HETATM   12  N   UNL     1       7.738  32.645  63.457  1.00  0.00    -0.221 NA
HETATM   13  C   UNL     1       6.883  33.224  64.361  1.00  0.00     0.093 A 
HETATM   14  C   UNL     1       5.605  33.274  63.833  1.00  0.00     0.107 A 
HETATM   15  C   UNL     1       7.103  33.732  65.646  1.00  0.00     0.035 A 
HETATM   16  C   UNL     1       4.494  33.794  64.487  1.00  0.00     0.046 A 
HETATM   17  O   UNL     1       5.648  32.730  62.584  1.00  0.00    -0.289 OA
HETATM   18  C   UNL     1       4.720  34.310  65.774  1.00  0.00    -0.059 A 
HETATM   19  C   UNL     1       3.576  34.871  66.572  1.00  0.00     0.048 C 
HETATM   20  C   UNL     1       6.007  34.270  66.342  1.00  0.00     0.009 A 
ENDBRANCH   6  11
ENDBRANCH   1   3
BRANCH   1  21
HETATM   21  C   UNL     1       9.223  29.170  57.052  1.00  0.00     0.157 C 
HETATM   22  S   UNL     1      10.651  29.911  56.584  1.00  0.00    -0.047 SA
BRANCH  21  23
HETATM   23  N   UNL     1       9.166  27.814  56.973  1.00  0.00    -0.201 NA
HETATM   24  C   UNL     1       7.977  27.120  57.167  1.00  0.00     0.237 C 
HETATM   25  O   UNL     1       7.325  27.092  58.204  1.00  0.00    -0.274 OA
HETATM   26  H   UNL     1       9.648  27.562  56.123  1.00  0.00     0.139 HD
BRANCH  24  27
HETATM   27  C   UNL     1       7.486  26.320  56.006  1.00  0.00     0.029 A 
HETATM   28  C   UNL     1       6.635  26.840  55.017  1.00  0.00     0.053 A 
HETATM   29  C   UNL     1       6.153  26.003  54.008  1.00  0.00     0.069 A 
HETATM   30  C   UNL     1       6.556  24.665  53.965  1.00  0.00     0.037 A 
HETATM   31  C   UNL     1       7.426  24.153  54.925  1.00  0.00     0.004 A 
HETATM   32  C   UNL     1       7.888  24.978  55.945  1.00  0.00     0.017 A 
BRANCH  29  33
HETATM   33  O   UNL     1       5.293  26.359  53.008  1.00  0.00    -0.351 OA
BRANCH  33  34
HETATM   34  C   UNL     1       5.501  25.791  51.715  1.00  0.00     0.179 C 
BRANCH  34  35
HETATM   35  C   UNL     1       5.291  26.869  50.638  1.00  0.00     0.002 C 
HETATM   36  C   UNL     1       4.451  26.347  49.471  1.00  0.00     0.011 C 
HETATM   37  C   UNL     1       4.637  28.118  51.233  1.00  0.00     0.011 C 
ENDBRANCH  34  35
ENDBRANCH  33  34
ENDBRANCH  29  33
ENDBRANCH  24  27
ENDBRANCH  21  23
ENDBRANCH   1  21
TORSDOF 9
ENDMDL
MODEL 9
REMARK VINA RESULT:      -9.5      2.417     10.900
REMARK  9 active torsions:
REMARK  status: ('A' for Active; 'I' for Inactive)
REMARK    1  A    between atoms: C_7  and  C_8 
REMARK    2  A    between atoms: C_9  and  O_10 
REMARK    3  A    between atoms: C_12  and  N_13 
REMARK    4  A    between atoms: N_13  and  C_14 
REMARK    5  A    between atoms: C_14  and  N_15 
REMARK       I    between atoms: N_15  and  C_16 
REMARK    6  A    between atoms: C_16  and  C_17 
REMARK    7  A    between atoms: C_19  and  O_20 
REMARK    8  A    between atoms: O_20  and  C_21 
REMARK    9  A    between atoms: C_21  and  C_22 
ROOT
HETATM    1  N   UNL     1       5.865  29.507  54.666  1.00  0.00    -0.337 N 
HETATM    2  H   UNL     1       6.692  29.184  54.174  1.00  0.00     0.168 HD
ENDROOT
BRANCH   1   3
HETATM    3  C   UNL     1       6.131  30.088  55.922  1.00  0.00     0.036 A 
HETATM    4  C   UNL     1       7.135  29.495  56.694  1.00  0.00     0.067 A 
HETATM    5  C   UNL     1       7.423  29.968  57.977  1.00  0.00     0.082 A 
HETATM    6  C   UNL     1       6.700  31.031  58.538  1.00  0.00     0.050 A 
HETATM    7  C   UNL     1       5.684  31.609  57.756  1.00  0.00     0.021 A 
HETATM    8  C   UNL     1       5.402  31.145  56.462  1.00  0.00     0.030 A 
BRANCH   5   9
HETATM    9  O   UNL     1       8.438  29.308  58.621  1.00  0.00    -0.360 OA
HETATM   10  H   UNL     1       9.239  29.862  58.588  1.00  0.00     0.217 HD
ENDBRANCH   5   9
BRANCH   6  11
HETATM   11  C   UNL     1       6.926  31.552  59.886  1.00  0.00     0.183 A 
HETATM   12  N   UNL     1       7.884  31.252  60.748  1.00  0.00    -0.221 NA
HETATM   13  C   UNL     1       7.611  32.046  61.834  1.00  0.00     0.093 A 
HETATM   14  C   UNL     1       6.478  32.802  61.590  1.00  0.00     0.107 A 
HETATM   15  C   UNL     1       8.266  32.187  63.062  1.00  0.00     0.035 A 
HETATM   16  C   UNL     1       5.920  33.709  62.483  1.00  0.00     0.046 A 
HETATM   17  O   UNL     1       6.031  32.493  60.340  1.00  0.00    -0.289 OA
HETATM   18  C   UNL     1       6.584  33.854  63.713  1.00  0.00    -0.059 A 
HETATM   19  C   UNL     1       6.043  34.791  64.756  1.00  0.00     0.048 C 
HETATM   20  C   UNL     1       7.737  33.096  63.994  1.00  0.00     0.009 A 
ENDBRANCH   6  11
ENDBRANCH   1   3
BRANCH   1  21
HETATM   21  C   UNL     1       4.711  29.054  54.134  1.00  0.00     0.157 C 
HETATM   22  S   UNL     1       3.482  30.149  53.820  1.00  0.00    -0.047 SA
BRANCH  21  23
HETATM   23  N   UNL     1       4.447  27.739  53.917  1.00  0.00    -0.201 NA
HETATM   24  C   UNL     1       4.832  27.100  52.743  1.00  0.00     0.237 C 
HETATM   25  O   UNL     1       4.433  27.371  51.616  1.00  0.00    -0.274 OA
HETATM   26  H   UNL     1       4.734  27.253  54.754  1.00  0.00     0.139 HD
BRANCH  24  27
HETATM   27  C   UNL     1       5.793  25.967  52.894  1.00  0.00     0.029 A 
HETATM   28  C   UNL     1       5.841  25.145  54.032  1.00  0.00     0.053 A 
HETATM   29  C   UNL     1       6.825  24.158  54.132  1.00  0.00     0.069 A 
HETATM   30  C   UNL     1       7.725  23.968  53.079  1.00  0.00     0.037 A 
HETATM   31  C   UNL     1       7.660  24.759  51.935  1.00  0.00     0.004 A 
HETATM   32  C   UNL     1       6.697  25.758  51.843  1.00  0.00     0.017 A 
BRANCH  29  33
HETATM   33  O   UNL     1       7.016  23.316  55.190  1.00  0.00    -0.351 OA
BRANCH  33  34
HETATM   34  C   UNL     1       6.834  23.843  56.504  1.00  0.00     0.179 C 
BRANCH  34  35
HETATM   35  C   UNL     1       7.913  24.901  56.789  1.00  0.00     0.002 C 
HETATM   36  C   UNL     1       7.344  26.097  57.554  1.00  0.00     0.011 C 
HETATM   37  C   UNL     1       9.084  24.295  57.567  1.00  0.00     0.011 C 
ENDBRANCH  34  35
ENDBRANCH  33  34
ENDBRANCH  29  33
ENDBRANCH  24  27
ENDBRANCH  21  23
ENDBRANCH   1  21
TORSDOF 9
ENDMDL
MODEL 10
REMARK VINA RESULT:      -9.5      2.116     12.134
REMARK  9 active torsions:
REMARK  status: ('A' for Active; 'I' for Inactive)
REMARK    1  A    between atoms: C_7  and  C_8 
REMARK    2  A    between atoms: C_9  and  O_10 
REMARK    3  A    between atoms: C_12  and  N_13 
REMARK    4  A    between atoms: N_13  and  C_14 
REMARK    5  A    between atoms: C_14  and  N_15 
REMARK       I    between atoms: N_15  and  C_16 
REMARK    6  A    between atoms: C_16  and  C_17 
REMARK    7  A    between atoms: C_19  and  O_20 
REMARK    8  A    between atoms: O_20  and  C_21 
REMARK    9  A    between atoms: C_21  and  C_22 
ROOT
HETATM    1  N   UNL     1       5.479  31.183  56.618  1.00  0.00    -0.337 N 
HETATM    2  H   UNL     1       5.762  31.929  55.990  1.00  0.00     0.168 HD
ENDROOT
BRANCH   1   3
HETATM    3  C   UNL     1       5.412  31.564  57.973  1.00  0.00     0.036 A 
HETATM    4  C   UNL     1       4.137  31.701  58.531  1.00  0.00     0.067 A 
HETATM    5  C   UNL     1       3.976  32.135  59.849  1.00  0.00     0.082 A 
HETATM    6  C   UNL     1       5.083  32.470  60.644  1.00  0.00     0.050 A 
HETATM    7  C   UNL     1       6.358  32.341  60.065  1.00  0.00     0.021 A 
HETATM    8  C   UNL     1       6.523  31.893  58.746  1.00  0.00     0.030 A 
BRANCH   5   9
HETATM    9  O   UNL     1       2.675  32.212  60.276  1.00  0.00    -0.360 OA
HETATM   10  H   UNL     1       2.434  31.364  60.693  1.00  0.00     0.217 HD
ENDBRANCH   5   9
BRANCH   6  11
HETATM   11  C   UNL     1       4.983  32.962  62.017  1.00  0.00     0.183 A 
HETATM   12  N   UNL     1       3.939  33.473  62.648  1.00  0.00    -0.221 NA
HETATM   13  C   UNL     1       4.415  33.746  63.906  1.00  0.00     0.093 A 
HETATM   14  C   UNL     1       5.750  33.393  63.991  1.00  0.00     0.107 A 
HETATM   15  C   UNL     1       3.789  34.292  65.032  1.00  0.00     0.035 A 
HETATM   16  C   UNL     1       6.543  33.541  65.123  1.00  0.00     0.046 A 
HETATM   17  O   UNL     1       6.125  32.887  62.781  1.00  0.00    -0.289 OA
HETATM   18  C   UNL     1       5.909  34.083  66.254  1.00  0.00    -0.059 A 
HETATM   19  C   UNL     1       6.688  34.307  67.519  1.00  0.00     0.048 C 
HETATM   20  C   UNL     1       4.553  34.457  66.200  1.00  0.00     0.009 A 
ENDBRANCH   6  11
ENDBRANCH   1   3
BRANCH   1  21
HETATM   21  C   UNL     1       5.510  29.961  56.049  1.00  0.00     0.157 C 
HETATM   22  S   UNL     1       4.077  29.107  55.891  1.00  0.00    -0.047 SA
BRANCH  21  23
HETATM   23  N   UNL     1       6.656  29.335  55.672  1.00  0.00    -0.201 NA
HETATM   24  C   UNL     1       6.995  28.076  56.157  1.00  0.00     0.237 C 
HETATM   25  O   UNL     1       7.221  27.797  57.328  1.00  0.00    -0.274 OA
HETATM   26  H   UNL     1       6.697  29.406  54.666  1.00  0.00     0.139 HD
BRANCH  24  27
HETATM   27  C   UNL     1       7.118  26.990  55.139  1.00  0.00     0.029 A 
HETATM   28  C   UNL     1       7.073  25.624  55.462  1.00  0.00     0.053 A 
HETATM   29  C   UNL     1       7.279  24.669  54.463  1.00  0.00     0.069 A 
HETATM   30  C   UNL     1       7.485  25.081  53.142  1.00  0.00     0.037 A 
HETATM   31  C   UNL     1       7.497  26.434  52.812  1.00  0.00     0.004 A 
HETATM   32  C   UNL     1       7.316  27.387  53.810  1.00  0.00     0.017 A 
BRANCH  29  33
HETATM   33  O   UNL     1       7.302  23.314  54.636  1.00  0.00    -0.351 OA
BRANCH  33  34
HETATM   34  C   UNL     1       7.701  22.507  53.528  1.00  0.00     0.179 C 
BRANCH  34  35
HETATM   35  C   UNL     1       8.468  21.275  54.038  1.00  0.00     0.002 C 
HETATM   36  C   UNL     1       7.822  20.686  55.293  1.00  0.00     0.011 C 
HETATM   37  C   UNL     1       8.566  20.202  52.950  1.00  0.00     0.011 C 
ENDBRANCH  34  35
ENDBRANCH  33  34
ENDBRANCH  29  33
ENDBRANCH  24  27
ENDBRANCH  21  23
ENDBRANCH   1  21
TORSDOF 9
ENDMDL
