MODEL 1
REMARK VINA RESULT:      -9.2      0.000      0.000
REMARK  9 active torsions:
REMARK  status: ('A' for Active; 'I' for Inactive)
REMARK    1  A    between atoms: O_2  and  C_3 
REMARK    2  A    between atoms: C_6  and  C_7 
REMARK    3  A    between atoms: C_13  and  C_14 
REMARK       I    between atoms: C_14  and  N_15 
REMARK    4  A    between atoms: N_15  and  N_16 
REMARK    5  A    between atoms: N_16  and  C_17 
REMARK    6  A    between atoms: C_17  and  N_18 
REMARK    7  A    between atoms: N_18  and  C_19 
REMARK    8  A    between atoms: C_19  and  C_20 
REMARK    9  A    between atoms: C_27  and  C_28 
ROOT
HETATM    1  C   UNL     1       7.917  26.100  53.623  1.00  0.00     0.118 C 
HETATM    2  N   UNL     1       7.801  26.917  54.825  1.00  0.00    -0.365 N 
HETATM    3  C   UNL     1       6.607  27.364  55.282  1.00  0.00     0.138 A 
HETATM    4  N   UNL     1       5.483  27.290  54.505  1.00  0.00    -0.240 N 
HETATM    5  N   UNL     1       4.412  27.891  55.050  1.00  0.00    -0.181 NA
HETATM    6  C   UNL     1       4.860  28.265  56.255  1.00  0.00     0.160 A 
HETATM    7  C   UNL     1       6.222  27.944  56.475  1.00  0.00     0.098 A 
HETATM    8  C   UNL     1       5.442  26.715  53.176  1.00  0.00     0.221 C 
HETATM    9  C   UNL     1       6.867  26.580  52.599  1.00  0.00     0.066 C 
HETATM   10  H   UNL     1       8.612  26.919  55.449  1.00  0.00     0.161 HD
ENDROOT
BRANCH   7  11
HETATM   11  C   UNL     1       7.089  28.198  57.611  1.00  0.00     0.275 C 
HETATM   12  N   UNL     1       7.143  29.470  58.164  1.00  0.00    -0.263 N 
HETATM   13  H   UNL     1       7.675  29.464  59.032  1.00  0.00     0.190 HD
HETATM   14  O   UNL     1       7.803  27.319  58.098  1.00  0.00    -0.266 OA
BRANCH  12  15
HETATM   15  N   UNL     1       6.027  30.331  58.184  1.00  0.00    -0.274 N 
HETATM   16  H   UNL     1       5.252  30.106  57.567  1.00  0.00     0.189 HD
BRANCH  15  17
HETATM   17  C   UNL     1       6.042  31.508  58.891  1.00  0.00     0.186 C 
HETATM   18  S   UNL     1       5.326  32.940  58.411  1.00  0.00    -0.040 SA
BRANCH  17  19
HETATM   19  N   UNL     1       6.669  31.488  60.100  1.00  0.00    -0.360 N 
HETATM   20  H   UNL     1       6.412  30.701  60.685  1.00  0.00     0.162 HD
BRANCH  19  21
HETATM   21  C   UNL     1       7.790  32.294  60.545  1.00  0.00     0.187 C 
BRANCH  21  22
HETATM   22  C   UNL     1       7.568  32.732  61.940  1.00  0.00     0.070 A 
HETATM   23  O   UNL     1       6.554  33.622  62.146  1.00  0.00    -0.325 OA
HETATM   24  C   UNL     1       6.517  33.875  63.481  1.00  0.00     0.142 A 
HETATM   25  C   UNL     1       7.504  33.173  64.131  1.00  0.00     0.027 A 
HETATM   26  C   UNL     1       8.186  32.434  63.136  1.00  0.00     0.036 A 
ENDBRANCH  21  22
ENDBRANCH  19  21
ENDBRANCH  17  19
ENDBRANCH  15  17
ENDBRANCH  12  15
ENDBRANCH   7  11
BRANCH   1  27
HETATM   27  C   UNL     1       7.916  24.609  53.916  1.00  0.00    -0.035 A 
HETATM   28  C   UNL     1       7.978  24.093  55.221  1.00  0.00     0.012 A 
HETATM   29  C   UNL     1       7.982  22.714  55.453  1.00  0.00     0.037 A 
HETATM   30  C   UNL     1       7.926  21.813  54.393  1.00  0.00     0.068 A 
HETATM   31  C   UNL     1       7.900  22.303  53.089  1.00  0.00     0.037 A 
HETATM   32  C   UNL     1       7.902  23.686  52.855  1.00  0.00     0.012 A 
BRANCH  30  33
HETATM   33  O   UNL     1       7.921  20.495  54.757  1.00  0.00    -0.356 OA
HETATM   34  C   UNL     1       8.045  20.220  56.146  1.00  0.00     0.210 C 
ENDBRANCH  30  33
ENDBRANCH   1  27
BRANCH   8  35
HETATM   35  C   UNL     1       4.664  25.418  53.191  1.00  0.00     0.409 C 
HETATM   36  F   UNL     1       3.329  25.574  53.165  1.00  0.00    -0.169 F 
HETATM   37  F   UNL     1       4.998  24.615  52.153  1.00  0.00    -0.169 F 
HETATM   38  F   UNL     1       4.961  24.713  54.316  1.00  0.00    -0.169 F 
ENDBRANCH   8  35
TORSDOF 9
ENDMDL
MODEL 2
REMARK VINA RESULT:      -9.1      1.020      1.683
REMARK  9 active torsions:
REMARK  status: ('A' for Active; 'I' for Inactive)
REMARK    1  A    between atoms: O_2  and  C_3 
REMARK    2  A    between atoms: C_6  and  C_7 
REMARK    3  A    between atoms: C_13  and  C_14 
REMARK       I    between atoms: C_14  and  N_15 
REMARK    4  A    between atoms: N_15  and  N_16 
REMARK    5  A    between atoms: N_16  and  C_17 
REMARK    6  A    between atoms: C_17  and  N_18 
REMARK    7  A    between atoms: N_18  and  C_19 
REMARK    8  A    between atoms: C_19  and  C_20 
REMARK    9  A    between atoms: C_27  and  C_28 
ROOT
HETATM    1  C   UNL     1       7.921  26.094  53.559  1.00  0.00     0.118 C 
HETATM    2  N   UNL     1       7.776  26.923  54.749  1.00  0.00    -0.365 N 
HETATM    3  C   UNL     1       6.571  27.382  55.167  1.00  0.00     0.138 A 
HETATM    4  N   UNL     1       5.470  27.307  54.360  1.00  0.00    -0.240 N 
HETATM    5  N   UNL     1       4.387  27.920  54.868  1.00  0.00    -0.181 NA
HETATM    6  C   UNL     1       4.803  28.302  56.081  1.00  0.00     0.160 A 
HETATM    7  C   UNL     1       6.157  27.976  56.343  1.00  0.00     0.098 A 
HETATM    8  C   UNL     1       5.464  26.719  53.035  1.00  0.00     0.221 C 
HETATM    9  C   UNL     1       6.903  26.569  52.501  1.00  0.00     0.066 C 
HETATM   10  H   UNL     1       8.568  26.927  55.396  1.00  0.00     0.161 HD
ENDROOT
BRANCH   7  11
HETATM   11  C   UNL     1       6.992  28.236  57.501  1.00  0.00     0.275 C 
HETATM   12  N   UNL     1       6.898  29.456  58.157  1.00  0.00    -0.263 N 
HETATM   13  H   UNL     1       7.430  29.441  59.024  1.00  0.00     0.190 HD
HETATM   14  O   UNL     1       7.806  27.410  57.919  1.00  0.00    -0.266 OA
BRANCH  12  15
HETATM   15  N   UNL     1       5.689  30.175  58.241  1.00  0.00    -0.274 N 
HETATM   16  H   UNL     1       4.842  29.645  58.426  1.00  0.00     0.189 HD
BRANCH  15  17
HETATM   17  C   UNL     1       5.626  31.512  57.937  1.00  0.00     0.186 C 
HETATM   18  S   UNL     1       4.787  32.181  56.655  1.00  0.00    -0.040 SA
BRANCH  17  19
HETATM   19  N   UNL     1       6.283  32.362  58.775  1.00  0.00    -0.360 N 
HETATM   20  H   UNL     1       6.816  33.081  58.299  1.00  0.00     0.162 HD
BRANCH  19  21
HETATM   21  C   UNL     1       6.134  32.502  60.212  1.00  0.00     0.187 C 
BRANCH  21  22
HETATM   22  C   UNL     1       7.352  32.007  60.890  1.00  0.00     0.070 A 
HETATM   23  O   UNL     1       7.936  30.893  60.360  1.00  0.00    -0.325 OA
HETATM   24  C   UNL     1       9.031  30.624  61.119  1.00  0.00     0.142 A 
HETATM   25  C   UNL     1       9.147  31.539  62.138  1.00  0.00     0.027 A 
HETATM   26  C   UNL     1       8.061  32.435  61.993  1.00  0.00     0.036 A 
ENDBRANCH  21  22
ENDBRANCH  19  21
ENDBRANCH  17  19
ENDBRANCH  15  17
ENDBRANCH  12  15
ENDBRANCH   7  11
BRANCH   1  27
HETATM   27  C   UNL     1       7.902  24.605  53.866  1.00  0.00    -0.035 A 
HETATM   28  C   UNL     1       7.907  23.625  52.862  1.00  0.00     0.012 A 
HETATM   29  C   UNL     1       7.883  22.263  53.181  1.00  0.00     0.037 A 
HETATM   30  C   UNL     1       7.853  21.843  54.509  1.00  0.00     0.068 A 
HETATM   31  C   UNL     1       7.812  22.801  55.520  1.00  0.00     0.037 A 
HETATM   32  C   UNL     1       7.829  24.166  55.201  1.00  0.00     0.012 A 
BRANCH  30  33
HETATM   33  O   UNL     1       7.847  20.488  54.684  1.00  0.00    -0.356 OA
HETATM   34  C   UNL     1       8.438  20.000  55.882  1.00  0.00     0.210 C 
ENDBRANCH  30  33
ENDBRANCH   1  27
BRANCH   8  35
HETATM   35  C   UNL     1       4.677  25.427  53.041  1.00  0.00     0.409 C 
HETATM   36  F   UNL     1       4.922  24.634  54.099  1.00  0.00    -0.169 F 
HETATM   37  F   UNL     1       3.341  25.648  53.002  1.00  0.00    -0.169 F 
HETATM   38  F   UNL     1       4.966  24.704  51.925  1.00  0.00    -0.169 F 
ENDBRANCH   8  35
TORSDOF 9
ENDMDL
MODEL 3
REMARK VINA RESULT:      -9.1      1.400      1.704
REMARK  9 active torsions:
REMARK  status: ('A' for Active; 'I' for Inactive)
REMARK    1  A    between atoms: O_2  and  C_3 
REMARK    2  A    between atoms: C_6  and  C_7 
REMARK    3  A    between atoms: C_13  and  C_14 
REMARK       I    between atoms: C_14  and  N_15 
REMARK    4  A    between atoms: N_15  and  N_16 
REMARK    5  A    between atoms: N_16  and  C_17 
REMARK    6  A    between atoms: C_17  and  N_18 
REMARK    7  A    between atoms: N_18  and  C_19 
REMARK    8  A    between atoms: C_19  and  C_20 
REMARK    9  A    between atoms: C_27  and  C_28 
ROOT
HETATM    1  C   UNL     1       7.709  27.718  53.678  1.00  0.00     0.118 C 
HETATM    2  N   UNL     1       7.699  28.343  54.995  1.00  0.00    -0.365 N 
HETATM    3  C   UNL     1       6.553  28.750  55.592  1.00  0.00     0.138 A 
HETATM    4  N   UNL     1       5.383  28.831  54.889  1.00  0.00    -0.240 N 
HETATM    5  N   UNL     1       4.371  29.373  55.588  1.00  0.00    -0.181 NA
HETATM    6  C   UNL     1       4.906  29.543  56.803  1.00  0.00     0.160 A 
HETATM    7  C   UNL     1       6.265  29.151  56.882  1.00  0.00     0.098 A 
HETATM    8  C   UNL     1       5.238  28.468  53.494  1.00  0.00     0.221 C 
HETATM    9  C   UNL     1       6.619  28.380  52.810  1.00  0.00     0.066 C 
HETATM   10  H   UNL     1       8.545  28.225  55.557  1.00  0.00     0.161 HD
ENDROOT
BRANCH   7  11
HETATM   11  C   UNL     1       7.209  29.201  57.984  1.00  0.00     0.275 C 
HETATM   12  N   UNL     1       7.249  30.320  58.804  1.00  0.00    -0.263 N 
HETATM   13  H   UNL     1       7.849  30.155  59.610  1.00  0.00     0.190 HD
HETATM   14  O   UNL     1       7.999  28.283  58.209  1.00  0.00    -0.266 OA
BRANCH  12  15
HETATM   15  N   UNL     1       6.099  31.083  59.095  1.00  0.00    -0.274 N 
HETATM   16  H   UNL     1       5.258  30.880  58.564  1.00  0.00     0.189 HD
BRANCH  15  17
HETATM   17  C   UNL     1       6.148  32.156  59.950  1.00  0.00     0.186 C 
HETATM   18  S   UNL     1       5.013  33.380  60.041  1.00  0.00    -0.040 SA
BRANCH  17  19
HETATM   19  N   UNL     1       7.200  32.203  60.815  1.00  0.00    -0.360 N 
HETATM   20  H   UNL     1       7.841  32.969  60.644  1.00  0.00     0.162 HD
BRANCH  19  21
HETATM   21  C   UNL     1       7.385  31.458  62.046  1.00  0.00     0.187 C 
BRANCH  21  22
HETATM   22  C   UNL     1       7.092  32.329  63.205  1.00  0.00     0.070 A 
HETATM   23  O   UNL     1       5.777  32.487  63.532  1.00  0.00    -0.325 OA
HETATM   24  C   UNL     1       5.737  33.304  64.619  1.00  0.00     0.142 A 
HETATM   25  C   UNL     1       7.007  33.684  64.981  1.00  0.00     0.027 A 
HETATM   26  C   UNL     1       7.886  33.056  64.068  1.00  0.00     0.036 A 
ENDBRANCH  21  22
ENDBRANCH  19  21
ENDBRANCH  17  19
ENDBRANCH  15  17
ENDBRANCH  12  15
ENDBRANCH   7  11
BRANCH   1  27
HETATM   27  C   UNL     1       7.667  26.200  53.741  1.00  0.00    -0.035 A 
HETATM   28  C   UNL     1       7.522  25.496  54.947  1.00  0.00     0.012 A 
HETATM   29  C   UNL     1       7.493  24.097  54.968  1.00  0.00     0.037 A 
HETATM   30  C   UNL     1       7.610  23.364  53.790  1.00  0.00     0.068 A 
HETATM   31  C   UNL     1       7.790  24.043  52.587  1.00  0.00     0.037 A 
HETATM   32  C   UNL     1       7.825  25.444  52.565  1.00  0.00     0.012 A 
BRANCH  30  33
HETATM   33  O   UNL     1       7.552  22.008  53.947  1.00  0.00    -0.356 OA
HETATM   34  C   UNL     1       8.755  21.362  54.342  1.00  0.00     0.210 C 
ENDBRANCH  30  33
ENDBRANCH   1  27
BRANCH   8  35
HETATM   35  C   UNL     1       4.411  27.209  53.363  1.00  0.00     0.409 C 
HETATM   36  F   UNL     1       4.694  26.471  52.276  1.00  0.00    -0.169 F 
HETATM   37  F   UNL     1       4.543  26.403  54.444  1.00  0.00    -0.169 F 
HETATM   38  F   UNL     1       3.090  27.527  53.297  1.00  0.00    -0.169 F 
ENDBRANCH   8  35
TORSDOF 9
ENDMDL
MODEL 4
REMARK VINA RESULT:      -9.0      5.785      9.235
REMARK  9 active torsions:
REMARK  status: ('A' for Active; 'I' for Inactive)
REMARK    1  A    between atoms: O_2  and  C_3 
REMARK    2  A    between atoms: C_6  and  C_7 
REMARK    3  A    between atoms: C_13  and  C_14 
REMARK       I    between atoms: C_14  and  N_15 
REMARK    4  A    between atoms: N_15  and  N_16 
REMARK    5  A    between atoms: N_16  and  C_17 
REMARK    6  A    between atoms: C_17  and  N_18 
REMARK    7  A    between atoms: N_18  and  C_19 
REMARK    8  A    between atoms: C_19  and  C_20 
REMARK    9  A    between atoms: C_27  and  C_28 
ROOT
HETATM    1  C   UNL     1       4.959  25.679  53.926  1.00  0.00     0.118 C 
HETATM    2  N   UNL     1       4.550  26.172  52.617  1.00  0.00    -0.365 N 
HETATM    3  C   UNL     1       5.071  27.298  52.074  1.00  0.00     0.138 A 
HETATM    4  N   UNL     1       5.813  28.165  52.828  1.00  0.00    -0.240 N 
HETATM    5  N   UNL     1       6.147  29.294  52.179  1.00  0.00    -0.181 NA
HETATM    6  C   UNL     1       5.681  29.075  50.944  1.00  0.00     0.160 A 
HETATM    7  C   UNL     1       5.016  27.833  50.801  1.00  0.00     0.098 A 
HETATM    8  C   UNL     1       6.140  27.963  54.225  1.00  0.00     0.221 C 
HETATM    9  C   UNL     1       5.224  26.888  54.847  1.00  0.00     0.066 C 
HETATM   10  H   UNL     1       4.058  25.505  52.017  1.00  0.00     0.161 HD
ENDROOT
BRANCH   7  11
HETATM   11  C   UNL     1       4.348  27.234  49.660  1.00  0.00     0.275 C 
HETATM   12  N   UNL     1       2.968  27.330  49.543  1.00  0.00    -0.263 N 
HETATM   13  H   UNL     1       2.660  26.995  48.633  1.00  0.00     0.190 HD
HETATM   14  O   UNL     1       4.967  26.620  48.789  1.00  0.00    -0.266 OA
BRANCH  12  15
HETATM   15  N   UNL     1       2.247  28.445  50.017  1.00  0.00    -0.274 N 
HETATM   16  H   UNL     1       1.529  28.274  50.714  1.00  0.00     0.189 HD
BRANCH  15  17
HETATM   17  C   UNL     1       2.397  29.688  49.454  1.00  0.00     0.186 C 
HETATM   18  S   UNL     1       1.840  31.124  50.103  1.00  0.00    -0.040 SA
BRANCH  17  19
HETATM   19  N   UNL     1       3.089  29.750  48.281  1.00  0.00    -0.360 N 
HETATM   20  H   UNL     1       4.036  29.395  48.342  1.00  0.00     0.162 HD
BRANCH  19  21
HETATM   21  C   UNL     1       2.581  30.034  46.952  1.00  0.00     0.187 C 
BRANCH  21  22
HETATM   22  C   UNL     1       1.481  29.100  46.628  1.00  0.00     0.070 A 
HETATM   23  O   UNL     1       1.730  27.772  46.823  1.00  0.00    -0.325 OA
HETATM   24  C   UNL     1       0.597  27.104  46.480  1.00  0.00     0.142 A 
HETATM   25  C   UNL     1      -0.369  27.983  46.052  1.00  0.00     0.027 A 
HETATM   26  C   UNL     1       0.200  29.275  46.146  1.00  0.00     0.036 A 
ENDBRANCH  21  22
ENDBRANCH  19  21
ENDBRANCH  17  19
ENDBRANCH  15  17
ENDBRANCH  12  15
ENDBRANCH   7  11
BRANCH   1  27
HETATM   27  C   UNL     1       6.078  24.652  53.851  1.00  0.00    -0.035 A 
HETATM   28  C   UNL     1       6.628  24.220  52.634  1.00  0.00     0.012 A 
HETATM   29  C   UNL     1       7.653  23.268  52.602  1.00  0.00     0.037 A 
HETATM   30  C   UNL     1       8.155  22.722  53.780  1.00  0.00     0.068 A 
HETATM   31  C   UNL     1       7.598  23.112  54.996  1.00  0.00     0.037 A 
HETATM   32  C   UNL     1       6.567  24.060  55.029  1.00  0.00     0.012 A 
BRANCH  30  33
HETATM   33  O   UNL     1       9.164  21.816  53.611  1.00  0.00    -0.356 OA
HETATM   34  C   UNL     1       8.782  20.511  53.193  1.00  0.00     0.210 C 
ENDBRANCH  30  33
ENDBRANCH   1  27
BRANCH   8  35
HETATM   35  C   UNL     1       7.616  27.671  54.380  1.00  0.00     0.409 C 
HETATM   36  F   UNL     1       7.924  26.933  55.461  1.00  0.00    -0.169 F 
HETATM   37  F   UNL     1       8.122  27.034  53.297  1.00  0.00    -0.169 F 
HETATM   38  F   UNL     1       8.311  28.837  54.481  1.00  0.00    -0.169 F 
ENDBRANCH   8  35
TORSDOF 9
ENDMDL
MODEL 5
REMARK VINA RESULT:      -9.0      5.761      7.348
REMARK  9 active torsions:
REMARK  status: ('A' for Active; 'I' for Inactive)
REMARK    1  A    between atoms: O_2  and  C_3 
REMARK    2  A    between atoms: C_6  and  C_7 
REMARK    3  A    between atoms: C_13  and  C_14 
REMARK       I    between atoms: C_14  and  N_15 
REMARK    4  A    between atoms: N_15  and  N_16 
REMARK    5  A    between atoms: N_16  and  C_17 
REMARK    6  A    between atoms: C_17  and  N_18 
REMARK    7  A    between atoms: N_18  and  C_19 
REMARK    8  A    between atoms: C_19  and  C_20 
REMARK    9  A    between atoms: C_27  and  C_28 
ROOT
HETATM    1  C   UNL     1       4.929  25.731  53.793  1.00  0.00     0.118 C 
HETATM    2  N   UNL     1       4.537  26.114  52.442  1.00  0.00    -0.365 N 
HETATM    3  C   UNL     1       5.086  27.176  51.805  1.00  0.00     0.138 A 
HETATM    4  N   UNL     1       5.843  28.091  52.484  1.00  0.00    -0.240 N 
HETATM    5  N   UNL     1       6.204  29.150  51.739  1.00  0.00    -0.181 NA
HETATM    6  C   UNL     1       5.740  28.832  50.525  1.00  0.00     0.160 A 
HETATM    7  C   UNL     1       5.048  27.596  50.489  1.00  0.00     0.098 A 
HETATM    8  C   UNL     1       6.158  28.007  53.896  1.00  0.00     0.221 C 
HETATM    9  C   UNL     1       5.216  27.012  54.604  1.00  0.00     0.066 C 
HETATM   10  H   UNL     1       4.034  25.407  51.901  1.00  0.00     0.161 HD
ENDROOT
BRANCH   7  11
HETATM   11  C   UNL     1       4.374  26.913  49.401  1.00  0.00     0.275 C 
HETATM   12  N   UNL     1       2.991  26.979  49.300  1.00  0.00    -0.263 N 
HETATM   13  H   UNL     1       2.674  26.580  48.419  1.00  0.00     0.190 HD
HETATM   14  O   UNL     1       4.989  26.251  48.563  1.00  0.00    -0.266 OA
BRANCH  12  15
HETATM   15  N   UNL     1       2.259  28.112  49.710  1.00  0.00    -0.274 N 
HETATM   16  H   UNL     1       1.691  28.023  50.548  1.00  0.00     0.189 HD
BRANCH  15  17
HETATM   17  C   UNL     1       2.190  29.241  48.933  1.00  0.00     0.186 C 
HETATM   18  S   UNL     1       2.290  29.282  47.265  1.00  0.00    -0.040 SA
BRANCH  17  19
HETATM   19  N   UNL     1       1.993  30.422  49.584  1.00  0.00    -0.360 N 
HETATM   20  H   UNL     1       1.078  30.509  50.012  1.00  0.00     0.162 HD
BRANCH  19  21
HETATM   21  C   UNL     1       2.975  31.434  49.927  1.00  0.00     0.187 C 
BRANCH  21  22
HETATM   22  C   UNL     1       3.307  31.340  51.365  1.00  0.00     0.070 A 
HETATM   23  O   UNL     1       2.847  30.239  52.027  1.00  0.00    -0.325 OA
HETATM   24  C   UNL     1       3.272  30.346  53.314  1.00  0.00     0.142 A 
HETATM   25  C   UNL     1       3.983  31.510  53.489  1.00  0.00     0.027 A 
HETATM   26  C   UNL     1       4.007  32.155  52.231  1.00  0.00     0.036 A 
ENDBRANCH  21  22
ENDBRANCH  19  21
ENDBRANCH  17  19
ENDBRANCH  15  17
ENDBRANCH  12  15
ENDBRANCH   7  11
BRANCH   1  27
HETATM   27  C   UNL     1       6.025  24.678  53.817  1.00  0.00    -0.035 A 
HETATM   28  C   UNL     1       6.573  24.128  52.647  1.00  0.00     0.012 A 
HETATM   29  C   UNL     1       7.577  23.156  52.707  1.00  0.00     0.037 A 
HETATM   30  C   UNL     1       8.060  22.705  53.933  1.00  0.00     0.068 A 
HETATM   31  C   UNL     1       7.505  23.213  55.106  1.00  0.00     0.037 A 
HETATM   32  C   UNL     1       6.494  24.182  55.047  1.00  0.00     0.012 A 
BRANCH  30  33
HETATM   33  O   UNL     1       9.049  21.766  53.852  1.00  0.00    -0.356 OA
HETATM   34  C   UNL     1       8.727  20.560  53.171  1.00  0.00     0.210 C 
ENDBRANCH  30  33
ENDBRANCH   1  27
BRANCH   8  35
HETATM   35  C   UNL     1       7.627  27.698  54.086  1.00  0.00     0.409 C 
HETATM   36  F   UNL     1       8.426  28.779  54.067  1.00  0.00    -0.169 F 
HETATM   37  F   UNL     1       7.860  27.043  55.249  1.00  0.00    -0.169 F 
HETATM   38  F   UNL     1       8.057  26.866  53.099  1.00  0.00    -0.169 F 
ENDBRANCH   8  35
TORSDOF 9
ENDMDL
MODEL 6
REMARK VINA RESULT:      -8.8      5.850      7.921
REMARK  9 active torsions:
REMARK  status: ('A' for Active; 'I' for Inactive)
REMARK    1  A    between atoms: O_2  and  C_3 
REMARK    2  A    between atoms: C_6  and  C_7 
REMARK    3  A    between atoms: C_13  and  C_14 
REMARK       I    between atoms: C_14  and  N_15 
REMARK    4  A    between atoms: N_15  and  N_16 
REMARK    5  A    between atoms: N_16  and  C_17 
REMARK    6  A    between atoms: C_17  and  N_18 
REMARK    7  A    between atoms: N_18  and  C_19 
REMARK    8  A    between atoms: C_19  and  C_20 
REMARK    9  A    between atoms: C_27  and  C_28 
ROOT
HETATM    1  C   UNL     1       4.913  25.650  53.749  1.00  0.00     0.118 C 
HETATM    2  N   UNL     1       4.510  26.050  52.407  1.00  0.00    -0.365 N 
HETATM    3  C   UNL     1       5.019  27.147  51.797  1.00  0.00     0.138 A 
HETATM    4  N   UNL     1       5.739  28.073  52.500  1.00  0.00    -0.240 N 
HETATM    5  N   UNL     1       6.062  29.163  51.781  1.00  0.00    -0.181 NA
HETATM    6  C   UNL     1       5.613  28.856  50.558  1.00  0.00     0.160 A 
HETATM    7  C   UNL     1       4.968  27.597  50.491  1.00  0.00     0.098 A 
HETATM    8  C   UNL     1       6.054  27.968  53.910  1.00  0.00     0.221 C 
HETATM    9  C   UNL     1       5.149  26.921  54.592  1.00  0.00     0.066 C 
HETATM   10  H   UNL     1       4.034  25.338  51.847  1.00  0.00     0.161 HD
ENDROOT
BRANCH   7  11
HETATM   11  C   UNL     1       4.323  26.914  49.385  1.00  0.00     0.275 C 
HETATM   12  N   UNL     1       2.943  26.982  49.247  1.00  0.00    -0.263 N 
HETATM   13  H   UNL     1       2.650  26.584  48.358  1.00  0.00     0.190 HD
HETATM   14  O   UNL     1       4.960  26.252  48.564  1.00  0.00    -0.266 OA
BRANCH  12  15
HETATM   15  N   UNL     1       2.201  28.116  49.637  1.00  0.00    -0.274 N 
HETATM   16  H   UNL     1       1.581  28.016  50.435  1.00  0.00     0.189 HD
BRANCH  15  17
HETATM   17  C   UNL     1       2.196  29.264  48.885  1.00  0.00     0.186 C 
HETATM   18  S   UNL     1       2.153  29.333  47.215  1.00  0.00    -0.040 SA
BRANCH  17  19
HETATM   19  N   UNL     1       2.196  30.443  49.567  1.00  0.00    -0.360 N 
HETATM   20  H   UNL     1       2.103  30.339  50.571  1.00  0.00     0.162 HD
BRANCH  19  21
HETATM   21  C   UNL     1       2.533  31.766  49.075  1.00  0.00     0.187 C 
BRANCH  21  22
HETATM   22  C   UNL     1       3.985  32.000  49.228  1.00  0.00     0.070 A 
HETATM   23  O   UNL     1       4.408  32.438  50.450  1.00  0.00    -0.325 OA
HETATM   24  C   UNL     1       5.759  32.573  50.374  1.00  0.00     0.142 A 
HETATM   25  C   UNL     1       6.205  32.245  49.116  1.00  0.00     0.027 A 
HETATM   26  C   UNL     1       5.060  31.875  48.372  1.00  0.00     0.036 A 
ENDBRANCH  21  22
ENDBRANCH  19  21
ENDBRANCH  17  19
ENDBRANCH  15  17
ENDBRANCH  12  15
ENDBRANCH   7  11
BRANCH   1  27
HETATM   27  C   UNL     1       6.048  24.639  53.752  1.00  0.00    -0.035 A 
HETATM   28  C   UNL     1       6.558  24.076  54.933  1.00  0.00     0.012 A 
HETATM   29  C   UNL     1       7.608  23.153  54.898  1.00  0.00     0.037 A 
HETATM   30  C   UNL     1       8.179  22.768  53.688  1.00  0.00     0.068 A 
HETATM   31  C   UNL     1       7.711  23.342  52.507  1.00  0.00     0.037 A 
HETATM   32  C   UNL     1       6.663  24.272  52.541  1.00  0.00     0.012 A 
BRANCH  30  33
HETATM   33  O   UNL     1       9.186  21.850  53.792  1.00  0.00    -0.356 OA
HETATM   34  C   UNL     1       8.800  20.481  53.785  1.00  0.00     0.210 C 
ENDBRANCH  30  33
ENDBRANCH   1  27
BRANCH   8  35
HETATM   35  C   UNL     1       7.533  27.711  54.097  1.00  0.00     0.409 C 
HETATM   36  F   UNL     1       8.287  28.823  54.137  1.00  0.00    -0.169 F 
HETATM   37  F   UNL     1       7.786  27.010  55.228  1.00  0.00    -0.169 F 
HETATM   38  F   UNL     1       8.004  26.946  53.075  1.00  0.00    -0.169 F 
ENDBRANCH   8  35
TORSDOF 9
ENDMDL
MODEL 7
REMARK VINA RESULT:      -8.7      5.833      8.959
REMARK  9 active torsions:
REMARK  status: ('A' for Active; 'I' for Inactive)
REMARK    1  A    between atoms: O_2  and  C_3 
REMARK    2  A    between atoms: C_6  and  C_7 
REMARK    3  A    between atoms: C_13  and  C_14 
REMARK       I    between atoms: C_14  and  N_15 
REMARK    4  A    between atoms: N_15  and  N_16 
REMARK    5  A    between atoms: N_16  and  C_17 
REMARK    6  A    between atoms: C_17  and  N_18 
REMARK    7  A    between atoms: N_18  and  C_19 
REMARK    8  A    between atoms: C_19  and  C_20 
REMARK    9  A    between atoms: C_27  and  C_28 
ROOT
HETATM    1  C   UNL     1       5.352  28.174  49.382  1.00  0.00     0.118 C 
HETATM    2  N   UNL     1       5.574  27.216  50.458  1.00  0.00    -0.365 N 
HETATM    3  C   UNL     1       5.148  27.442  51.724  1.00  0.00     0.138 A 
HETATM    4  N   UNL     1       4.720  28.681  52.113  1.00  0.00    -0.240 N 
HETATM    5  N   UNL     1       4.455  28.771  53.428  1.00  0.00    -0.181 NA
HETATM    6  C   UNL     1       4.629  27.514  53.853  1.00  0.00     0.160 A 
HETATM    7  C   UNL     1       5.041  26.623  52.833  1.00  0.00     0.098 A 
HETATM    8  C   UNL     1       4.643  29.833  51.238  1.00  0.00     0.221 C 
HETATM    9  C   UNL     1       5.474  29.599  49.959  1.00  0.00     0.066 C 
HETATM   10  H   UNL     1       5.823  26.266  50.173  1.00  0.00     0.161 HD
ENDROOT
BRANCH   7  11
HETATM   11  C   UNL     1       5.366  25.210  52.876  1.00  0.00     0.275 C 
HETATM   12  N   UNL     1       6.587  24.800  53.392  1.00  0.00    -0.263 N 
HETATM   13  H   UNL     1       6.616  23.788  53.491  1.00  0.00     0.190 HD
HETATM   14  O   UNL     1       4.595  24.348  52.447  1.00  0.00    -0.266 OA
BRANCH  12  15
HETATM   15  N   UNL     1       7.236  25.495  54.434  1.00  0.00    -0.274 N 
HETATM   16  H   UNL     1       7.866  26.247  54.172  1.00  0.00     0.189 HD
BRANCH  15  17
HETATM   17  C   UNL     1       7.143  25.079  55.739  1.00  0.00     0.186 C 
HETATM   18  S   UNL     1       5.812  25.276  56.731  1.00  0.00    -0.040 SA
BRANCH  17  19
HETATM   19  N   UNL     1       8.222  24.423  56.251  1.00  0.00    -0.360 N 
HETATM   20  H   UNL     1       8.981  25.034  56.532  1.00  0.00     0.162 HD
BRANCH  19  21
HETATM   21  C   UNL     1       8.324  23.031  56.645  1.00  0.00     0.187 C 
BRANCH  21  22
HETATM   22  C   UNL     1       8.227  22.166  55.449  1.00  0.00     0.070 A 
HETATM   23  O   UNL     1       8.689  22.691  54.277  1.00  0.00    -0.325 OA
HETATM   24  C   UNL     1       8.519  21.736  53.324  1.00  0.00     0.142 A 
HETATM   25  C   UNL     1       7.940  20.614  53.865  1.00  0.00     0.027 A 
HETATM   26  C   UNL     1       7.749  20.889  55.240  1.00  0.00     0.036 A 
ENDBRANCH  21  22
ENDBRANCH  19  21
ENDBRANCH  17  19
ENDBRANCH  15  17
ENDBRANCH  12  15
ENDBRANCH   7  11
BRANCH   1  27
HETATM   27  C   UNL     1       4.088  27.892  48.587  1.00  0.00    -0.035 A 
HETATM   28  C   UNL     1       3.377  26.686  48.697  1.00  0.00     0.012 A 
HETATM   29  C   UNL     1       2.220  26.458  47.945  1.00  0.00     0.037 A 
HETATM   30  C   UNL     1       1.742  27.423  47.063  1.00  0.00     0.068 A 
HETATM   31  C   UNL     1       2.452  28.612  46.912  1.00  0.00     0.037 A 
HETATM   32  C   UNL     1       3.616  28.839  47.661  1.00  0.00     0.012 A 
BRANCH  30  33
HETATM   33  O   UNL     1       0.596  27.082  46.401  1.00  0.00    -0.356 OA
HETATM   34  C   UNL     1      -0.254  28.153  46.009  1.00  0.00     0.210 C 
ENDBRANCH  30  33
ENDBRANCH   1  27
BRANCH   8  35
HETATM   35  C   UNL     1       3.198  30.191  50.970  1.00  0.00     0.409 C 
HETATM   36  F   UNL     1       2.376  29.132  50.862  1.00  0.00    -0.169 F 
HETATM   37  F   UNL     1       2.691  31.000  51.931  1.00  0.00    -0.169 F 
HETATM   38  F   UNL     1       3.101  30.891  49.807  1.00  0.00    -0.169 F 
ENDBRANCH   8  35
TORSDOF 9
ENDMDL
MODEL 8
REMARK VINA RESULT:      -8.6      6.674     10.821
REMARK  9 active torsions:
REMARK  status: ('A' for Active; 'I' for Inactive)
REMARK    1  A    between atoms: O_2  and  C_3 
REMARK    2  A    between atoms: C_6  and  C_7 
REMARK    3  A    between atoms: C_13  and  C_14 
REMARK       I    between atoms: C_14  and  N_15 
REMARK    4  A    between atoms: N_15  and  N_16 
REMARK    5  A    between atoms: N_16  and  C_17 
REMARK    6  A    between atoms: C_17  and  N_18 
REMARK    7  A    between atoms: N_18  and  C_19 
REMARK    8  A    between atoms: C_19  and  C_20 
REMARK    9  A    between atoms: C_27  and  C_28 
ROOT
HETATM    1  C   UNL     1       2.492  34.189  62.713  1.00  0.00     0.118 C 
HETATM    2  N   UNL     1       2.571  33.187  61.657  1.00  0.00    -0.365 N 
HETATM    3  C   UNL     1       3.150  33.445  60.460  1.00  0.00     0.138 A 
HETATM    4  N   UNL     1       3.459  34.724  60.088  1.00  0.00    -0.240 N 
HETATM    5  N   UNL     1       3.907  34.824  58.824  1.00  0.00    -0.181 NA
HETATM    6  C   UNL     1       3.974  33.547  58.430  1.00  0.00     0.160 A 
HETATM    7  C   UNL     1       3.536  32.628  59.415  1.00  0.00     0.098 A 
HETATM    8  C   UNL     1       3.243  35.893  60.916  1.00  0.00     0.221 C 
HETATM    9  C   UNL     1       2.266  35.571  62.066  1.00  0.00     0.066 C 
HETATM   10  H   UNL     1       2.413  32.217  61.942  1.00  0.00     0.161 HD
ENDROOT
BRANCH   7  11
HETATM   11  C   UNL     1       3.418  31.181  59.383  1.00  0.00     0.275 C 
HETATM   12  N   UNL     1       4.288  30.438  58.597  1.00  0.00    -0.263 N 
HETATM   13  H   UNL     1       4.182  29.443  58.785  1.00  0.00     0.190 HD
HETATM   14  O   UNL     1       2.551  30.582  60.022  1.00  0.00    -0.266 OA
BRANCH  12  15
HETATM   15  N   UNL     1       5.619  30.837  58.362  1.00  0.00    -0.274 N 
HETATM   16  H   UNL     1       5.838  31.822  58.476  1.00  0.00     0.189 HD
BRANCH  15  17
HETATM   17  C   UNL     1       6.550  29.965  57.854  1.00  0.00     0.186 C 
HETATM   18  S   UNL     1       6.625  29.435  56.271  1.00  0.00    -0.040 SA
BRANCH  17  19
HETATM   19  N   UNL     1       7.509  29.523  58.715  1.00  0.00    -0.360 N 
HETATM   20  H   UNL     1       7.372  28.570  59.031  1.00  0.00     0.162 HD
BRANCH  19  21
HETATM   21  C   UNL     1       8.779  30.144  59.042  1.00  0.00     0.187 C 
BRANCH  21  22
HETATM   22  C   UNL     1       8.636  30.959  60.268  1.00  0.00     0.070 A 
HETATM   23  O   UNL     1       7.866  32.082  60.168  1.00  0.00    -0.325 OA
HETATM   24  C   UNL     1       7.859  32.665  61.396  1.00  0.00     0.142 A 
HETATM   25  C   UNL     1       8.627  31.941  62.276  1.00  0.00     0.027 A 
HETATM   26  C   UNL     1       9.132  30.837  61.549  1.00  0.00     0.036 A 
ENDBRANCH  21  22
ENDBRANCH  19  21
ENDBRANCH  17  19
ENDBRANCH  15  17
ENDBRANCH  12  15
ENDBRANCH   7  11
BRANCH   1  27
HETATM   27  C   UNL     1       3.647  34.105  63.699  1.00  0.00    -0.035 A 
HETATM   28  C   UNL     1       3.757  34.956  64.810  1.00  0.00     0.012 A 
HETATM   29  C   UNL     1       4.837  34.854  65.693  1.00  0.00     0.037 A 
HETATM   30  C   UNL     1       5.836  33.905  65.491  1.00  0.00     0.068 A 
HETATM   31  C   UNL     1       5.763  33.075  64.375  1.00  0.00     0.037 A 
HETATM   32  C   UNL     1       4.685  33.180  63.485  1.00  0.00     0.012 A 
BRANCH  30  33
HETATM   33  O   UNL     1       6.826  33.901  66.433  1.00  0.00    -0.356 OA
HETATM   34  C   UNL     1       6.460  34.325  67.741  1.00  0.00     0.210 C 
ENDBRANCH  30  33
ENDBRANCH   1  27
BRANCH   8  35
HETATM   35  C   UNL     1       4.567  36.457  61.380  1.00  0.00     0.409 C 
HETATM   36  F   UNL     1       5.523  35.533  61.580  1.00  0.00    -0.169 F 
HETATM   37  F   UNL     1       5.062  37.369  60.508  1.00  0.00    -0.169 F 
HETATM   38  F   UNL     1       4.402  37.121  62.556  1.00  0.00    -0.169 F 
ENDBRANCH   8  35
TORSDOF 9
ENDMDL
MODEL 9
REMARK VINA RESULT:      -8.4      5.690     11.363
REMARK  9 active torsions:
REMARK  status: ('A' for Active; 'I' for Inactive)
REMARK    1  A    between atoms: O_2  and  C_3 
REMARK    2  A    between atoms: C_6  and  C_7 
REMARK    3  A    between atoms: C_13  and  C_14 
REMARK       I    between atoms: C_14  and  N_15 
REMARK    4  A    between atoms: N_15  and  N_16 
REMARK    5  A    between atoms: N_16  and  C_17 
REMARK    6  A    between atoms: C_17  and  N_18 
REMARK    7  A    between atoms: N_18  and  C_19 
REMARK    8  A    between atoms: C_19  and  C_20 
REMARK    9  A    between atoms: C_27  and  C_28 
ROOT
HETATM    1  C   UNL     1       2.611  34.034  62.729  1.00  0.00     0.118 C 
HETATM    2  N   UNL     1       2.891  33.235  61.542  1.00  0.00    -0.365 N 
HETATM    3  C   UNL     1       3.435  33.771  60.423  1.00  0.00     0.138 A 
HETATM    4  N   UNL     1       3.512  35.126  60.256  1.00  0.00    -0.240 N 
HETATM    5  N   UNL     1       3.956  35.495  59.042  1.00  0.00    -0.181 NA
HETATM    6  C   UNL     1       4.262  34.324  58.469  1.00  0.00     0.160 A 
HETATM    7  C   UNL     1       3.982  33.203  59.288  1.00  0.00     0.098 A 
HETATM    8  C   UNL     1       3.071  36.098  61.236  1.00  0.00     0.221 C 
HETATM    9  C   UNL     1       2.149  35.437  62.280  1.00  0.00     0.066 C 
HETATM   10  H   UNL     1       2.907  32.221  61.675  1.00  0.00     0.161 HD
ENDROOT
BRANCH   7  11
HETATM   11  C   UNL     1       4.131  31.781  59.040  1.00  0.00     0.275 C 
HETATM   12  N   UNL     1       5.337  31.289  58.562  1.00  0.00    -0.263 N 
HETATM   13  H   UNL     1       5.342  30.272  58.574  1.00  0.00     0.190 HD
HETATM   14  O   UNL     1       3.208  30.985  59.224  1.00  0.00    -0.266 OA
BRANCH  12  15
HETATM   15  N   UNL     1       6.576  31.870  58.902  1.00  0.00    -0.274 N 
HETATM   16  H   UNL     1       6.900  32.646  58.332  1.00  0.00     0.189 HD
BRANCH  15  17
HETATM   17  C   UNL     1       7.387  31.320  59.864  1.00  0.00     0.186 C 
HETATM   18  S   UNL     1       7.746  32.007  61.344  1.00  0.00    -0.040 SA
BRANCH  17  19
HETATM   19  N   UNL     1       7.914  30.094  59.591  1.00  0.00    -0.360 N 
HETATM   20  H   UNL     1       7.718  29.394  60.297  1.00  0.00     0.162 HD
BRANCH  19  21
HETATM   21  C   UNL     1       8.501  29.623  58.350  1.00  0.00     0.187 C 
BRANCH  21  22
HETATM   22  C   UNL     1       7.657  28.556  57.771  1.00  0.00     0.070 A 
HETATM   23  O   UNL     1       6.336  28.852  57.592  1.00  0.00    -0.325 OA
HETATM   24  C   UNL     1       5.756  27.751  57.044  1.00  0.00     0.142 A 
HETATM   25  C   UNL     1       6.683  26.748  56.886  1.00  0.00     0.027 A 
HETATM   26  C   UNL     1       7.913  27.266  57.356  1.00  0.00     0.036 A 
ENDBRANCH  21  22
ENDBRANCH  19  21
ENDBRANCH  17  19
ENDBRANCH  15  17
ENDBRANCH  12  15
ENDBRANCH   7  11
BRANCH   1  27
HETATM   27  C   UNL     1       3.744  34.009  63.742  1.00  0.00    -0.035 A 
HETATM   28  C   UNL     1       4.924  33.274  63.541  1.00  0.00     0.012 A 
HETATM   29  C   UNL     1       5.943  33.269  64.499  1.00  0.00     0.037 A 
HETATM   30  C   UNL     1       5.814  33.992  65.682  1.00  0.00     0.068 A 
HETATM   31  C   UNL     1       4.636  34.699  65.916  1.00  0.00     0.037 A 
HETATM   32  C   UNL     1       3.611  34.700  64.960  1.00  0.00     0.012 A 
BRANCH  30  33
HETATM   33  O   UNL     1       6.887  33.914  66.525  1.00  0.00    -0.356 OA
HETATM   34  C   UNL     1       6.681  34.365  67.858  1.00  0.00     0.210 C 
ENDBRANCH  30  33
ENDBRANCH   1  27
BRANCH   8  35
HETATM   35  C   UNL     1       4.261  36.812  61.836  1.00  0.00     0.409 C 
HETATM   36  F   UNL     1       5.369  36.056  61.932  1.00  0.00    -0.169 F 
HETATM   37  F   UNL     1       4.590  37.925  61.137  1.00  0.00    -0.169 F 
HETATM   38  F   UNL     1       3.960  37.239  63.093  1.00  0.00    -0.169 F 
ENDBRANCH   8  35
TORSDOF 9
ENDMDL
MODEL 10
REMARK VINA RESULT:      -8.4      3.756      5.173
REMARK  9 active torsions:
REMARK  status: ('A' for Active; 'I' for Inactive)
REMARK    1  A    between atoms: O_2  and  C_3 
REMARK    2  A    between atoms: C_6  and  C_7 
REMARK    3  A    between atoms: C_13  and  C_14 
REMARK       I    between atoms: C_14  and  N_15 
REMARK    4  A    between atoms: N_15  and  N_16 
REMARK    5  A    between atoms: N_16  and  C_17 
REMARK    6  A    between atoms: C_17  and  N_18 
REMARK    7  A    between atoms: N_18  and  C_19 
REMARK    8  A    between atoms: C_19  and  C_20 
REMARK    9  A    between atoms: C_27  and  C_28 
ROOT
HETATM    1  C   UNL     1       4.248  28.142  56.155  1.00  0.00     0.118 C 
HETATM    2  N   UNL     1       4.337  29.405  56.877  1.00  0.00    -0.365 N 
HETATM    3  C   UNL     1       5.488  29.827  57.453  1.00  0.00     0.138 A 
HETATM    4  N   UNL     1       6.550  28.980  57.608  1.00  0.00    -0.240 N 
HETATM    5  N   UNL     1       7.565  29.512  58.311  1.00  0.00    -0.181 NA
HETATM    6  C   UNL     1       7.159  30.771  58.513  1.00  0.00     0.160 A 
HETATM    7  C   UNL     1       5.875  31.044  57.982  1.00  0.00     0.098 A 
HETATM    8  C   UNL     1       6.573  27.603  57.157  1.00  0.00     0.221 C 
HETATM    9  C   UNL     1       5.142  27.104  56.865  1.00  0.00     0.066 C 
HETATM   10  H   UNL     1       3.582  30.075  56.709  1.00  0.00     0.161 HD
ENDROOT
BRANCH   7  11
HETATM   11  C   UNL     1       5.068  32.249  58.012  1.00  0.00     0.275 C 
HETATM   12  N   UNL     1       3.942  32.302  58.822  1.00  0.00    -0.263 N 
HETATM   13  H   UNL     1       3.563  33.246  58.851  1.00  0.00     0.190 HD
HETATM   14  O   UNL     1       5.337  33.234  57.321  1.00  0.00    -0.266 OA
BRANCH  12  15
HETATM   15  N   UNL     1       3.866  31.618  60.053  1.00  0.00    -0.274 N 
HETATM   16  H   UNL     1       3.786  30.606  60.020  1.00  0.00     0.189 HD
BRANCH  15  17
HETATM   17  C   UNL     1       3.751  32.293  61.242  1.00  0.00     0.186 C 
HETATM   18  S   UNL     1       3.062  33.803  61.442  1.00  0.00    -0.040 SA
BRANCH  17  19
HETATM   19  N   UNL     1       4.213  31.656  62.355  1.00  0.00    -0.360 N 
HETATM   20  H   UNL     1       3.531  31.050  62.796  1.00  0.00     0.162 HD
BRANCH  19  21
HETATM   21  C   UNL     1       5.579  31.562  62.835  1.00  0.00     0.187 C 
BRANCH  21  22
HETATM   22  C   UNL     1       5.799  32.553  63.910  1.00  0.00     0.070 A 
HETATM   23  O   UNL     1       4.714  32.880  64.671  1.00  0.00    -0.325 OA
HETATM   24  C   UNL     1       5.138  33.784  65.594  1.00  0.00     0.142 A 
HETATM   25  C   UNL     1       6.476  34.053  65.424  1.00  0.00     0.027 A 
HETATM   26  C   UNL     1       6.906  33.259  64.335  1.00  0.00     0.036 A 
ENDBRANCH  21  22
ENDBRANCH  19  21
ENDBRANCH  17  19
ENDBRANCH  15  17
ENDBRANCH  12  15
ENDBRANCH   7  11
BRANCH   1  27
HETATM   27  C   UNL     1       4.478  28.295  54.660  1.00  0.00    -0.035 A 
HETATM   28  C   UNL     1       4.705  27.198  53.813  1.00  0.00     0.012 A 
HETATM   29  C   UNL     1       4.919  27.377  52.442  1.00  0.00     0.037 A 
HETATM   30  C   UNL     1       4.914  28.651  51.880  1.00  0.00     0.068 A 
HETATM   31  C   UNL     1       4.725  29.754  52.709  1.00  0.00     0.037 A 
HETATM   32  C   UNL     1       4.517  29.578  54.084  1.00  0.00     0.012 A 
BRANCH  30  33
HETATM   33  O   UNL     1       5.120  28.685  50.529  1.00  0.00    -0.356 OA
HETATM   34  C   UNL     1       4.043  28.247  49.711  1.00  0.00     0.210 C 
ENDBRANCH  30  33
ENDBRANCH   1  27
BRANCH   8  35
HETATM   35  C   UNL     1       7.523  27.450  55.990  1.00  0.00     0.409 C 
HETATM   36  F   UNL     1       7.290  26.370  55.224  1.00  0.00    -0.169 F 
HETATM   37  F   UNL     1       7.506  28.534  55.178  1.00  0.00    -0.169 F 
HETATM   38  F   UNL     1       8.802  27.348  56.444  1.00  0.00    -0.169 F 
ENDBRANCH   8  35
TORSDOF 9
ENDMDL
