MODEL 1
REMARK VINA RESULT:      -9.2      0.000      0.000
REMARK  5 active torsions:
REMARK  status: ('A' for Active; 'I' for Inactive)
REMARK    1  A    between atoms: C_2  and  C_3 
REMARK    2  A    between atoms: C_6  and  C_7 
REMARK    3  A    between atoms: C_7  and  C_8 
REMARK       I    between atoms: C_8  and  N_9 
REMARK    4  A    between atoms: N_9  and  C_10 
REMARK    5  A    between atoms: C_12  and  C_13 
ROOT
HETATM    1  C   UNL     1       7.497  26.487  57.163  1.00  0.00     0.226 C 
HETATM    2  N   UNL     1       7.676  27.772  56.678  1.00  0.00    -0.327 N 
HETATM    3  O   UNL     1       8.076  26.000  58.132  1.00  0.00    -0.273 OA
HETATM    4  H   UNL     1       7.229  27.989  55.794  1.00  0.00     0.169 HD
ENDROOT
BRANCH   2   5
HETATM    5  C   UNL     1       8.494  28.786  57.221  1.00  0.00     0.035 A 
HETATM    6  C   UNL     1       8.215  29.454  58.419  1.00  0.00     0.042 A 
HETATM    7  C   UNL     1       9.055  30.473  58.905  1.00  0.00    -0.021 A 
HETATM    8  C   UNL     1      10.195  30.808  58.162  1.00  0.00     0.012 A 
HETATM    9  C   UNL     1      10.480  30.153  56.963  1.00  0.00     0.003 A 
HETATM   10  C   UNL     1       9.630  29.151  56.493  1.00  0.00     0.029 A 
BRANCH   7  11
HETATM   11  C   UNL     1       8.751  31.184  60.144  1.00  0.00     0.010 A 
HETATM   12  C   UNL     1       9.179  30.956  61.476  1.00  0.00     0.152 A 
HETATM   13  N   UNL     1       8.680  31.838  62.345  1.00  0.00    -0.187 NA
HETATM   14  N   UNL     1       7.931  32.642  61.577  1.00  0.00    -0.289 N 
HETATM   15  H   UNL     1       7.441  33.413  62.018  1.00  0.00     0.188 HD
HETATM   16  C   UNL     1       7.937  32.293  60.258  1.00  0.00     0.123 A 
ENDBRANCH   7  11
ENDBRANCH   2   5
BRANCH   1  17
HETATM   17  C   UNL     1       6.418  25.684  56.451  1.00  0.00     0.141 C 
BRANCH  17  18
HETATM   18  C   UNL     1       6.887  24.591  55.519  1.00  0.00    -0.049 A 
HETATM   19  C   UNL     1       7.312  23.352  56.012  1.00  0.00     0.008 A 
HETATM   20  C   UNL     1       7.691  22.328  55.137  1.00  0.00     0.007 A 
HETATM   21  C   UNL     1       7.652  22.518  53.750  1.00  0.00    -0.059 A 
HETATM   22  C   UNL     1       7.211  23.756  53.262  1.00  0.00     0.007 A 
HETATM   23  C   UNL     1       6.835  24.782  54.134  1.00  0.00     0.008 A 
BRANCH  21  24
HETATM   24  C   UNL     1       7.979  21.427  52.755  1.00  0.00     0.034 C 
HETATM   25  C   UNL     1       8.796  20.253  53.284  1.00  0.00     0.010 C 
ENDBRANCH  21  24
ENDBRANCH  17  18
ENDBRANCH   1  17
TORSDOF 5
ENDMDL
MODEL 2
REMARK VINA RESULT:      -8.6      6.382      9.670
REMARK  5 active torsions:
REMARK  status: ('A' for Active; 'I' for Inactive)
REMARK    1  A    between atoms: C_2  and  C_3 
REMARK    2  A    between atoms: C_6  and  C_7 
REMARK    3  A    between atoms: C_7  and  C_8 
REMARK       I    between atoms: C_8  and  N_9 
REMARK    4  A    between atoms: N_9  and  C_10 
REMARK    5  A    between atoms: C_12  and  C_13 
ROOT
HETATM    1  C   UNL     1       6.058  25.585  51.714  1.00  0.00     0.226 C 
HETATM    2  N   UNL     1       5.984  26.750  50.969  1.00  0.00    -0.327 N 
HETATM    3  O   UNL     1       5.104  24.983  52.201  1.00  0.00    -0.273 OA
HETATM    4  H   UNL     1       6.863  27.202  50.746  1.00  0.00     0.169 HD
ENDROOT
BRANCH   2   5
HETATM    5  C   UNL     1       4.817  27.437  50.569  1.00  0.00     0.035 A 
HETATM    6  C   UNL     1       4.035  27.069  49.469  1.00  0.00     0.042 A 
HETATM    7  C   UNL     1       2.891  27.803  49.102  1.00  0.00    -0.021 A 
HETATM    8  C   UNL     1       2.542  28.920  49.871  1.00  0.00     0.012 A 
HETATM    9  C   UNL     1       3.317  29.300  50.967  1.00  0.00     0.003 A 
HETATM   10  C   UNL     1       4.453  28.565  51.310  1.00  0.00     0.029 A 
BRANCH   7  11
HETATM   11  C   UNL     1       2.088  27.431  47.940  1.00  0.00     0.010 A 
HETATM   12  C   UNL     1       0.882  27.975  47.431  1.00  0.00     0.152 A 
HETATM   13  N   UNL     1       0.452  27.355  46.329  1.00  0.00    -0.187 NA
HETATM   14  N   UNL     1       1.381  26.410  46.121  1.00  0.00    -0.289 N 
HETATM   15  H   UNL     1       1.274  25.797  45.320  1.00  0.00     0.188 HD
HETATM   16  C   UNL     1       2.375  26.412  47.055  1.00  0.00     0.123 A 
ENDBRANCH   7  11
ENDBRANCH   2   5
BRANCH   1  17
HETATM   17  C   UNL     1       7.457  24.998  51.837  1.00  0.00     0.141 C 
BRANCH  17  18
HETATM   18  C   UNL     1       7.721  24.110  53.030  1.00  0.00    -0.049 A 
HETATM   19  C   UNL     1       7.858  24.647  54.316  1.00  0.00     0.008 A 
HETATM   20  C   UNL     1       8.045  23.810  55.422  1.00  0.00     0.007 A 
HETATM   21  C   UNL     1       8.099  22.419  55.269  1.00  0.00    -0.059 A 
HETATM   22  C   UNL     1       7.946  21.887  53.981  1.00  0.00     0.007 A 
HETATM   23  C   UNL     1       7.761  22.721  52.874  1.00  0.00     0.008 A 
BRANCH  21  24
HETATM   24  C   UNL     1       8.227  21.462  56.433  1.00  0.00     0.034 C 
HETATM   25  C   UNL     1       8.552  20.015  56.084  1.00  0.00     0.010 C 
ENDBRANCH  21  24
ENDBRANCH  17  18
ENDBRANCH   1  17
TORSDOF 5
ENDMDL
MODEL 3
REMARK VINA RESULT:      -8.5      5.429      9.046
REMARK  5 active torsions:
REMARK  status: ('A' for Active; 'I' for Inactive)
REMARK    1  A    between atoms: C_2  and  C_3 
REMARK    2  A    between atoms: C_6  and  C_7 
REMARK    3  A    between atoms: C_7  and  C_8 
REMARK       I    between atoms: C_8  and  N_9 
REMARK    4  A    between atoms: N_9  and  C_10 
REMARK    5  A    between atoms: C_12  and  C_13 
ROOT
HETATM    1  C   UNL     1       5.601  26.686  52.435  1.00  0.00     0.226 C 
HETATM    2  N   UNL     1       6.879  26.201  52.656  1.00  0.00    -0.327 N 
HETATM    3  O   UNL     1       4.604  26.410  53.098  1.00  0.00    -0.273 OA
HETATM    4  H   UNL     1       7.573  26.413  51.948  1.00  0.00     0.169 HD
ENDROOT
BRANCH   2   5
HETATM    5  C   UNL     1       7.304  25.358  53.705  1.00  0.00     0.035 A 
HETATM    6  C   UNL     1       7.658  24.015  53.531  1.00  0.00     0.042 A 
HETATM    7  C   UNL     1       8.056  23.212  54.617  1.00  0.00    -0.021 A 
HETATM    8  C   UNL     1       8.097  23.791  55.892  1.00  0.00     0.012 A 
HETATM    9  C   UNL     1       7.740  25.127  56.080  1.00  0.00     0.003 A 
HETATM   10  C   UNL     1       7.340  25.904  54.992  1.00  0.00     0.029 A 
BRANCH   7  11
HETATM   11  C   UNL     1       8.404  21.806  54.437  1.00  0.00     0.010 A 
HETATM   12  C   UNL     1       8.409  20.990  53.277  1.00  0.00     0.152 A 
HETATM   13  N   UNL     1       8.800  19.737  53.519  1.00  0.00    -0.187 NA
HETATM   14  N   UNL     1       9.051  19.739  54.836  1.00  0.00    -0.289 N 
HETATM   15  H   UNL     1       9.374  18.879  55.267  1.00  0.00     0.188 HD
HETATM   16  C   UNL     1       8.828  20.946  55.430  1.00  0.00     0.123 A 
ENDBRANCH   7  11
ENDBRANCH   2   5
BRANCH   1  17
HETATM   17  C   UNL     1       5.497  27.712  51.314  1.00  0.00     0.141 C 
BRANCH  17  18
HETATM   18  C   UNL     1       4.475  27.439  50.235  1.00  0.00    -0.049 A 
HETATM   19  C   UNL     1       3.504  28.391  49.901  1.00  0.00     0.008 A 
HETATM   20  C   UNL     1       2.599  28.151  48.862  1.00  0.00     0.007 A 
HETATM   21  C   UNL     1       2.642  26.956  48.133  1.00  0.00    -0.059 A 
HETATM   22  C   UNL     1       3.626  26.013  48.463  1.00  0.00     0.007 A 
HETATM   23  C   UNL     1       4.530  26.249  49.502  1.00  0.00     0.008 A 
BRANCH  21  24
HETATM   24  C   UNL     1       1.738  26.671  46.954  1.00  0.00     0.034 C 
HETATM   25  C   UNL     1       0.463  27.500  46.866  1.00  0.00     0.010 C 
ENDBRANCH  21  24
ENDBRANCH  17  18
ENDBRANCH   1  17
TORSDOF 5
ENDMDL
MODEL 4
REMARK VINA RESULT:      -8.5      4.718      8.171
REMARK  5 active torsions:
REMARK  status: ('A' for Active; 'I' for Inactive)
REMARK    1  A    between atoms: C_2  and  C_3 
REMARK    2  A    between atoms: C_6  and  C_7 
REMARK    3  A    between atoms: C_7  and  C_8 
REMARK       I    between atoms: C_8  and  N_9 
REMARK    4  A    between atoms: N_9  and  C_10 
REMARK    5  A    between atoms: C_12  and  C_13 
ROOT
HETATM    1  C   UNL     1       6.843  27.284  53.899  1.00  0.00     0.226 C 
HETATM    2  N   UNL     1       6.424  26.326  54.807  1.00  0.00    -0.327 N 
HETATM    3  O   UNL     1       8.003  27.474  53.540  1.00  0.00    -0.273 OA
HETATM    4  H   UNL     1       5.456  26.375  55.103  1.00  0.00     0.169 HD
ENDROOT
BRANCH   2   5
HETATM    5  C   UNL     1       7.217  25.350  55.447  1.00  0.00     0.035 A 
HETATM    6  C   UNL     1       7.451  24.072  54.926  1.00  0.00     0.042 A 
HETATM    7  C   UNL     1       8.234  23.128  55.618  1.00  0.00    -0.021 A 
HETATM    8  C   UNL     1       8.788  23.498  56.850  1.00  0.00     0.012 A 
HETATM    9  C   UNL     1       8.556  24.766  57.383  1.00  0.00     0.003 A 
HETATM   10  C   UNL     1       7.770  25.685  56.687  1.00  0.00     0.029 A 
BRANCH   7  11
HETATM   11  C   UNL     1       8.460  21.788  55.083  1.00  0.00     0.010 A 
HETATM   12  C   UNL     1       8.288  21.268  53.775  1.00  0.00     0.152 A 
HETATM   13  N   UNL     1       8.610  19.976  53.679  1.00  0.00    -0.187 NA
HETATM   14  N   UNL     1       8.993  19.657  54.924  1.00  0.00    -0.289 N 
HETATM   15  H   UNL     1       9.296  18.706  55.108  1.00  0.00     0.188 HD
HETATM   16  C   UNL     1       8.919  20.701  55.799  1.00  0.00     0.123 A 
ENDBRANCH   7  11
ENDBRANCH   2   5
BRANCH   1  17
HETATM   17  C   UNL     1       5.718  28.084  53.256  1.00  0.00     0.141 C 
BRANCH  17  18
HETATM   18  C   UNL     1       5.341  27.713  51.841  1.00  0.00    -0.049 A 
HETATM   19  C   UNL     1       5.294  28.678  50.827  1.00  0.00     0.008 A 
HETATM   20  C   UNL     1       4.998  28.313  49.510  1.00  0.00     0.007 A 
HETATM   21  C   UNL     1       4.743  26.978  49.174  1.00  0.00    -0.059 A 
HETATM   22  C   UNL     1       4.806  26.014  50.191  1.00  0.00     0.007 A 
HETATM   23  C   UNL     1       5.099  26.376  51.509  1.00  0.00     0.008 A 
BRANCH  21  24
HETATM   24  C   UNL     1       4.489  26.513  47.757  1.00  0.00     0.034 C 
HETATM   25  C   UNL     1       3.357  25.510  47.568  1.00  0.00     0.010 C 
ENDBRANCH  21  24
ENDBRANCH  17  18
ENDBRANCH   1  17
TORSDOF 5
ENDMDL
MODEL 5
REMARK VINA RESULT:      -8.4      5.712      9.070
REMARK  5 active torsions:
REMARK  status: ('A' for Active; 'I' for Inactive)
REMARK    1  A    between atoms: C_2  and  C_3 
REMARK    2  A    between atoms: C_6  and  C_7 
REMARK    3  A    between atoms: C_7  and  C_8 
REMARK       I    between atoms: C_8  and  N_9 
REMARK    4  A    between atoms: N_9  and  C_10 
REMARK    5  A    between atoms: C_12  and  C_13 
ROOT
HETATM    1  C   UNL     1       5.656  26.588  53.226  1.00  0.00     0.226 C 
HETATM    2  N   UNL     1       6.109  27.550  52.339  1.00  0.00    -0.327 N 
HETATM    3  O   UNL     1       4.537  26.078  53.222  1.00  0.00    -0.273 OA
HETATM    4  H   UNL     1       7.007  27.970  52.546  1.00  0.00     0.169 HD
ENDROOT
BRANCH   2   5
HETATM    5  C   UNL     1       5.417  28.086  51.232  1.00  0.00     0.035 A 
HETATM    6  C   UNL     1       4.761  27.308  50.270  1.00  0.00     0.042 A 
HETATM    7  C   UNL     1       4.103  27.896  49.174  1.00  0.00    -0.021 A 
HETATM    8  C   UNL     1       4.110  29.292  49.063  1.00  0.00     0.012 A 
HETATM    9  C   UNL     1       4.766  30.078  50.011  1.00  0.00     0.003 A 
HETATM   10  C   UNL     1       5.421  29.477  51.087  1.00  0.00     0.029 A 
BRANCH   7  11
HETATM   11  C   UNL     1       3.438  27.081  48.160  1.00  0.00     0.010 A 
HETATM   12  C   UNL     1       3.736  25.787  47.664  1.00  0.00     0.152 A 
HETATM   13  N   UNL     1       2.878  25.373  46.729  1.00  0.00    -0.187 NA
HETATM   14  N   UNL     1       2.020  26.399  46.619  1.00  0.00    -0.289 N 
HETATM   15  H   UNL     1       1.256  26.319  45.957  1.00  0.00     0.188 HD
HETATM   16  C   UNL     1       2.312  27.442  47.448  1.00  0.00     0.123 A 
ENDBRANCH   7  11
ENDBRANCH   2   5
BRANCH   1  17
HETATM   17  C   UNL     1       6.702  26.093  54.215  1.00  0.00     0.141 C 
BRANCH  17  18
HETATM   18  C   UNL     1       7.053  24.625  54.158  1.00  0.00    -0.049 A 
HETATM   19  C   UNL     1       7.436  24.019  52.956  1.00  0.00     0.008 A 
HETATM   20  C   UNL     1       7.813  22.671  52.925  1.00  0.00     0.007 A 
HETATM   21  C   UNL     1       7.817  21.900  54.094  1.00  0.00    -0.059 A 
HETATM   22  C   UNL     1       7.446  22.517  55.297  1.00  0.00     0.007 A 
HETATM   23  C   UNL     1       7.067  23.862  55.330  1.00  0.00     0.008 A 
BRANCH  21  24
HETATM   24  C   UNL     1       8.283  20.462  54.136  1.00  0.00     0.034 C 
HETATM   25  C   UNL     1       8.674  19.919  55.505  1.00  0.00     0.010 C 
ENDBRANCH  21  24
ENDBRANCH  17  18
ENDBRANCH   1  17
TORSDOF 5
ENDMDL
MODEL 6
REMARK VINA RESULT:      -8.3      6.380      8.627
REMARK  5 active torsions:
REMARK  status: ('A' for Active; 'I' for Inactive)
REMARK    1  A    between atoms: C_2  and  C_3 
REMARK    2  A    between atoms: C_6  and  C_7 
REMARK    3  A    between atoms: C_7  and  C_8 
REMARK       I    between atoms: C_8  and  N_9 
REMARK    4  A    between atoms: N_9  and  C_10 
REMARK    5  A    between atoms: C_12  and  C_13 
ROOT
HETATM    1  C   UNL     1       6.003  25.612  51.515  1.00  0.00     0.226 C 
HETATM    2  N   UNL     1       5.862  26.501  50.463  1.00  0.00    -0.327 N 
HETATM    3  O   UNL     1       5.084  25.124  52.170  1.00  0.00    -0.273 OA
HETATM    4  H   UNL     1       6.713  26.919  50.105  1.00  0.00     0.169 HD
ENDROOT
BRANCH   2   5
HETATM    5  C   UNL     1       4.657  26.970  49.895  1.00  0.00     0.035 A 
HETATM    6  C   UNL     1       4.021  28.154  50.286  1.00  0.00     0.042 A 
HETATM    7  C   UNL     1       2.809  28.565  49.701  1.00  0.00    -0.021 A 
HETATM    8  C   UNL     1       2.246  27.760  48.701  1.00  0.00     0.012 A 
HETATM    9  C   UNL     1       2.868  26.575  48.307  1.00  0.00     0.003 A 
HETATM   10  C   UNL     1       4.065  26.180  48.906  1.00  0.00     0.029 A 
BRANCH   7  11
HETATM   11  C   UNL     1       2.135  29.788  50.125  1.00  0.00     0.010 A 
HETATM   12  C   UNL     1       0.964  30.423  49.637  1.00  0.00     0.152 A 
HETATM   13  N   UNL     1       0.658  31.541  50.300  1.00  0.00    -0.187 NA
HETATM   14  N   UNL     1       1.629  31.631  51.221  1.00  0.00    -0.289 N 
HETATM   15  H   UNL     1       1.612  32.415  51.864  1.00  0.00     0.188 HD
HETATM   16  C   UNL     1       2.535  30.613  51.157  1.00  0.00     0.123 A 
ENDBRANCH   7  11
ENDBRANCH   2   5
BRANCH   1  17
HETATM   17  C   UNL     1       7.435  25.170  51.786  1.00  0.00     0.141 C 
BRANCH  17  18
HETATM   18  C   UNL     1       7.659  24.289  52.992  1.00  0.00    -0.049 A 
HETATM   19  C   UNL     1       7.697  24.828  54.284  1.00  0.00     0.008 A 
HETATM   20  C   UNL     1       7.850  23.996  55.399  1.00  0.00     0.007 A 
HETATM   21  C   UNL     1       7.966  22.609  55.249  1.00  0.00    -0.059 A 
HETATM   22  C   UNL     1       7.911  22.074  53.954  1.00  0.00     0.007 A 
HETATM   23  C   UNL     1       7.762  22.903  52.838  1.00  0.00     0.008 A 
BRANCH  21  24
HETATM   24  C   UNL     1       8.059  21.654  56.419  1.00  0.00     0.034 C 
HETATM   25  C   UNL     1       8.081  20.169  56.077  1.00  0.00     0.010 C 
ENDBRANCH  21  24
ENDBRANCH  17  18
ENDBRANCH   1  17
TORSDOF 5
ENDMDL
MODEL 7
REMARK VINA RESULT:      -8.3      1.943      2.386
REMARK  5 active torsions:
REMARK  status: ('A' for Active; 'I' for Inactive)
REMARK    1  A    between atoms: C_2  and  C_3 
REMARK    2  A    between atoms: C_6  and  C_7 
REMARK    3  A    between atoms: C_7  and  C_8 
REMARK       I    between atoms: C_8  and  N_9 
REMARK    4  A    between atoms: N_9  and  C_10 
REMARK    5  A    between atoms: C_12  and  C_13 
ROOT
HETATM    1  C   UNL     1       6.743  27.682  54.867  1.00  0.00     0.226 C 
HETATM    2  N   UNL     1       7.413  28.797  55.342  1.00  0.00    -0.327 N 
HETATM    3  O   UNL     1       5.648  27.282  55.258  1.00  0.00    -0.273 OA
HETATM    4  H   UNL     1       8.364  28.927  55.017  1.00  0.00     0.169 HD
ENDROOT
BRANCH   2   5
HETATM    5  C   UNL     1       6.958  29.720  56.309  1.00  0.00     0.035 A 
HETATM    6  C   UNL     1       7.593  29.939  57.537  1.00  0.00     0.042 A 
HETATM    7  C   UNL     1       7.084  30.858  58.474  1.00  0.00    -0.021 A 
HETATM    8  C   UNL     1       5.920  31.564  58.148  1.00  0.00     0.012 A 
HETATM    9  C   UNL     1       5.274  31.351  56.929  1.00  0.00     0.003 A 
HETATM   10  C   UNL     1       5.789  30.429  56.017  1.00  0.00     0.029 A 
BRANCH   7  11
HETATM   11  C   UNL     1       7.735  31.069  59.764  1.00  0.00     0.010 A 
HETATM   12  C   UNL     1       8.931  30.529  60.301  1.00  0.00     0.152 A 
HETATM   13  N   UNL     1       9.201  30.974  61.530  1.00  0.00    -0.187 NA
HETATM   14  N   UNL     1       8.182  31.805  61.791  1.00  0.00    -0.289 N 
HETATM   15  H   UNL     1       8.164  32.282  62.686  1.00  0.00     0.188 HD
HETATM   16  C   UNL     1       7.280  31.894  60.772  1.00  0.00     0.123 A 
ENDBRANCH   7  11
ENDBRANCH   2   5
BRANCH   1  17
HETATM   17  C   UNL     1       7.427  26.979  53.702  1.00  0.00     0.141 C 
BRANCH  17  18
HETATM   18  C   UNL     1       7.615  25.486  53.824  1.00  0.00    -0.049 A 
HETATM   19  C   UNL     1       7.692  24.866  55.077  1.00  0.00     0.008 A 
HETATM   20  C   UNL     1       7.810  23.475  55.178  1.00  0.00     0.007 A 
HETATM   21  C   UNL     1       7.854  22.673  54.032  1.00  0.00    -0.059 A 
HETATM   22  C   UNL     1       7.761  23.298  52.781  1.00  0.00     0.007 A 
HETATM   23  C   UNL     1       7.646  24.687  52.676  1.00  0.00     0.008 A 
BRANCH  21  24
HETATM   24  C   UNL     1       7.908  21.162  54.080  1.00  0.00     0.034 C 
HETATM   25  C   UNL     1       8.361  20.462  52.804  1.00  0.00     0.010 C 
ENDBRANCH  21  24
ENDBRANCH  17  18
ENDBRANCH   1  17
TORSDOF 5
ENDMDL
MODEL 8
REMARK VINA RESULT:      -8.2      5.250     11.652
REMARK  5 active torsions:
REMARK  status: ('A' for Active; 'I' for Inactive)
REMARK    1  A    between atoms: C_2  and  C_3 
REMARK    2  A    between atoms: C_6  and  C_7 
REMARK    3  A    between atoms: C_7  and  C_8 
REMARK       I    between atoms: C_8  and  N_9 
REMARK    4  A    between atoms: N_9  and  C_10 
REMARK    5  A    between atoms: C_12  and  C_13 
ROOT
HETATM    1  C   UNL     1       5.341  32.570  63.222  1.00  0.00     0.226 C 
HETATM    2  N   UNL     1       6.373  33.024  62.419  1.00  0.00    -0.327 N 
HETATM    3  O   UNL     1       5.020  31.393  63.381  1.00  0.00    -0.273 OA
HETATM    4  H   UNL     1       6.435  34.027  62.284  1.00  0.00     0.169 HD
ENDROOT
BRANCH   2   5
HETATM    5  C   UNL     1       7.292  32.245  61.683  1.00  0.00     0.035 A 
HETATM    6  C   UNL     1       7.043  31.756  60.396  1.00  0.00     0.042 A 
HETATM    7  C   UNL     1       7.987  30.965  59.715  1.00  0.00    -0.021 A 
HETATM    8  C   UNL     1       9.200  30.677  60.354  1.00  0.00     0.012 A 
HETATM    9  C   UNL     1       9.457  31.154  61.640  1.00  0.00     0.003 A 
HETATM   10  C   UNL     1       8.505  31.929  62.303  1.00  0.00     0.029 A 
BRANCH   7  11
HETATM   11  C   UNL     1       7.717  30.437  58.380  1.00  0.00     0.010 A 
HETATM   12  C   UNL     1       8.567  29.793  57.445  1.00  0.00     0.152 A 
HETATM   13  N   UNL     1       7.939  29.447  56.319  1.00  0.00    -0.187 NA
HETATM   14  N   UNL     1       6.681  29.864  56.523  1.00  0.00    -0.289 N 
HETATM   15  H   UNL     1       5.996  29.707  55.791  1.00  0.00     0.188 HD
HETATM   16  C   UNL     1       6.498  30.463  57.734  1.00  0.00     0.123 A 
ENDBRANCH   7  11
ENDBRANCH   2   5
BRANCH   1  17
HETATM   17  C   UNL     1       4.631  33.655  64.019  1.00  0.00     0.141 C 
BRANCH  17  18
HETATM   18  C   UNL     1       5.104  33.879  65.436  1.00  0.00    -0.049 A 
HETATM   19  C   UNL     1       6.469  33.895  65.749  1.00  0.00     0.008 A 
HETATM   20  C   UNL     1       6.898  34.160  67.054  1.00  0.00     0.007 A 
HETATM   21  C   UNL     1       5.976  34.415  68.076  1.00  0.00    -0.059 A 
HETATM   22  C   UNL     1       4.611  34.413  67.753  1.00  0.00     0.007 A 
HETATM   23  C   UNL     1       4.179  34.146  66.450  1.00  0.00     0.008 A 
BRANCH  21  24
HETATM   24  C   UNL     1       6.381  34.778  69.487  1.00  0.00     0.034 C 
HETATM   25  C   UNL     1       7.773  35.374  69.656  1.00  0.00     0.010 C 
ENDBRANCH  21  24
ENDBRANCH  17  18
ENDBRANCH   1  17
TORSDOF 5
ENDMDL
MODEL 9
REMARK VINA RESULT:      -8.0      1.709      2.541
REMARK  5 active torsions:
REMARK  status: ('A' for Active; 'I' for Inactive)
REMARK    1  A    between atoms: C_2  and  C_3 
REMARK    2  A    between atoms: C_6  and  C_7 
REMARK    3  A    between atoms: C_7  and  C_8 
REMARK       I    between atoms: C_8  and  N_9 
REMARK    4  A    between atoms: N_9  and  C_10 
REMARK    5  A    between atoms: C_12  and  C_13 
ROOT
HETATM    1  C   UNL     1       7.820  25.867  57.538  1.00  0.00     0.226 C 
HETATM    2  N   UNL     1       8.317  27.126  57.247  1.00  0.00    -0.327 N 
HETATM    3  O   UNL     1       6.651  25.604  57.814  1.00  0.00    -0.273 OA
HETATM    4  H   UNL     1       9.325  27.208  57.168  1.00  0.00     0.169 HD
ENDROOT
BRANCH   2   5
HETATM    5  C   UNL     1       7.590  28.332  57.147  1.00  0.00     0.035 A 
HETATM    6  C   UNL     1       7.520  29.287  58.167  1.00  0.00     0.042 A 
HETATM    7  C   UNL     1       6.762  30.464  58.022  1.00  0.00    -0.021 A 
HETATM    8  C   UNL     1       6.073  30.668  56.820  1.00  0.00     0.012 A 
HETATM    9  C   UNL     1       6.129  29.719  55.797  1.00  0.00     0.003 A 
HETATM   10  C   UNL     1       6.879  28.555  55.963  1.00  0.00     0.029 A 
BRANCH   7  11
HETATM   11  C   UNL     1       6.672  31.449  59.096  1.00  0.00     0.010 A 
HETATM   12  C   UNL     1       5.610  32.302  59.490  1.00  0.00     0.152 A 
HETATM   13  N   UNL     1       5.916  33.070  60.538  1.00  0.00    -0.187 NA
HETATM   14  N   UNL     1       7.176  32.714  60.828  1.00  0.00    -0.289 N 
HETATM   15  H   UNL     1       7.638  33.166  61.609  1.00  0.00     0.188 HD
HETATM   16  C   UNL     1       7.673  31.754  59.996  1.00  0.00     0.123 A 
ENDBRANCH   7  11
ENDBRANCH   2   5
BRANCH   1  17
HETATM   17  C   UNL     1       8.832  24.738  57.406  1.00  0.00     0.141 C 
BRANCH  17  18
HETATM   18  C   UNL     1       8.489  23.625  56.443  1.00  0.00    -0.049 A 
HETATM   19  C   UNL     1       8.341  23.874  55.073  1.00  0.00     0.008 A 
HETATM   20  C   UNL     1       8.079  22.826  54.183  1.00  0.00     0.007 A 
HETATM   21  C   UNL     1       7.960  21.508  54.640  1.00  0.00    -0.059 A 
HETATM   22  C   UNL     1       8.125  21.264  56.011  1.00  0.00     0.007 A 
HETATM   23  C   UNL     1       8.384  22.309  56.903  1.00  0.00     0.008 A 
BRANCH  21  24
HETATM   24  C   UNL     1       7.750  20.327  53.719  1.00  0.00     0.034 C 
HETATM   25  C   UNL     1       8.491  20.370  52.388  1.00  0.00     0.010 C 
ENDBRANCH  21  24
ENDBRANCH  17  18
ENDBRANCH   1  17
TORSDOF 5
ENDMDL
MODEL 10
REMARK VINA RESULT:      -7.8      2.477      3.072
REMARK  5 active torsions:
REMARK  status: ('A' for Active; 'I' for Inactive)
REMARK    1  A    between atoms: C_2  and  C_3 
REMARK    2  A    between atoms: C_6  and  C_7 
REMARK    3  A    between atoms: C_7  and  C_8 
REMARK       I    between atoms: C_8  and  N_9 
REMARK    4  A    between atoms: N_9  and  C_10 
REMARK    5  A    between atoms: C_12  and  C_13 
ROOT
HETATM    1  C   UNL     1       6.886  27.689  54.853  1.00  0.00     0.226 C 
HETATM    2  N   UNL     1       7.926  28.327  55.508  1.00  0.00    -0.327 N 
HETATM    3  O   UNL     1       5.701  27.730  55.179  1.00  0.00    -0.273 OA
HETATM    4  H   UNL     1       8.865  28.095  55.202  1.00  0.00     0.169 HD
ENDROOT
BRANCH   2   5
HETATM    5  C   UNL     1       7.836  29.189  56.622  1.00  0.00     0.035 A 
HETATM    6  C   UNL     1       6.710  29.968  56.915  1.00  0.00     0.042 A 
HETATM    7  C   UNL     1       6.681  30.828  58.029  1.00  0.00    -0.021 A 
HETATM    8  C   UNL     1       7.811  30.886  58.854  1.00  0.00     0.012 A 
HETATM    9  C   UNL     1       8.942  30.120  58.569  1.00  0.00     0.003 A 
HETATM   10  C   UNL     1       8.955  29.280  57.455  1.00  0.00     0.029 A 
BRANCH   7  11
HETATM   11  C   UNL     1       5.514  31.656  58.321  1.00  0.00     0.010 A 
HETATM   12  C   UNL     1       5.406  33.037  58.623  1.00  0.00     0.152 A 
HETATM   13  N   UNL     1       4.148  33.432  58.828  1.00  0.00    -0.187 NA
HETATM   14  N   UNL     1       3.437  32.308  58.656  1.00  0.00    -0.289 N 
HETATM   15  H   UNL     1       2.429  32.354  58.757  1.00  0.00     0.188 HD
HETATM   16  C   UNL     1       4.205  31.221  58.355  1.00  0.00     0.123 A 
ENDBRANCH   7  11
ENDBRANCH   2   5
BRANCH   1  17
HETATM   17  C   UNL     1       7.290  26.959  53.580  1.00  0.00     0.141 C 
BRANCH  17  18
HETATM   18  C   UNL     1       7.407  25.455  53.665  1.00  0.00    -0.049 A 
HETATM   19  C   UNL     1       7.804  24.697  52.557  1.00  0.00     0.008 A 
HETATM   20  C   UNL     1       7.963  23.311  52.662  1.00  0.00     0.007 A 
HETATM   21  C   UNL     1       7.731  22.651  53.875  1.00  0.00    -0.059 A 
HETATM   22  C   UNL     1       7.349  23.419  54.985  1.00  0.00     0.007 A 
HETATM   23  C   UNL     1       7.186  24.803  54.882  1.00  0.00     0.008 A 
BRANCH  21  24
HETATM   24  C   UNL     1       7.957  21.168  54.069  1.00  0.00     0.034 C 
HETATM   25  C   UNL     1       8.339  20.376  52.824  1.00  0.00     0.010 C 
ENDBRANCH  21  24
ENDBRANCH  17  18
ENDBRANCH   1  17
TORSDOF 5
ENDMDL
