MODEL 1
REMARK VINA RESULT:      -9.1      0.000      0.000
REMARK  7 active torsions:
REMARK  status: ('A' for Active; 'I' for Inactive)
REMARK    1  A    between atoms: O_2  and  C_3 
REMARK    2  A    between atoms: C_4  and  N_5 
REMARK       I    between atoms: N_5  and  C_6 
REMARK    3  A    between atoms: C_6  and  C_7 
REMARK    4  A    between atoms: C_14  and  N_15 
REMARK       I    between atoms: N_15  and  C_16 
REMARK    5  A    between atoms: C_16  and  C_17 
REMARK    6  A    between atoms: C_17  and  C_18 
REMARK    7  A    between atoms: C_18  and  C_19 
ROOT
HETATM    1  C   UNL     1       6.354  30.273  57.717  1.00  0.00     0.095 A 
HETATM    2  C   UNL     1       7.744  30.111  57.776  1.00  0.00     0.070 A 
HETATM    3  C   UNL     1       8.268  28.807  57.696  1.00  0.00     0.062 A 
HETATM    4  C   UNL     1       7.439  27.697  57.503  1.00  0.00     0.037 A 
HETATM    5  C   UNL     1       6.062  27.895  57.371  1.00  0.00     0.032 A 
HETATM    6  C   UNL     1       5.523  29.178  57.470  1.00  0.00     0.041 A 
ENDROOT
BRANCH   4   7
HETATM    7  N   UNL     1       7.899  26.364  57.462  1.00  0.00    -0.327 N 
HETATM    8  C   UNL     1       7.979  25.527  56.362  1.00  0.00     0.222 C 
HETATM    9  O   UNL     1       7.591  25.779  55.226  1.00  0.00    -0.273 OA
HETATM   10  H   UNL     1       8.192  25.976  58.351  1.00  0.00     0.169 HD
BRANCH   8  11
HETATM   11  C   UNL     1       8.667  24.210  56.676  1.00  0.00     0.108 C 
BRANCH  11  12
HETATM   12  C   UNL     1       7.726  23.010  56.520  1.00  0.00     0.047 C 
BRANCH  12  13
HETATM   13  C   UNL     1       8.016  22.134  55.322  1.00  0.00    -0.058 A 
HETATM   14  C   UNL     1       7.694  22.587  54.035  1.00  0.00     0.007 A 
HETATM   15  C   UNL     1       7.899  21.771  52.919  1.00  0.00     0.001 A 
HETATM   16  C   UNL     1       8.424  20.492  53.075  1.00  0.00     0.000 A 
HETATM   17  C   UNL     1       8.737  20.022  54.348  1.00  0.00     0.001 A 
HETATM   18  C   UNL     1       8.524  20.833  55.466  1.00  0.00     0.007 A 
ENDBRANCH  12  13
ENDBRANCH  11  12
ENDBRANCH   8  11
ENDBRANCH   4   7
BRANCH   2  19
HETATM   19  N   UNL     1       8.684  31.134  58.012  1.00  0.00    -0.319 N 
HETATM   20  C   UNL     1       9.417  31.490  59.124  1.00  0.00     0.280 C 
HETATM   21  O   UNL     1      10.495  32.052  58.905  1.00  0.00    -0.265 OA
HETATM   22  H   UNL     1       8.996  31.646  57.196  1.00  0.00     0.169 HD
BRANCH  20  23
HETATM   23  C   UNL     1       8.877  31.337  60.459  1.00  0.00     0.142 A 
HETATM   24  O   UNL     1       7.641  31.881  60.710  1.00  0.00    -0.317 OA
HETATM   25  C   UNL     1       7.315  31.589  61.993  1.00  0.00     0.143 A 
HETATM   26  C   UNL     1       8.308  30.847  62.585  1.00  0.00     0.027 A 
HETATM   27  C   UNL     1       9.307  30.671  61.596  1.00  0.00     0.045 A 
ENDBRANCH  20  23
ENDBRANCH   2  19
BRANCH   1  28
HETATM   28  O   UNL     1       5.725  31.470  57.924  1.00  0.00    -0.354 OA
HETATM   29  C   UNL     1       4.316  31.342  57.714  1.00  0.00     0.210 C 
ENDBRANCH   1  28
TORSDOF 7
ENDMDL
MODEL 2
REMARK VINA RESULT:      -9.0      1.606      3.928
REMARK  7 active torsions:
REMARK  status: ('A' for Active; 'I' for Inactive)
REMARK    1  A    between atoms: O_2  and  C_3 
REMARK    2  A    between atoms: C_4  and  N_5 
REMARK       I    between atoms: N_5  and  C_6 
REMARK    3  A    between atoms: C_6  and  C_7 
REMARK    4  A    between atoms: C_14  and  N_15 
REMARK       I    between atoms: N_15  and  C_16 
REMARK    5  A    between atoms: C_16  and  C_17 
REMARK    6  A    between atoms: C_17  and  C_18 
REMARK    7  A    between atoms: C_18  and  C_19 
ROOT
HETATM    1  C   UNL     1       8.735  31.128  58.612  1.00  0.00     0.095 A 
HETATM    2  C   UNL     1       7.429  30.625  58.619  1.00  0.00     0.070 A 
HETATM    3  C   UNL     1       7.163  29.445  57.900  1.00  0.00     0.062 A 
HETATM    4  C   UNL     1       8.179  28.747  57.239  1.00  0.00     0.037 A 
HETATM    5  C   UNL     1       9.489  29.230  57.312  1.00  0.00     0.032 A 
HETATM    6  C   UNL     1       9.767  30.410  58.001  1.00  0.00     0.041 A 
ENDROOT
BRANCH   4   7
HETATM    7  N   UNL     1       7.969  27.588  56.464  1.00  0.00    -0.327 N 
HETATM    8  C   UNL     1       7.908  26.275  56.901  1.00  0.00     0.222 C 
HETATM    9  O   UNL     1       8.102  25.878  58.045  1.00  0.00    -0.273 OA
HETATM   10  H   UNL     1       7.862  27.742  55.469  1.00  0.00     0.169 HD
BRANCH   8  11
HETATM   11  C   UNL     1       7.515  25.308  55.798  1.00  0.00     0.108 C 
BRANCH  11  12
HETATM   12  C   UNL     1       7.384  23.868  56.305  1.00  0.00     0.047 C 
BRANCH  12  13
HETATM   13  C   UNL     1       7.578  22.806  55.245  1.00  0.00    -0.058 A 
HETATM   14  C   UNL     1       7.749  21.468  55.625  1.00  0.00     0.007 A 
HETATM   15  C   UNL     1       7.986  20.478  54.666  1.00  0.00     0.001 A 
HETATM   16  C   UNL     1       8.061  20.815  53.318  1.00  0.00     0.000 A 
HETATM   17  C   UNL     1       7.907  22.142  52.925  1.00  0.00     0.001 A 
HETATM   18  C   UNL     1       7.678  23.134  53.884  1.00  0.00     0.007 A 
ENDBRANCH  12  13
ENDBRANCH  11  12
ENDBRANCH   8  11
ENDBRANCH   4   7
BRANCH   2  19
HETATM   19  N   UNL     1       6.308  31.249  59.204  1.00  0.00    -0.319 N 
HETATM   20  C   UNL     1       5.111  31.696  58.686  1.00  0.00     0.280 C 
HETATM   21  O   UNL     1       4.154  31.709  59.466  1.00  0.00    -0.265 OA
HETATM   22  H   UNL     1       6.295  31.278  60.216  1.00  0.00     0.169 HD
BRANCH  20  23
HETATM   23  C   UNL     1       5.032  32.246  57.348  1.00  0.00     0.142 A 
HETATM   24  O   UNL     1       5.130  33.610  57.216  1.00  0.00    -0.317 OA
HETATM   25  C   UNL     1       5.071  33.901  55.894  1.00  0.00     0.143 A 
HETATM   26  C   UNL     1       4.954  32.751  55.152  1.00  0.00     0.027 A 
HETATM   27  C   UNL     1       4.943  31.684  56.085  1.00  0.00     0.045 A 
ENDBRANCH  20  23
ENDBRANCH   2  19
BRANCH   1  28
HETATM   28  O   UNL     1       9.083  32.334  59.154  1.00  0.00    -0.354 OA
HETATM   29  C   UNL     1       9.532  32.172  60.502  1.00  0.00     0.210 C 
ENDBRANCH   1  28
TORSDOF 7
ENDMDL
MODEL 3
REMARK VINA RESULT:      -9.0      6.167      8.959
REMARK  7 active torsions:
REMARK  status: ('A' for Active; 'I' for Inactive)
REMARK    1  A    between atoms: O_2  and  C_3 
REMARK    2  A    between atoms: C_4  and  N_5 
REMARK       I    between atoms: N_5  and  C_6 
REMARK    3  A    between atoms: C_6  and  C_7 
REMARK    4  A    between atoms: C_14  and  N_15 
REMARK       I    between atoms: N_15  and  C_16 
REMARK    5  A    between atoms: C_16  and  C_17 
REMARK    6  A    between atoms: C_17  and  C_18 
REMARK    7  A    between atoms: C_18  and  C_19 
ROOT
HETATM    1  C   UNL     1       4.203  28.423  50.876  1.00  0.00     0.095 A 
HETATM    2  C   UNL     1       4.816  27.220  50.504  1.00  0.00     0.070 A 
HETATM    3  C   UNL     1       5.135  26.292  51.512  1.00  0.00     0.062 A 
HETATM    4  C   UNL     1       4.800  26.524  52.851  1.00  0.00     0.037 A 
HETATM    5  C   UNL     1       4.120  27.698  53.184  1.00  0.00     0.032 A 
HETATM    6  C   UNL     1       3.816  28.639  52.201  1.00  0.00     0.041 A 
ENDROOT
BRANCH   4   7
HETATM    7  N   UNL     1       5.133  25.656  53.911  1.00  0.00    -0.327 N 
HETATM    8  C   UNL     1       6.150  25.803  54.840  1.00  0.00     0.222 C 
HETATM    9  O   UNL     1       6.996  26.691  54.859  1.00  0.00    -0.273 OA
HETATM   10  H   UNL     1       4.564  24.822  53.988  1.00  0.00     0.169 HD
BRANCH   8  11
HETATM   11  C   UNL     1       6.109  24.743  55.927  1.00  0.00     0.108 C 
BRANCH  11  12
HETATM   12  C   UNL     1       7.444  24.004  56.070  1.00  0.00     0.047 C 
BRANCH  12  13
HETATM   13  C   UNL     1       7.609  22.817  55.147  1.00  0.00    -0.058 A 
HETATM   14  C   UNL     1       7.730  21.529  55.686  1.00  0.00     0.007 A 
HETATM   15  C   UNL     1       7.940  20.424  54.856  1.00  0.00     0.001 A 
HETATM   16  C   UNL     1       8.037  20.594  53.478  1.00  0.00     0.000 A 
HETATM   17  C   UNL     1       7.932  21.869  52.928  1.00  0.00     0.001 A 
HETATM   18  C   UNL     1       7.731  22.975  53.757  1.00  0.00     0.007 A 
ENDBRANCH  12  13
ENDBRANCH  11  12
ENDBRANCH   8  11
ENDBRANCH   4   7
BRANCH   2  19
HETATM   19  N   UNL     1       5.246  26.882  49.204  1.00  0.00    -0.319 N 
HETATM   20  C   UNL     1       4.738  27.155  47.952  1.00  0.00     0.280 C 
HETATM   21  O   UNL     1       5.560  27.194  47.031  1.00  0.00    -0.265 OA
HETATM   22  H   UNL     1       6.167  26.467  49.137  1.00  0.00     0.169 HD
BRANCH  20  23
HETATM   23  C   UNL     1       3.310  27.244  47.725  1.00  0.00     0.142 A 
HETATM   24  O   UNL     1       2.839  28.363  47.083  1.00  0.00    -0.317 OA
HETATM   25  C   UNL     1       1.498  28.223  46.942  1.00  0.00     0.143 A 
HETATM   26  C   UNL     1       1.082  27.023  47.464  1.00  0.00     0.027 A 
HETATM   27  C   UNL     1       2.248  26.385  47.956  1.00  0.00     0.045 A 
ENDBRANCH  20  23
ENDBRANCH   2  19
BRANCH   1  28
HETATM   28  O   UNL     1       3.976  29.455  50.008  1.00  0.00    -0.354 OA
HETATM   29  C   UNL     1       2.672  30.006  50.210  1.00  0.00     0.210 C 
ENDBRANCH   1  28
TORSDOF 7
ENDMDL
MODEL 4
REMARK VINA RESULT:      -8.9      2.123      9.569
REMARK  7 active torsions:
REMARK  status: ('A' for Active; 'I' for Inactive)
REMARK    1  A    between atoms: O_2  and  C_3 
REMARK    2  A    between atoms: C_4  and  N_5 
REMARK       I    between atoms: N_5  and  C_6 
REMARK    3  A    between atoms: C_6  and  C_7 
REMARK    4  A    between atoms: C_14  and  N_15 
REMARK       I    between atoms: N_15  and  C_16 
REMARK    5  A    between atoms: C_16  and  C_17 
REMARK    6  A    between atoms: C_17  and  C_18 
REMARK    7  A    between atoms: C_18  and  C_19 
ROOT
HETATM    1  C   UNL     1       7.806  28.128  55.547  1.00  0.00     0.095 A 
HETATM    2  C   UNL     1       6.999  27.948  56.677  1.00  0.00     0.070 A 
HETATM    3  C   UNL     1       7.360  28.606  57.868  1.00  0.00     0.062 A 
HETATM    4  C   UNL     1       8.460  29.469  57.922  1.00  0.00     0.037 A 
HETATM    5  C   UNL     1       9.204  29.690  56.759  1.00  0.00     0.032 A 
HETATM    6  C   UNL     1       8.874  29.029  55.576  1.00  0.00     0.041 A 
ENDROOT
BRANCH   4   7
HETATM    7  N   UNL     1       8.899  30.119  59.094  1.00  0.00    -0.327 N 
HETATM    8  C   UNL     1       8.603  31.406  59.512  1.00  0.00     0.222 C 
HETATM    9  O   UNL     1       7.957  32.243  58.890  1.00  0.00    -0.273 OA
HETATM   10  H   UNL     1       9.513  29.577  59.689  1.00  0.00     0.169 HD
BRANCH   8  11
HETATM   11  C   UNL     1       9.134  31.707  60.902  1.00  0.00     0.108 C 
BRANCH  11  12
HETATM   12  C   UNL     1       8.127  31.350  62.000  1.00  0.00     0.047 C 
BRANCH  12  13
HETATM   13  C   UNL     1       7.524  32.540  62.713  1.00  0.00    -0.058 A 
HETATM   14  C   UNL     1       7.829  32.770  64.062  1.00  0.00     0.007 A 
HETATM   15  C   UNL     1       7.240  33.830  64.757  1.00  0.00     0.001 A 
HETATM   16  C   UNL     1       6.334  34.669  64.114  1.00  0.00     0.000 A 
HETATM   17  C   UNL     1       6.010  34.446  62.778  1.00  0.00     0.001 A 
HETATM   18  C   UNL     1       6.592  33.382  62.085  1.00  0.00     0.007 A 
ENDBRANCH  12  13
ENDBRANCH  11  12
ENDBRANCH   8  11
ENDBRANCH   4   7
BRANCH   2  19
HETATM   19  N   UNL     1       5.895  27.077  56.771  1.00  0.00    -0.319 N 
HETATM   20  C   UNL     1       5.793  25.716  56.962  1.00  0.00     0.280 C 
HETATM   21  O   UNL     1       4.759  25.321  57.511  1.00  0.00    -0.265 OA
HETATM   22  H   UNL     1       4.986  27.519  56.840  1.00  0.00     0.169 HD
BRANCH  20  23
HETATM   23  C   UNL     1       6.781  24.806  56.419  1.00  0.00     0.142 A 
HETATM   24  O   UNL     1       6.507  24.221  55.207  1.00  0.00    -0.317 OA
HETATM   25  C   UNL     1       7.569  23.449  54.872  1.00  0.00     0.143 A 
HETATM   26  C   UNL     1       8.545  23.530  55.835  1.00  0.00     0.027 A 
HETATM   27  C   UNL     1       8.046  24.413  56.824  1.00  0.00     0.045 A 
ENDBRANCH  20  23
ENDBRANCH   2  19
BRANCH   1  28
HETATM   28  O   UNL     1       7.638  27.434  54.381  1.00  0.00    -0.354 OA
HETATM   29  C   UNL     1       6.711  28.105  53.524  1.00  0.00     0.210 C 
ENDBRANCH   1  28
TORSDOF 7
ENDMDL
MODEL 5
REMARK VINA RESULT:      -8.9      1.540      2.727
REMARK  7 active torsions:
REMARK  status: ('A' for Active; 'I' for Inactive)
REMARK    1  A    between atoms: O_2  and  C_3 
REMARK    2  A    between atoms: C_4  and  N_5 
REMARK       I    between atoms: N_5  and  C_6 
REMARK    3  A    between atoms: C_6  and  C_7 
REMARK    4  A    between atoms: C_14  and  N_15 
REMARK       I    between atoms: N_15  and  C_16 
REMARK    5  A    between atoms: C_16  and  C_17 
REMARK    6  A    between atoms: C_17  and  C_18 
REMARK    7  A    between atoms: C_18  and  C_19 
ROOT
HETATM    1  C   UNL     1       8.640  30.895  58.334  1.00  0.00     0.095 A 
HETATM    2  C   UNL     1       7.288  30.549  58.442  1.00  0.00     0.070 A 
HETATM    3  C   UNL     1       6.875  29.302  57.935  1.00  0.00     0.062 A 
HETATM    4  C   UNL     1       7.790  28.395  57.390  1.00  0.00     0.037 A 
HETATM    5  C   UNL     1       9.146  28.735  57.364  1.00  0.00     0.032 A 
HETATM    6  C   UNL     1       9.569  29.975  57.841  1.00  0.00     0.041 A 
ENDROOT
BRANCH   4   7
HETATM    7  N   UNL     1       7.432  27.154  56.825  1.00  0.00    -0.327 N 
HETATM    8  C   UNL     1       7.551  25.897  57.394  1.00  0.00     0.222 C 
HETATM    9  O   UNL     1       8.063  25.633  58.477  1.00  0.00    -0.273 OA
HETATM   10  H   UNL     1       7.056  27.194  55.885  1.00  0.00     0.169 HD
BRANCH   8  11
HETATM   11  C   UNL     1       6.921  24.807  56.544  1.00  0.00     0.108 C 
BRANCH  11  12
HETATM   12  C   UNL     1       7.638  24.627  55.202  1.00  0.00     0.047 C 
BRANCH  12  13
HETATM   13  C   UNL     1       7.722  23.197  54.719  1.00  0.00    -0.058 A 
HETATM   14  C   UNL     1       7.658  22.146  55.644  1.00  0.00     0.007 A 
HETATM   15  C   UNL     1       7.791  20.818  55.227  1.00  0.00     0.001 A 
HETATM   16  C   UNL     1       7.995  20.525  53.882  1.00  0.00     0.000 A 
HETATM   17  C   UNL     1       8.074  21.559  52.952  1.00  0.00     0.001 A 
HETATM   18  C   UNL     1       7.950  22.887  53.369  1.00  0.00     0.007 A 
ENDBRANCH  12  13
ENDBRANCH  11  12
ENDBRANCH   8  11
ENDBRANCH   4   7
BRANCH   2  19
HETATM   19  N   UNL     1       6.259  31.382  58.926  1.00  0.00    -0.319 N 
HETATM   20  C   UNL     1       6.215  32.323  59.932  1.00  0.00     0.280 C 
HETATM   21  O   UNL     1       5.390  33.231  59.791  1.00  0.00    -0.265 OA
HETATM   22  H   UNL     1       5.413  31.411  58.369  1.00  0.00     0.169 HD
BRANCH  20  23
HETATM   23  C   UNL     1       6.995  32.162  61.143  1.00  0.00     0.142 A 
HETATM   24  O   UNL     1       7.492  30.912  61.416  1.00  0.00    -0.317 OA
HETATM   25  C   UNL     1       8.214  30.996  62.560  1.00  0.00     0.143 A 
HETATM   26  C   UNL     1       8.215  32.285  63.034  1.00  0.00     0.027 A 
HETATM   27  C   UNL     1       7.443  33.040  62.117  1.00  0.00     0.045 A 
ENDBRANCH  20  23
ENDBRANCH   2  19
BRANCH   1  28
HETATM   28  O   UNL     1       9.131  32.129  58.660  1.00  0.00    -0.354 OA
HETATM   29  C   UNL     1      10.243  32.010  59.551  1.00  0.00     0.210 C 
ENDBRANCH   1  28
TORSDOF 7
ENDMDL
MODEL 6
REMARK VINA RESULT:      -8.8      1.953      3.114
REMARK  7 active torsions:
REMARK  status: ('A' for Active; 'I' for Inactive)
REMARK    1  A    between atoms: O_2  and  C_3 
REMARK    2  A    between atoms: C_4  and  N_5 
REMARK       I    between atoms: N_5  and  C_6 
REMARK    3  A    between atoms: C_6  and  C_7 
REMARK    4  A    between atoms: C_14  and  N_15 
REMARK       I    between atoms: N_15  and  C_16 
REMARK    5  A    between atoms: C_16  and  C_17 
REMARK    6  A    between atoms: C_17  and  C_18 
REMARK    7  A    between atoms: C_18  and  C_19 
ROOT
HETATM    1  C   UNL     1       5.125  30.783  56.479  1.00  0.00     0.095 A 
HETATM    2  C   UNL     1       5.819  29.821  57.222  1.00  0.00     0.070 A 
HETATM    3  C   UNL     1       5.865  28.503  56.731  1.00  0.00     0.062 A 
HETATM    4  C   UNL     1       5.287  28.159  55.504  1.00  0.00     0.037 A 
HETATM    5  C   UNL     1       4.665  29.156  54.747  1.00  0.00     0.032 A 
HETATM    6  C   UNL     1       4.591  30.463  55.228  1.00  0.00     0.041 A 
ENDROOT
BRANCH   4   7
HETATM    7  N   UNL     1       5.259  26.849  54.982  1.00  0.00    -0.327 N 
HETATM    8  C   UNL     1       6.140  26.276  54.080  1.00  0.00     0.222 C 
HETATM    9  O   UNL     1       7.071  26.839  53.514  1.00  0.00    -0.273 OA
HETATM   10  H   UNL     1       4.492  26.269  55.301  1.00  0.00     0.169 HD
BRANCH   8  11
HETATM   11  C   UNL     1       5.878  24.795  53.865  1.00  0.00     0.108 C 
BRANCH  11  12
HETATM   12  C   UNL     1       7.051  24.091  53.177  1.00  0.00     0.047 C 
BRANCH  12  13
HETATM   13  C   UNL     1       7.446  22.770  53.800  1.00  0.00    -0.058 A 
HETATM   14  C   UNL     1       7.477  22.642  55.195  1.00  0.00     0.007 A 
HETATM   15  C   UNL     1       7.894  21.449  55.794  1.00  0.00     0.001 A 
HETATM   16  C   UNL     1       8.289  20.372  55.004  1.00  0.00     0.000 A 
HETATM   17  C   UNL     1       8.276  20.488  53.617  1.00  0.00     0.001 A 
HETATM   18  C   UNL     1       7.868  21.683  53.018  1.00  0.00     0.007 A 
ENDBRANCH  12  13
ENDBRANCH  11  12
ENDBRANCH   8  11
ENDBRANCH   4   7
BRANCH   2  19
HETATM   19  N   UNL     1       6.405  30.022  58.488  1.00  0.00    -0.319 N 
HETATM   20  C   UNL     1       7.642  30.483  58.883  1.00  0.00     0.280 C 
HETATM   21  O   UNL     1       7.689  31.034  59.987  1.00  0.00    -0.265 OA
HETATM   22  H   UNL     1       5.782  29.939  59.283  1.00  0.00     0.169 HD
BRANCH  20  23
HETATM   23  C   UNL     1       8.830  30.204  58.102  1.00  0.00     0.142 A 
HETATM   24  O   UNL     1       9.837  31.138  58.122  1.00  0.00    -0.317 OA
HETATM   25  C   UNL     1      10.855  30.662  57.365  1.00  0.00     0.143 A 
HETATM   26  C   UNL     1      10.543  29.423  56.862  1.00  0.00     0.027 A 
HETATM   27  C   UNL     1       9.247  29.119  57.346  1.00  0.00     0.045 A 
ENDBRANCH  20  23
ENDBRANCH   2  19
BRANCH   1  28
HETATM   28  O   UNL     1       4.893  32.056  56.923  1.00  0.00    -0.354 OA
HETATM   29  C   UNL     1       3.640  32.540  56.433  1.00  0.00     0.210 C 
ENDBRANCH   1  28
TORSDOF 7
ENDMDL
MODEL 7
REMARK VINA RESULT:      -8.6      1.770      3.027
REMARK  7 active torsions:
REMARK  status: ('A' for Active; 'I' for Inactive)
REMARK    1  A    between atoms: O_2  and  C_3 
REMARK    2  A    between atoms: C_4  and  N_5 
REMARK       I    between atoms: N_5  and  C_6 
REMARK    3  A    between atoms: C_6  and  C_7 
REMARK    4  A    between atoms: C_14  and  N_15 
REMARK       I    between atoms: N_15  and  C_16 
REMARK    5  A    between atoms: C_16  and  C_17 
REMARK    6  A    between atoms: C_17  and  C_18 
REMARK    7  A    between atoms: C_18  and  C_19 
ROOT
HETATM    1  C   UNL     1       7.713  30.747  58.318  1.00  0.00     0.095 A 
HETATM    2  C   UNL     1       6.465  30.753  57.684  1.00  0.00     0.070 A 
HETATM    3  C   UNL     1       5.973  29.541  57.165  1.00  0.00     0.062 A 
HETATM    4  C   UNL     1       6.674  28.340  57.322  1.00  0.00     0.037 A 
HETATM    5  C   UNL     1       7.882  28.349  58.025  1.00  0.00     0.032 A 
HETATM    6  C   UNL     1       8.395  29.545  58.527  1.00  0.00     0.041 A 
ENDROOT
BRANCH   4   7
HETATM    7  N   UNL     1       6.257  27.105  56.785  1.00  0.00    -0.327 N 
HETATM    8  C   UNL     1       6.576  26.566  55.549  1.00  0.00     0.222 C 
HETATM    9  O   UNL     1       7.227  27.110  54.664  1.00  0.00    -0.273 OA
HETATM   10  H   UNL     1       5.642  26.557  57.375  1.00  0.00     0.169 HD
BRANCH   8  11
HETATM   11  C   UNL     1       6.065  25.146  55.379  1.00  0.00     0.108 C 
BRANCH  11  12
HETATM   12  C   UNL     1       6.975  24.115  56.054  1.00  0.00     0.047 C 
BRANCH  12  13
HETATM   13  C   UNL     1       7.407  22.974  55.160  1.00  0.00    -0.058 A 
HETATM   14  C   UNL     1       7.509  23.175  53.777  1.00  0.00     0.007 A 
HETATM   15  C   UNL     1       7.850  22.121  52.925  1.00  0.00     0.001 A 
HETATM   16  C   UNL     1       8.088  20.852  53.444  1.00  0.00     0.000 A 
HETATM   17  C   UNL     1       7.978  20.632  54.815  1.00  0.00     0.001 A 
HETATM   18  C   UNL     1       7.628  21.683  55.666  1.00  0.00     0.007 A 
ENDBRANCH  12  13
ENDBRANCH  11  12
ENDBRANCH   8  11
ENDBRANCH   4   7
BRANCH   2  19
HETATM   19  N   UNL     1       5.680  31.893  57.420  1.00  0.00    -0.319 N 
HETATM   20  C   UNL     1       5.170  32.884  58.232  1.00  0.00     0.280 C 
HETATM   21  O   UNL     1       4.988  33.983  57.697  1.00  0.00    -0.265 OA
HETATM   22  H   UNL     1       5.553  32.128  56.443  1.00  0.00     0.169 HD
BRANCH  20  23
HETATM   23  C   UNL     1       4.745  32.599  59.587  1.00  0.00     0.142 A 
HETATM   24  O   UNL     1       5.697  32.652  60.575  1.00  0.00    -0.317 OA
HETATM   25  C   UNL     1       5.082  32.394  61.755  1.00  0.00     0.143 A 
HETATM   26  C   UNL     1       3.737  32.189  61.562  1.00  0.00     0.027 A 
HETATM   27  C   UNL     1       3.516  32.334  60.170  1.00  0.00     0.045 A 
ENDBRANCH  20  23
ENDBRANCH   2  19
BRANCH   1  28
HETATM   28  O   UNL     1       8.354  31.881  58.734  1.00  0.00    -0.354 OA
HETATM   29  C   UNL     1       9.758  31.645  58.871  1.00  0.00     0.210 C 
ENDBRANCH   1  28
TORSDOF 7
ENDMDL
MODEL 8
REMARK VINA RESULT:      -8.4      2.096      4.441
REMARK  7 active torsions:
REMARK  status: ('A' for Active; 'I' for Inactive)
REMARK    1  A    between atoms: O_2  and  C_3 
REMARK    2  A    between atoms: C_4  and  N_5 
REMARK       I    between atoms: N_5  and  C_6 
REMARK    3  A    between atoms: C_6  and  C_7 
REMARK    4  A    between atoms: C_14  and  N_15 
REMARK       I    between atoms: N_15  and  C_16 
REMARK    5  A    between atoms: C_16  and  C_17 
REMARK    6  A    between atoms: C_17  and  C_18 
REMARK    7  A    between atoms: C_18  and  C_19 
ROOT
HETATM    1  C   UNL     1       7.605  29.616  57.687  1.00  0.00     0.095 A 
HETATM    2  C   UNL     1       6.241  29.301  57.657  1.00  0.00     0.070 A 
HETATM    3  C   UNL     1       5.837  28.146  56.961  1.00  0.00     0.062 A 
HETATM    4  C   UNL     1       6.768  27.293  56.359  1.00  0.00     0.037 A 
HETATM    5  C   UNL     1       8.130  27.591  56.469  1.00  0.00     0.032 A 
HETATM    6  C   UNL     1       8.546  28.743  57.136  1.00  0.00     0.041 A 
ENDROOT
BRANCH   4   7
HETATM    7  N   UNL     1       6.424  26.149  55.609  1.00  0.00    -0.327 N 
HETATM    8  C   UNL     1       5.795  26.101  54.375  1.00  0.00     0.222 C 
HETATM    9  O   UNL     1       5.357  27.057  53.744  1.00  0.00    -0.273 OA
HETATM   10  H   UNL     1       6.657  25.261  56.035  1.00  0.00     0.169 HD
BRANCH   8  11
HETATM   11  C   UNL     1       5.725  24.695  53.807  1.00  0.00     0.108 C 
BRANCH  11  12
HETATM   12  C   UNL     1       7.082  24.210  53.285  1.00  0.00     0.047 C 
BRANCH  12  13
HETATM   13  C   UNL     1       7.519  22.865  53.821  1.00  0.00    -0.058 A 
HETATM   14  C   UNL     1       7.888  21.848  52.930  1.00  0.00     0.007 A 
HETATM   15  C   UNL     1       8.240  20.579  53.401  1.00  0.00     0.001 A 
HETATM   16  C   UNL     1       8.223  20.311  54.766  1.00  0.00     0.000 A 
HETATM   17  C   UNL     1       7.847  21.307  55.664  1.00  0.00     0.001 A 
HETATM   18  C   UNL     1       7.486  22.572  55.194  1.00  0.00     0.007 A 
ENDBRANCH  12  13
ENDBRANCH  11  12
ENDBRANCH   8  11
ENDBRANCH   4   7
BRANCH   2  19
HETATM   19  N   UNL     1       5.200  30.093  58.181  1.00  0.00    -0.319 N 
HETATM   20  C   UNL     1       4.086  30.670  57.608  1.00  0.00     0.280 C 
HETATM   21  O   UNL     1       3.120  30.845  58.358  1.00  0.00    -0.265 OA
HETATM   22  H   UNL     1       5.166  30.169  59.190  1.00  0.00     0.169 HD
BRANCH  20  23
HETATM   23  C   UNL     1       4.114  31.165  56.247  1.00  0.00     0.142 A 
HETATM   24  O   UNL     1       4.595  32.436  56.044  1.00  0.00    -0.317 OA
HETATM   25  C   UNL     1       4.569  32.677  54.711  1.00  0.00     0.143 A 
HETATM   26  C   UNL     1       4.096  31.581  54.032  1.00  0.00     0.027 A 
HETATM   27  C   UNL     1       3.816  30.602  55.017  1.00  0.00     0.045 A 
ENDBRANCH  20  23
ENDBRANCH   2  19
BRANCH   1  28
HETATM   28  O   UNL     1       8.099  30.780  58.209  1.00  0.00    -0.354 OA
HETATM   29  C   UNL     1       9.484  30.639  58.532  1.00  0.00     0.210 C 
ENDBRANCH   1  28
TORSDOF 7
ENDMDL
MODEL 9
REMARK VINA RESULT:      -8.4      6.596      9.088
REMARK  7 active torsions:
REMARK  status: ('A' for Active; 'I' for Inactive)
REMARK    1  A    between atoms: O_2  and  C_3 
REMARK    2  A    between atoms: C_4  and  N_5 
REMARK       I    between atoms: N_5  and  C_6 
REMARK    3  A    between atoms: C_6  and  C_7 
REMARK    4  A    between atoms: C_14  and  N_15 
REMARK       I    between atoms: N_15  and  C_16 
REMARK    5  A    between atoms: C_16  and  C_17 
REMARK    6  A    between atoms: C_17  and  C_18 
REMARK    7  A    between atoms: C_18  and  C_19 
ROOT
HETATM    1  C   UNL     1       3.612  29.558  50.893  1.00  0.00     0.095 A 
HETATM    2  C   UNL     1       4.590  28.792  50.246  1.00  0.00     0.070 A 
HETATM    3  C   UNL     1       5.233  27.774  50.975  1.00  0.00     0.062 A 
HETATM    4  C   UNL     1       4.873  27.483  52.295  1.00  0.00     0.037 A 
HETATM    5  C   UNL     1       3.842  28.213  52.892  1.00  0.00     0.032 A 
HETATM    6  C   UNL     1       3.209  29.240  52.192  1.00  0.00     0.041 A 
ENDROOT
BRANCH   4   7
HETATM    7  N   UNL     1       5.511  26.509  53.092  1.00  0.00    -0.327 N 
HETATM    8  C   UNL     1       5.386  25.132  53.011  1.00  0.00     0.222 C 
HETATM    9  O   UNL     1       4.633  24.512  52.268  1.00  0.00    -0.273 OA
HETATM   10  H   UNL     1       6.121  26.869  53.816  1.00  0.00     0.169 HD
BRANCH   8  11
HETATM   11  C   UNL     1       6.344  24.402  53.937  1.00  0.00     0.108 C 
BRANCH  11  12
HETATM   12  C   UNL     1       7.308  23.488  53.173  1.00  0.00     0.047 C 
BRANCH  12  13
HETATM   13  C   UNL     1       7.786  22.284  53.953  1.00  0.00    -0.058 A 
HETATM   14  C   UNL     1       8.340  21.191  53.273  1.00  0.00     0.007 A 
HETATM   15  C   UNL     1       8.736  20.044  53.967  1.00  0.00     0.001 A 
HETATM   16  C   UNL     1       8.577  19.973  55.349  1.00  0.00     0.000 A 
HETATM   17  C   UNL     1       8.015  21.045  56.037  1.00  0.00     0.001 A 
HETATM   18  C   UNL     1       7.611  22.189  55.343  1.00  0.00     0.007 A 
ENDBRANCH  12  13
ENDBRANCH  11  12
ENDBRANCH   8  11
ENDBRANCH   4   7
BRANCH   2  19
HETATM   19  N   UNL     1       5.076  29.008  48.940  1.00  0.00    -0.319 N 
HETATM   20  C   UNL     1       4.514  28.834  47.694  1.00  0.00     0.280 C 
HETATM   21  O   UNL     1       4.944  29.567  46.798  1.00  0.00    -0.265 OA
HETATM   22  H   UNL     1       5.958  29.502  48.872  1.00  0.00     0.169 HD
BRANCH  20  23
HETATM   23  C   UNL     1       3.580  27.756  47.436  1.00  0.00     0.142 A 
HETATM   24  O   UNL     1       4.097  26.494  47.275  1.00  0.00    -0.317 OA
HETATM   25  C   UNL     1       3.058  25.645  47.086  1.00  0.00     0.143 A 
HETATM   26  C   UNL     1       1.866  26.324  47.137  1.00  0.00     0.027 A 
HETATM   27  C   UNL     1       2.198  27.680  47.376  1.00  0.00     0.045 A 
ENDBRANCH  20  23
ENDBRANCH   2  19
BRANCH   1  28
HETATM   28  O   UNL     1       3.024  30.658  50.334  1.00  0.00    -0.354 OA
HETATM   29  C   UNL     1       1.711  30.344  49.864  1.00  0.00     0.210 C 
ENDBRANCH   1  28
TORSDOF 7
ENDMDL
MODEL 10
REMARK VINA RESULT:      -8.3      2.164      9.295
REMARK  7 active torsions:
REMARK  status: ('A' for Active; 'I' for Inactive)
REMARK    1  A    between atoms: O_2  and  C_3 
REMARK    2  A    between atoms: C_4  and  N_5 
REMARK       I    between atoms: N_5  and  C_6 
REMARK    3  A    between atoms: C_6  and  C_7 
REMARK    4  A    between atoms: C_14  and  N_15 
REMARK       I    between atoms: N_15  and  C_16 
REMARK    5  A    between atoms: C_16  and  C_17 
REMARK    6  A    between atoms: C_17  and  C_18 
REMARK    7  A    between atoms: C_18  and  C_19 
ROOT
HETATM    1  C   UNL     1       5.398  27.638  55.117  1.00  0.00     0.095 A 
HETATM    2  C   UNL     1       6.792  27.505  55.109  1.00  0.00     0.070 A 
HETATM    3  C   UNL     1       7.518  28.011  56.204  1.00  0.00     0.062 A 
HETATM    4  C   UNL     1       6.874  28.581  57.307  1.00  0.00     0.037 A 
HETATM    5  C   UNL     1       5.477  28.632  57.323  1.00  0.00     0.032 A 
HETATM    6  C   UNL     1       4.743  28.156  56.237  1.00  0.00     0.041 A 
ENDROOT
BRANCH   4   7
HETATM    7  N   UNL     1       7.546  29.146  58.411  1.00  0.00    -0.327 N 
HETATM    8  C   UNL     1       7.629  30.484  58.760  1.00  0.00     0.222 C 
HETATM    9  O   UNL     1       7.185  31.432  58.120  1.00  0.00    -0.273 OA
HETATM   10  H   UNL     1       8.035  28.489  59.007  1.00  0.00     0.169 HD
BRANCH   8  11
HETATM   11  C   UNL     1       8.312  30.700  60.099  1.00  0.00     0.108 C 
BRANCH  11  12
HETATM   12  C   UNL     1       8.502  32.185  60.422  1.00  0.00     0.047 C 
BRANCH  12  13
HETATM   13  C   UNL     1       7.805  32.649  61.682  1.00  0.00    -0.058 A 
HETATM   14  C   UNL     1       6.620  33.392  61.587  1.00  0.00     0.007 A 
HETATM   15  C   UNL     1       5.989  33.880  62.735  1.00  0.00     0.001 A 
HETATM   16  C   UNL     1       6.538  33.637  63.991  1.00  0.00     0.000 A 
HETATM   17  C   UNL     1       7.722  32.913  64.101  1.00  0.00     0.001 A 
HETATM   18  C   UNL     1       8.358  32.432  62.954  1.00  0.00     0.007 A 
ENDBRANCH  12  13
ENDBRANCH  11  12
ENDBRANCH   8  11
ENDBRANCH   4   7
BRANCH   2  19
HETATM   19  N   UNL     1       7.565  26.995  54.047  1.00  0.00    -0.319 N 
HETATM   20  C   UNL     1       7.740  25.723  53.546  1.00  0.00     0.280 C 
HETATM   21  O   UNL     1       8.032  25.647  52.348  1.00  0.00    -0.265 OA
HETATM   22  H   UNL     1       7.988  27.684  53.436  1.00  0.00     0.169 HD
BRANCH  20  23
HETATM   23  C   UNL     1       7.721  24.565  54.417  1.00  0.00     0.142 A 
HETATM   24  O   UNL     1       8.335  24.680  55.640  1.00  0.00    -0.317 OA
HETATM   25  C   UNL     1       8.164  23.509  56.298  1.00  0.00     0.143 A 
HETATM   26  C   UNL     1       7.433  22.630  55.537  1.00  0.00     0.027 A 
HETATM   27  C   UNL     1       7.134  23.313  54.332  1.00  0.00     0.045 A 
ENDBRANCH  20  23
ENDBRANCH   2  19
BRANCH   1  28
HETATM   28  O   UNL     1       4.603  27.315  54.053  1.00  0.00    -0.354 OA
HETATM   29  C   UNL     1       3.893  28.465  53.586  1.00  0.00     0.210 C 
ENDBRANCH   1  28
TORSDOF 7
ENDMDL
