MODEL 1
REMARK VINA RESULT:      -8.6      0.000      0.000
REMARK  5 active torsions:
REMARK  status: ('A' for Active; 'I' for Inactive)
REMARK    1  A    between atoms: C_6  and  C_7 
REMARK    2  A    between atoms: C_12  and  C_13 
REMARK    3  A    between atoms: C_13  and  N_14 
REMARK    4  A    between atoms: C_17  and  C_19 
REMARK    5  A    between atoms: C_17  and  O_18 
ROOT
HETATM    1  C   UNL     1       5.909  25.080  53.641  1.00  0.00     0.096 A 
HETATM    2  N   UNL     1       4.640  24.859  53.279  1.00  0.00    -0.174 NA
HETATM    3  N   UNL     1       4.115  26.068  53.069  1.00  0.00    -0.288 N 
HETATM    4  H   UNL     1       3.146  26.126  52.764  1.00  0.00     0.188 HD
HETATM    5  C   UNL     1       5.002  27.080  53.289  1.00  0.00     0.120 A 
HETATM    6  C   UNL     1       6.191  26.485  53.672  1.00  0.00     0.016 A 
ENDROOT
BRANCH   6   7
HETATM    7  C   UNL     1       7.482  27.152  53.969  1.00  0.00     0.277 C 
BRANCH   7   8
HETATM    8  N   UNL     1       7.484  27.870  55.292  1.00  0.00    -0.064 N 
HETATM    9  H   UNL     1       6.549  28.286  55.429  1.00  0.00     0.280 HD
HETATM   10  C   UNL     1       8.486  29.001  55.418  1.00  0.00     0.282 C 
HETATM   11  C   UNL     1       8.521  29.272  56.923  1.00  0.00     0.180 C 
HETATM   12  C   UNL     1       8.103  27.957  57.594  1.00  0.00     0.076 C 
HETATM   13  C   UNL     1       7.794  26.988  56.464  1.00  0.00     0.238 C 
BRANCH  11  14
HETATM   14  C   UNL     1       9.931  29.724  57.302  1.00  0.00     0.419 C 
HETATM   15  F   UNL     1      10.837  28.769  57.016  1.00  0.00    -0.168 F 
HETATM   16  F   UNL     1      10.265  30.846  56.637  1.00  0.00    -0.168 F 
HETATM   17  F   UNL     1       9.997  29.979  58.627  1.00  0.00    -0.168 F 
ENDBRANCH  11  14
BRANCH  11  18
HETATM   18  O   UNL     1       7.494  30.240  57.225  1.00  0.00    -0.379 OA
HETATM   19  H   UNL     1       7.919  31.106  57.396  1.00  0.00     0.211 HD
ENDBRANCH  11  18
ENDBRANCH   7   8
ENDBRANCH   6   7
BRANCH   1  20
HETATM   20  C   UNL     1       6.802  23.953  53.906  1.00  0.00    -0.003 A 
HETATM   21  C   UNL     1       7.088  23.547  55.213  1.00  0.00     0.037 A 
HETATM   22  C   UNL     1       7.969  22.488  55.439  1.00  0.00     0.035 A 
HETATM   23  C   UNL     1       8.556  21.811  54.373  1.00  0.00     0.024 A 
HETATM   24 CL   UNL     1       8.336  22.035  57.057  1.00  0.00    -0.084 Cl
HETATM   25  C   UNL     1       8.255  22.191  53.067  1.00  0.00     0.003 A 
HETATM   26  C   UNL     1       7.382  23.257  52.835  1.00  0.00     0.014 A 
ENDBRANCH   1  20
TORSDOF 5
ENDMDL
MODEL 2
REMARK VINA RESULT:      -8.3      1.766      2.062
REMARK  5 active torsions:
REMARK  status: ('A' for Active; 'I' for Inactive)
REMARK    1  A    between atoms: C_6  and  C_7 
REMARK    2  A    between atoms: C_12  and  C_13 
REMARK    3  A    between atoms: C_13  and  N_14 
REMARK    4  A    between atoms: C_17  and  C_19 
REMARK    5  A    between atoms: C_17  and  O_18 
ROOT
HETATM    1  C   UNL     1       7.179  24.031  53.052  1.00  0.00     0.096 A 
HETATM    2  N   UNL     1       7.606  24.276  51.808  1.00  0.00    -0.174 NA
HETATM    3  N   UNL     1       7.121  25.480  51.496  1.00  0.00    -0.288 N 
HETATM    4  H   UNL     1       7.347  25.869  50.584  1.00  0.00     0.188 HD
HETATM    5  C   UNL     1       6.379  26.032  52.499  1.00  0.00     0.120 A 
HETATM    6  C   UNL     1       6.381  25.118  53.538  1.00  0.00     0.016 A 
ENDROOT
BRANCH   6   7
HETATM    7  C   UNL     1       5.763  25.272  54.877  1.00  0.00     0.277 C 
BRANCH   7   8
HETATM    8  N   UNL     1       5.839  26.680  55.404  1.00  0.00    -0.064 N 
HETATM    9  H   UNL     1       5.357  27.297  54.732  1.00  0.00     0.280 HD
HETATM   10  C   UNL     1       7.239  27.236  55.576  1.00  0.00     0.282 C 
HETATM   11  C   UNL     1       7.020  28.475  56.447  1.00  0.00     0.180 C 
HETATM   12  C   UNL     1       5.726  28.211  57.230  1.00  0.00     0.076 C 
HETATM   13  C   UNL     1       5.216  26.860  56.756  1.00  0.00     0.238 C 
BRANCH  11  14
HETATM   14  C   UNL     1       8.243  28.662  57.343  1.00  0.00     0.419 C 
HETATM   15  F   UNL     1       9.021  27.563  57.334  1.00  0.00    -0.168 F 
HETATM   16  F   UNL     1       8.978  29.712  56.930  1.00  0.00    -0.168 F 
HETATM   17  F   UNL     1       7.856  28.888  58.617  1.00  0.00    -0.168 F 
ENDBRANCH  11  14
BRANCH  11  18
HETATM   18  O   UNL     1       6.757  29.592  55.571  1.00  0.00    -0.379 OA
HETATM   19  H   UNL     1       5.885  29.458  55.143  1.00  0.00     0.211 HD
ENDBRANCH  11  18
ENDBRANCH   7   8
ENDBRANCH   6   7
BRANCH   1  20
HETATM   20  C   UNL     1       7.571  22.799  53.731  1.00  0.00    -0.003 A 
HETATM   21  C   UNL     1       7.699  22.747  55.123  1.00  0.00     0.037 A 
HETATM   22  C   UNL     1       8.107  21.565  55.744  1.00  0.00     0.035 A 
HETATM   23  C   UNL     1       8.371  20.422  54.995  1.00  0.00     0.024 A 
HETATM   24 CL   UNL     1       8.297  21.540  57.453  1.00  0.00    -0.084 Cl
HETATM   25  C   UNL     1       8.220  20.457  53.610  1.00  0.00     0.003 A 
HETATM   26  C   UNL     1       7.822  21.639  52.982  1.00  0.00     0.014 A 
ENDBRANCH   1  20
TORSDOF 5
ENDMDL
MODEL 3
REMARK VINA RESULT:      -8.3      3.852      5.200
REMARK  5 active torsions:
REMARK  status: ('A' for Active; 'I' for Inactive)
REMARK    1  A    between atoms: C_6  and  C_7 
REMARK    2  A    between atoms: C_12  and  C_13 
REMARK    3  A    between atoms: C_13  and  N_14 
REMARK    4  A    between atoms: C_17  and  C_19 
REMARK    5  A    between atoms: C_17  and  O_18 
ROOT
HETATM    1  C   UNL     1       7.779  24.590  56.177  1.00  0.00     0.096 A 
HETATM    2  N   UNL     1       8.812  24.892  56.971  1.00  0.00    -0.174 NA
HETATM    3  N   UNL     1       8.363  25.844  57.792  1.00  0.00    -0.288 N 
HETATM    4  H   UNL     1       8.997  26.209  58.500  1.00  0.00     0.188 HD
HETATM    5  C   UNL     1       7.064  26.184  57.554  1.00  0.00     0.120 A 
HETATM    6  C   UNL     1       6.637  25.394  56.501  1.00  0.00     0.016 A 
ENDROOT
BRANCH   6   7
HETATM    7  C   UNL     1       5.282  25.342  55.902  1.00  0.00     0.277 C 
BRANCH   7   8
HETATM    8  N   UNL     1       5.103  26.310  54.763  1.00  0.00    -0.064 N 
HETATM    9  H   UNL     1       4.327  26.946  55.005  1.00  0.00     0.280 HD
HETATM   10  C   UNL     1       4.752  25.686  53.426  1.00  0.00     0.282 C 
HETATM   11  C   UNL     1       5.004  26.820  52.432  1.00  0.00     0.180 C 
HETATM   12  C   UNL     1       6.043  27.734  53.095  1.00  0.00     0.076 C 
HETATM   13  C   UNL     1       6.322  27.131  54.462  1.00  0.00     0.238 C 
BRANCH  11  14
HETATM   14  C   UNL     1       5.484  26.214  51.114  1.00  0.00     0.419 C 
HETATM   15  F   UNL     1       4.618  25.286  50.666  1.00  0.00    -0.168 F 
HETATM   16  F   UNL     1       5.616  27.168  50.173  1.00  0.00    -0.168 F 
HETATM   17  F   UNL     1       6.684  25.618  51.286  1.00  0.00    -0.168 F 
ENDBRANCH  11  14
BRANCH  11  18
HETATM   18  O   UNL     1       3.786  27.587  52.316  1.00  0.00    -0.379 OA
HETATM   19  H   UNL     1       3.966  28.507  52.606  1.00  0.00     0.211 HD
ENDBRANCH  11  18
ENDBRANCH   7   8
ENDBRANCH   6   7
BRANCH   1  20
HETATM   20  C   UNL     1       7.910  23.535  55.174  1.00  0.00    -0.003 A 
HETATM   21  C   UNL     1       8.171  22.212  55.544  1.00  0.00     0.037 A 
HETATM   22  C   UNL     1       8.324  21.230  54.563  1.00  0.00     0.035 A 
HETATM   23  C   UNL     1       8.199  21.546  53.213  1.00  0.00     0.024 A 
HETATM   24 CL   UNL     1       8.684  19.618  55.042  1.00  0.00    -0.084 Cl
HETATM   25  C   UNL     1       7.913  22.857  52.838  1.00  0.00     0.003 A 
HETATM   26  C   UNL     1       7.769  23.846  53.813  1.00  0.00     0.014 A 
ENDBRANCH   1  20
TORSDOF 5
ENDMDL
MODEL 4
REMARK VINA RESULT:      -8.1      5.288      6.561
REMARK  5 active torsions:
REMARK  status: ('A' for Active; 'I' for Inactive)
REMARK    1  A    between atoms: C_6  and  C_7 
REMARK    2  A    between atoms: C_12  and  C_13 
REMARK    3  A    between atoms: C_13  and  N_14 
REMARK    4  A    between atoms: C_17  and  C_19 
REMARK    5  A    between atoms: C_17  and  O_18 
ROOT
HETATM    1  C   UNL     1       6.135  25.169  54.458  1.00  0.00     0.096 A 
HETATM    2  N   UNL     1       5.620  25.522  55.641  1.00  0.00    -0.174 NA
HETATM    3  N   UNL     1       4.986  26.677  55.423  1.00  0.00    -0.288 N 
HETATM    4  H   UNL     1       4.502  27.116  56.203  1.00  0.00     0.188 HD
HETATM    5  C   UNL     1       5.075  27.097  54.128  1.00  0.00     0.120 A 
HETATM    6  C   UNL     1       5.823  26.146  53.456  1.00  0.00     0.016 A 
ENDROOT
BRANCH   6   7
HETATM    7  C   UNL     1       6.155  26.114  52.012  1.00  0.00     0.277 C 
BRANCH   7   8
HETATM    8  N   UNL     1       5.184  26.893  51.166  1.00  0.00    -0.064 N 
HETATM    9  H   UNL     1       4.357  27.105  51.746  1.00  0.00     0.280 HD
HETATM   10  C   UNL     1       4.675  26.176  49.930  1.00  0.00     0.282 C 
HETATM   11  C   UNL     1       4.043  27.300  49.108  1.00  0.00     0.180 C 
HETATM   12  C   UNL     1       4.756  28.588  49.542  1.00  0.00     0.076 C 
HETATM   13  C   UNL     1       5.738  28.179  50.628  1.00  0.00     0.238 C 
BRANCH  11  14
HETATM   14  C   UNL     1       4.223  26.979  47.625  1.00  0.00     0.419 C 
HETATM   15  F   UNL     1       3.251  27.547  46.886  1.00  0.00    -0.168 F 
HETATM   16  F   UNL     1       5.415  27.425  47.184  1.00  0.00    -0.168 F 
HETATM   17  F   UNL     1       4.170  25.643  47.429  1.00  0.00    -0.168 F 
ENDBRANCH  11  14
BRANCH  11  18
HETATM   18  O   UNL     1       2.665  27.428  49.518  1.00  0.00    -0.379 OA
HETATM   19  H   UNL     1       2.284  28.227  49.095  1.00  0.00     0.211 HD
ENDBRANCH  11  18
ENDBRANCH   7   8
ENDBRANCH   6   7
BRANCH   1  20
HETATM   20  C   UNL     1       6.866  23.911  54.324  1.00  0.00    -0.003 A 
HETATM   21  C   UNL     1       7.204  23.146  55.445  1.00  0.00     0.037 A 
HETATM   22  C   UNL     1       7.931  21.964  55.290  1.00  0.00     0.035 A 
HETATM   23  C   UNL     1       8.310  21.521  54.026  1.00  0.00     0.024 A 
HETATM   24 CL   UNL     1       8.370  21.063  56.688  1.00  0.00    -0.084 Cl
HETATM   25  C   UNL     1       7.953  22.263  52.902  1.00  0.00     0.003 A 
HETATM   26  C   UNL     1       7.235  23.452  53.050  1.00  0.00     0.014 A 
ENDBRANCH   1  20
TORSDOF 5
ENDMDL
MODEL 5
REMARK VINA RESULT:      -8.1      2.001      2.486
REMARK  5 active torsions:
REMARK  status: ('A' for Active; 'I' for Inactive)
REMARK    1  A    between atoms: C_6  and  C_7 
REMARK    2  A    between atoms: C_12  and  C_13 
REMARK    3  A    between atoms: C_13  and  N_14 
REMARK    4  A    between atoms: C_17  and  C_19 
REMARK    5  A    between atoms: C_17  and  O_18 
ROOT
HETATM    1  C   UNL     1       6.109  25.162  53.781  1.00  0.00     0.096 A 
HETATM    2  N   UNL     1       4.835  24.825  53.547  1.00  0.00    -0.174 NA
HETATM    3  N   UNL     1       4.227  25.959  53.190  1.00  0.00    -0.288 N 
HETATM    4  H   UNL     1       3.240  25.921  52.948  1.00  0.00     0.188 HD
HETATM    5  C   UNL     1       5.065  27.036  53.190  1.00  0.00     0.120 A 
HETATM    6  C   UNL     1       6.308  26.567  53.576  1.00  0.00     0.016 A 
ENDROOT
BRANCH   6   7
HETATM    7  C   UNL     1       7.572  27.335  53.676  1.00  0.00     0.277 C 
BRANCH   7   8
HETATM    8  N   UNL     1       7.902  27.747  55.086  1.00  0.00    -0.064 N 
HETATM    9  H   UNL     1       8.366  26.950  55.549  1.00  0.00     0.280 HD
HETATM   10  C   UNL     1       6.714  28.120  55.951  1.00  0.00     0.282 C 
HETATM   11  C   UNL     1       7.357  28.829  57.144  1.00  0.00     0.180 C 
HETATM   12  C   UNL     1       8.691  29.388  56.628  1.00  0.00     0.076 C 
HETATM   13  C   UNL     1       8.799  28.945  55.178  1.00  0.00     0.238 C 
BRANCH  11  14
HETATM   14  C   UNL     1       6.399  29.912  57.640  1.00  0.00     0.419 C 
HETATM   15  F   UNL     1       6.838  30.453  58.792  1.00  0.00    -0.168 F 
HETATM   16  F   UNL     1       6.275  30.891  56.724  1.00  0.00    -0.168 F 
HETATM   17  F   UNL     1       5.177  29.383  57.866  1.00  0.00    -0.168 F 
ENDBRANCH  11  14
BRANCH  11  18
HETATM   18  O   UNL     1       7.678  27.830  58.134  1.00  0.00    -0.379 OA
HETATM   19  H   UNL     1       7.536  26.942  57.743  1.00  0.00     0.211 HD
ENDBRANCH  11  18
ENDBRANCH   7   8
ENDBRANCH   6   7
BRANCH   1  20
HETATM   20  C   UNL     1       7.081  24.136  54.153  1.00  0.00    -0.003 A 
HETATM   21  C   UNL     1       7.321  23.032  53.329  1.00  0.00     0.037 A 
HETATM   22  C   UNL     1       8.231  22.050  53.724  1.00  0.00     0.035 A 
HETATM   23  C   UNL     1       8.925  22.165  54.925  1.00  0.00     0.024 A 
HETATM   24 CL   UNL     1       8.478  20.681  52.712  1.00  0.00    -0.084 Cl
HETATM   25  C   UNL     1       8.712  23.276  55.739  1.00  0.00     0.003 A 
HETATM   26  C   UNL     1       7.794  24.256  55.354  1.00  0.00     0.014 A 
ENDBRANCH   1  20
TORSDOF 5
ENDMDL
MODEL 6
REMARK VINA RESULT:      -7.9      3.908      5.473
REMARK  5 active torsions:
REMARK  status: ('A' for Active; 'I' for Inactive)
REMARK    1  A    between atoms: C_6  and  C_7 
REMARK    2  A    between atoms: C_12  and  C_13 
REMARK    3  A    between atoms: C_13  and  N_14 
REMARK    4  A    between atoms: C_17  and  C_19 
REMARK    5  A    between atoms: C_17  and  O_18 
ROOT
HETATM    1  C   UNL     1       7.593  26.602  56.747  1.00  0.00     0.096 A 
HETATM    2  N   UNL     1       8.553  27.267  57.400  1.00  0.00    -0.174 NA
HETATM    3  N   UNL     1       8.003  28.433  57.749  1.00  0.00    -0.288 N 
HETATM    4  H   UNL     1       8.568  29.092  58.279  1.00  0.00     0.188 HD
HETATM    5  C   UNL     1       6.709  28.556  57.337  1.00  0.00     0.120 A 
HETATM    6  C   UNL     1       6.395  27.385  56.670  1.00  0.00     0.016 A 
ENDROOT
BRANCH   6   7
HETATM    7  C   UNL     1       5.088  27.002  56.082  1.00  0.00     0.277 C 
BRANCH   7   8
HETATM    8  N   UNL     1       4.932  27.448  54.653  1.00  0.00    -0.064 N 
HETATM    9  H   UNL     1       4.146  28.115  54.612  1.00  0.00     0.280 HD
HETATM   10  C   UNL     1       4.620  26.347  53.658  1.00  0.00     0.282 C 
HETATM   11  C   UNL     1       4.889  27.009  52.306  1.00  0.00     0.180 C 
HETATM   12  C   UNL     1       5.905  28.126  52.582  1.00  0.00     0.076 C 
HETATM   13  C   UNL     1       6.153  28.107  54.082  1.00  0.00     0.238 C 
BRANCH  11  14
HETATM   14  C   UNL     1       5.407  25.946  51.338  1.00  0.00     0.419 C 
HETATM   15  F   UNL     1       4.907  24.733  51.641  1.00  0.00    -0.168 F 
HETATM   16  F   UNL     1       5.062  26.248  50.072  1.00  0.00    -0.168 F 
HETATM   17  F   UNL     1       6.754  25.872  51.406  1.00  0.00    -0.168 F 
ENDBRANCH  11  14
BRANCH  11  18
HETATM   18  O   UNL     1       3.670  27.651  51.875  1.00  0.00    -0.379 OA
HETATM   19  H   UNL     1       3.127  27.857  52.665  1.00  0.00     0.211 HD
ENDBRANCH  11  18
ENDBRANCH   7   8
ENDBRANCH   6   7
BRANCH   1  20
HETATM   20  C   UNL     1       7.844  25.248  56.257  1.00  0.00    -0.003 A 
HETATM   21  C   UNL     1       7.758  24.942  54.895  1.00  0.00     0.037 A 
HETATM   22  C   UNL     1       7.971  23.633  54.459  1.00  0.00     0.035 A 
HETATM   23  C   UNL     1       8.291  22.624  55.363  1.00  0.00     0.024 A 
HETATM   24 CL   UNL     1       7.819  23.275  52.784  1.00  0.00    -0.084 Cl
HETATM   25  C   UNL     1       8.406  22.926  56.718  1.00  0.00     0.003 A 
HETATM   26  C   UNL     1       8.184  24.232  57.163  1.00  0.00     0.014 A 
ENDBRANCH   1  20
TORSDOF 5
ENDMDL
MODEL 7
REMARK VINA RESULT:      -7.8      5.165      7.089
REMARK  5 active torsions:
REMARK  status: ('A' for Active; 'I' for Inactive)
REMARK    1  A    between atoms: C_6  and  C_7 
REMARK    2  A    between atoms: C_12  and  C_13 
REMARK    3  A    between atoms: C_13  and  N_14 
REMARK    4  A    between atoms: C_17  and  C_19 
REMARK    5  A    between atoms: C_17  and  O_18 
ROOT
HETATM    1  C   UNL     1       5.902  27.488  51.735  1.00  0.00     0.096 A 
HETATM    2  N   UNL     1       5.751  28.636  52.405  1.00  0.00    -0.174 NA
HETATM    3  N   UNL     1       6.419  28.470  53.549  1.00  0.00    -0.288 N 
HETATM    4  H   UNL     1       6.445  29.245  54.208  1.00  0.00     0.188 HD
HETATM    5  C   UNL     1       6.999  27.241  53.654  1.00  0.00     0.120 A 
HETATM    6  C   UNL     1       6.685  26.557  52.493  1.00  0.00     0.016 A 
ENDROOT
BRANCH   6   7
HETATM    7  C   UNL     1       7.128  25.198  52.097  1.00  0.00     0.277 C 
BRANCH   7   8
HETATM    8  N   UNL     1       7.646  24.386  53.253  1.00  0.00    -0.064 N 
HETATM    9  H   UNL     1       8.439  24.898  53.671  1.00  0.00     0.280 HD
HETATM   10  C   UNL     1       8.160  23.004  52.901  1.00  0.00     0.282 C 
HETATM   11  C   UNL     1       8.254  22.307  54.259  1.00  0.00     0.180 C 
HETATM   12  C   UNL     1       7.236  23.016  55.164  1.00  0.00     0.076 C 
HETATM   13  C   UNL     1       6.626  24.125  54.321  1.00  0.00     0.238 C 
BRANCH  11  14
HETATM   14  C   UNL     1       7.957  20.821  54.065  1.00  0.00     0.419 C 
HETATM   15  F   UNL     1       7.271  20.324  55.111  1.00  0.00    -0.168 F 
HETATM   16  F   UNL     1       7.236  20.623  52.945  1.00  0.00    -0.168 F 
HETATM   17  F   UNL     1       9.111  20.127  53.955  1.00  0.00    -0.168 F 
ENDBRANCH  11  14
BRANCH  11  18
HETATM   18  O   UNL     1       9.561  22.579  54.808  1.00  0.00    -0.379 OA
HETATM   19  H   UNL     1       9.675  22.048  55.624  1.00  0.00     0.211 HD
ENDBRANCH  11  18
ENDBRANCH   7   8
ENDBRANCH   6   7
BRANCH   1  20
HETATM   20  C   UNL     1       5.329  27.339  50.399  1.00  0.00    -0.003 A 
HETATM   21  C   UNL     1       4.546  26.229  50.066  1.00  0.00     0.037 A 
HETATM   22  C   UNL     1       4.037  26.096  48.773  1.00  0.00     0.035 A 
HETATM   23  C   UNL     1       4.282  27.069  47.807  1.00  0.00     0.024 A 
HETATM   24 CL   UNL     1       3.111  24.702  48.377  1.00  0.00    -0.084 Cl
HETATM   25  C   UNL     1       5.039  28.191  48.139  1.00  0.00     0.003 A 
HETATM   26  C   UNL     1       5.559  28.325  49.428  1.00  0.00     0.014 A 
ENDBRANCH   1  20
TORSDOF 5
ENDMDL
MODEL 8
REMARK VINA RESULT:      -7.7      5.035      8.416
REMARK  5 active torsions:
REMARK  status: ('A' for Active; 'I' for Inactive)
REMARK    1  A    between atoms: C_6  and  C_7 
REMARK    2  A    between atoms: C_12  and  C_13 
REMARK    3  A    between atoms: C_13  and  N_14 
REMARK    4  A    between atoms: C_17  and  C_19 
REMARK    5  A    between atoms: C_17  and  O_18 
ROOT
HETATM    1  C   UNL     1       9.055  31.318  58.895  1.00  0.00     0.096 A 
HETATM    2  N   UNL     1      10.167  31.985  58.567  1.00  0.00    -0.174 NA
HETATM    3  N   UNL     1      10.770  31.237  57.640  1.00  0.00    -0.288 N 
HETATM    4  H   UNL     1      11.640  31.577  57.237  1.00  0.00     0.188 HD
HETATM    5  C   UNL     1      10.088  30.091  57.353  1.00  0.00     0.120 A 
HETATM    6  C   UNL     1       8.959  30.095  58.154  1.00  0.00     0.016 A 
ENDROOT
BRANCH   6   7
HETATM    7  C   UNL     1       7.864  29.095  58.177  1.00  0.00     0.277 C 
BRANCH   7   8
HETATM    8  N   UNL     1       7.504  28.584  56.808  1.00  0.00    -0.064 N 
HETATM    9  H   UNL     1       8.333  28.685  56.202  1.00  0.00     0.280 HD
HETATM   10  C   UNL     1       6.370  29.316  56.117  1.00  0.00     0.282 C 
HETATM   11  C   UNL     1       5.992  28.376  54.971  1.00  0.00     0.180 C 
HETATM   12  C   UNL     1       6.416  26.972  55.424  1.00  0.00     0.076 C 
HETATM   13  C   UNL     1       7.066  27.150  56.787  1.00  0.00     0.238 C 
BRANCH  11  14
HETATM   14  C   UNL     1       4.491  28.501  54.714  1.00  0.00     0.419 C 
HETATM   15  F   UNL     1       4.066  27.549  53.862  1.00  0.00    -0.168 F 
HETATM   16  F   UNL     1       3.802  28.386  55.865  1.00  0.00    -0.168 F 
HETATM   17  F   UNL     1       4.211  29.705  54.169  1.00  0.00    -0.168 F 
ENDBRANCH  11  14
BRANCH  11  18
HETATM   18  O   UNL     1       6.812  28.713  53.832  1.00  0.00    -0.379 OA
HETATM   19  H   UNL     1       6.764  29.681  53.685  1.00  0.00     0.211 HD
ENDBRANCH  11  18
ENDBRANCH   7   8
ENDBRANCH   6   7
BRANCH   1  20
HETATM   20  C   UNL     1       8.121  31.885  59.865  1.00  0.00    -0.003 A 
HETATM   21  C   UNL     1       8.504  32.117  61.190  1.00  0.00     0.037 A 
HETATM   22  C   UNL     1       7.582  32.630  62.105  1.00  0.00     0.035 A 
HETATM   23  C   UNL     1       6.283  32.935  61.710  1.00  0.00     0.024 A 
HETATM   24 CL   UNL     1       8.067  32.867  63.738  1.00  0.00    -0.084 Cl
HETATM   25  C   UNL     1       5.900  32.733  60.386  1.00  0.00     0.003 A 
HETATM   26  C   UNL     1       6.815  32.211  59.468  1.00  0.00     0.014 A 
ENDBRANCH   1  20
TORSDOF 5
ENDMDL
MODEL 9
REMARK VINA RESULT:      -7.6      4.480      5.858
REMARK  5 active torsions:
REMARK  status: ('A' for Active; 'I' for Inactive)
REMARK    1  A    between atoms: C_6  and  C_7 
REMARK    2  A    between atoms: C_12  and  C_13 
REMARK    3  A    between atoms: C_13  and  N_14 
REMARK    4  A    between atoms: C_17  and  C_19 
REMARK    5  A    between atoms: C_17  and  O_18 
ROOT
HETATM    1  C   UNL     1       7.018  25.312  55.023  1.00  0.00     0.096 A 
HETATM    2  N   UNL     1       7.693  25.897  56.019  1.00  0.00    -0.174 NA
HETATM    3  N   UNL     1       7.114  27.088  56.188  1.00  0.00    -0.288 N 
HETATM    4  H   UNL     1       7.470  27.697  56.921  1.00  0.00     0.188 HD
HETATM    5  C   UNL     1       6.082  27.307  55.324  1.00  0.00     0.120 A 
HETATM    6  C   UNL     1       5.982  26.174  54.535  1.00  0.00     0.016 A 
ENDROOT
BRANCH   6   7
HETATM    7  C   UNL     1       4.978  25.892  53.481  1.00  0.00     0.277 C 
BRANCH   7   8
HETATM    8  N   UNL     1       5.208  26.684  52.222  1.00  0.00    -0.064 N 
HETATM    9  H   UNL     1       6.164  27.071  52.260  1.00  0.00     0.280 HD
HETATM   10  C   UNL     1       4.272  27.859  52.011  1.00  0.00     0.282 C 
HETATM   11  C   UNL     1       4.484  28.216  50.539  1.00  0.00     0.180 C 
HETATM   12  C   UNL     1       4.965  26.926  49.861  1.00  0.00     0.076 C 
HETATM   13  C   UNL     1       5.063  25.884  50.962  1.00  0.00     0.238 C 
BRANCH  11  14
HETATM   14  C   UNL     1       3.166  28.743  49.972  1.00  0.00     0.419 C 
HETATM   15  F   UNL     1       2.619  27.856  49.120  1.00  0.00    -0.168 F 
HETATM   16  F   UNL     1       2.287  28.986  50.962  1.00  0.00    -0.168 F 
HETATM   17  F   UNL     1       3.377  29.894  49.298  1.00  0.00    -0.168 F 
ENDBRANCH  11  14
BRANCH  11  18
HETATM   18  O   UNL     1       5.574  29.159  50.464  1.00  0.00    -0.379 OA
HETATM   19  H   UNL     1       5.241  29.995  50.074  1.00  0.00     0.211 HD
ENDBRANCH  11  18
ENDBRANCH   7   8
ENDBRANCH   6   7
BRANCH   1  20
HETATM   20  C   UNL     1       7.364  23.955  54.604  1.00  0.00    -0.003 A 
HETATM   21  C   UNL     1       7.369  22.894  55.514  1.00  0.00     0.037 A 
HETATM   22  C   UNL     1       7.734  21.614  55.093  1.00  0.00     0.035 A 
HETATM   23  C   UNL     1       8.075  21.371  53.766  1.00  0.00     0.024 A 
HETATM   24 CL   UNL     1       7.773  20.334  56.242  1.00  0.00    -0.084 Cl
HETATM   25  C   UNL     1       8.046  22.417  52.846  1.00  0.00     0.003 A 
HETATM   26  C   UNL     1       7.692  23.702  53.263  1.00  0.00     0.014 A 
ENDBRANCH   1  20
TORSDOF 5
ENDMDL
MODEL 10
REMARK VINA RESULT:      -7.5      4.208      5.405
REMARK  5 active torsions:
REMARK  status: ('A' for Active; 'I' for Inactive)
REMARK    1  A    between atoms: C_6  and  C_7 
REMARK    2  A    between atoms: C_12  and  C_13 
REMARK    3  A    between atoms: C_13  and  N_14 
REMARK    4  A    between atoms: C_17  and  C_19 
REMARK    5  A    between atoms: C_17  and  O_18 
ROOT
HETATM    1  C   UNL     1       6.148  26.834  56.455  1.00  0.00     0.096 A 
HETATM    2  N   UNL     1       5.042  26.906  57.205  1.00  0.00    -0.174 NA
HETATM    3  N   UNL     1       4.445  28.046  56.849  1.00  0.00    -0.288 N 
HETATM    4  H   UNL     1       3.563  28.288  57.294  1.00  0.00     0.188 HD
HETATM    5  C   UNL     1       5.133  28.731  55.890  1.00  0.00     0.120 A 
HETATM    6  C   UNL     1       6.260  27.981  55.603  1.00  0.00     0.016 A 
ENDROOT
BRANCH   6   7
HETATM    7  C   UNL     1       7.300  28.267  54.586  1.00  0.00     0.277 C 
BRANCH   7   8
HETATM    8  N   UNL     1       7.127  27.466  53.324  1.00  0.00    -0.064 N 
HETATM    9  H   UNL     1       7.323  28.088  52.524  1.00  0.00     0.280 HD
HETATM   10  C   UNL     1       5.741  26.894  53.100  1.00  0.00     0.282 C 
HETATM   11  C   UNL     1       5.962  25.860  51.994  1.00  0.00     0.180 C 
HETATM   12  C   UNL     1       7.433  25.436  52.106  1.00  0.00     0.076 C 
HETATM   13  C   UNL     1       8.025  26.268  53.233  1.00  0.00     0.238 C 
BRANCH  11  14
HETATM   14  C   UNL     1       4.982  24.707  52.204  1.00  0.00     0.419 C 
HETATM   15  F   UNL     1       5.630  23.581  52.561  1.00  0.00    -0.168 F 
HETATM   16  F   UNL     1       4.090  25.011  53.166  1.00  0.00    -0.168 F 
HETATM   17  F   UNL     1       4.307  24.456  51.062  1.00  0.00    -0.168 F 
ENDBRANCH  11  14
BRANCH  11  18
HETATM   18  O   UNL     1       5.816  26.530  50.724  1.00  0.00    -0.379 OA
HETATM   19  H   UNL     1       5.022  26.176  50.271  1.00  0.00     0.211 HD
ENDBRANCH  11  18
ENDBRANCH   7   8
ENDBRANCH   6   7
BRANCH   1  20
HETATM   20  C   UNL     1       7.026  25.670  56.557  1.00  0.00    -0.003 A 
HETATM   21  C   UNL     1       6.830  24.541  55.755  1.00  0.00     0.037 A 
HETATM   22  C   UNL     1       7.665  23.431  55.896  1.00  0.00     0.035 A 
HETATM   23  C   UNL     1       8.711  23.438  56.815  1.00  0.00     0.024 A 
HETATM   24 CL   UNL     1       7.378  22.040  54.926  1.00  0.00    -0.084 Cl
HETATM   25  C   UNL     1       8.930  24.569  57.599  1.00  0.00     0.003 A 
HETATM   26  C   UNL     1       8.092  25.679  57.470  1.00  0.00     0.014 A 
ENDBRANCH   1  20
TORSDOF 5
ENDMDL
