MODEL 1
REMARK VINA RESULT:      -7.6      0.000      0.000
REMARK  10 active torsions:
REMARK  status: ('A' for Active; 'I' for Inactive)
REMARK    1  A    between atoms: C_3  and  C_4 
REMARK    2  A    between atoms: C_4  and  C_5 
REMARK       I    between atoms: C_5  and  N_6 
REMARK    3  A    between atoms: N_6  and  C_7 
REMARK    4  A    between atoms: C_7  and  C_8 
REMARK    5  A    between atoms: C_8  and  O_9 
REMARK    6  A    between atoms: C_15  and  N_16 
REMARK    7  A    between atoms: N_16  and  C_17 
REMARK    8  A    between atoms: C_26  and  C_27 
REMARK    9  A    between atoms: C_27  and  O_28 
REMARK   10  A    between atoms: C_30  and  O_31 
ROOT
HETATM    1  C   UNL     1       6.092  29.064  49.187  1.00  0.00     0.016 C 
HETATM    2  C   UNL     1       4.750  28.863  49.965  1.00  0.00    -0.030 C 
HETATM    3  C   UNL     1       4.445  27.302  50.127  1.00  0.00     0.056 C 
HETATM    4  C   UNL     1       5.231  26.724  51.285  1.00  0.00     0.055 C 
HETATM    5  C   UNL     1       5.961  27.478  52.179  1.00  0.00     0.011 C 
HETATM    6  S   UNL     1       6.725  26.477  53.318  1.00  0.00    -0.060 SA
HETATM    7  C   UNL     1       5.813  25.136  52.719  1.00  0.00     0.150 C 
HETATM    8  N   UNL     1       5.141  25.382  51.611  1.00  0.00    -0.232 NA
HETATM    9  C   UNL     1       6.060  28.960  52.197  1.00  0.00     0.054 C 
HETATM   10  C   UNL     1       4.900  29.584  51.373  1.00  0.00     0.012 C 
HETATM   11  C   UNL     1       3.543  29.828  52.178  1.00  0.00     0.008 C 
HETATM   12  C   UNL     1       3.744  31.141  52.992  1.00  0.00     0.020 C 
HETATM   13  C   UNL     1       2.350  30.071  51.202  1.00  0.00     0.128 C 
HETATM   14  C   UNL     1       2.808  30.588  49.847  1.00  0.00     0.033 C 
HETATM   15  C   UNL     1       3.638  29.541  49.105  1.00  0.00     0.013 C 
ENDROOT
BRANCH   3  16
HETATM   16  C   UNL     1       4.702  26.522  48.821  1.00  0.00     0.114 C 
BRANCH  16  17
HETATM   17  C   UNL     1       3.470  25.997  48.111  1.00  0.00     0.218 C 
HETATM   18  N   UNL     1       2.853  26.873  47.259  1.00  0.00    -0.359 N 
HETATM   19  H   UNL     1       3.379  27.683  46.922  1.00  0.00     0.162 HD
HETATM   20  O   UNL     1       3.008  24.887  48.375  1.00  0.00    -0.274 OA
BRANCH  18  21
HETATM   21  C   UNL     1       1.551  26.589  46.687  1.00  0.00     0.148 C 
BRANCH  21  22
HETATM   22  C   UNL     1       0.441  27.532  47.166  1.00  0.00     0.186 C 
BRANCH  22  23
HETATM   23  O   UNL     1      -0.770  27.417  46.412  1.00  0.00    -0.394 OA
HETATM   24  C   UNL     1      -0.626  27.827  45.057  1.00  0.00     0.201 C 
ENDBRANCH  22  23
ENDBRANCH  21  22
ENDBRANCH  18  21
ENDBRANCH  16  17
ENDBRANCH   3  16
BRANCH  11  25
HETATM   25  C   UNL     1       3.137  28.719  53.186  1.00  0.00     0.176 C 
BRANCH  25  26
HETATM   26  O   UNL     1       3.669  28.944  54.488  1.00  0.00    -0.400 OA
HETATM   27  H   UNL     1       3.302  28.244  55.058  1.00  0.00     0.209 HD
ENDBRANCH  25  26
ENDBRANCH  11  25
BRANCH   7  28
HETATM   28  N   UNL     1       5.825  23.966  53.410  1.00  0.00    -0.238 NA
HETATM   29  H   UNL     1       5.309  23.230  52.938  1.00  0.00     0.136 HD
BRANCH  28  30
HETATM   30  C   UNL     1       7.032  23.407  53.918  1.00  0.00     0.014 A 
HETATM   31  C   UNL     1       7.459  23.561  55.244  1.00  0.00     0.024 A 
HETATM   32  C   UNL     1       8.666  23.002  55.680  1.00  0.00     0.002 A 
HETATM   33  C   UNL     1       9.444  22.246  54.809  1.00  0.00     0.000 A 
HETATM   34  C   UNL     1       9.010  22.037  53.504  1.00  0.00     0.002 A 
HETATM   35  C   UNL     1       7.808  22.603  53.067  1.00  0.00     0.024 A 
ENDBRANCH  28  30
ENDBRANCH   7  28
BRANCH  13  36
HETATM   36  O   UNL     1       1.604  28.871  50.997  1.00  0.00    -0.395 OA
HETATM   37  H   UNL     1       2.198  28.116  51.159  1.00  0.00     0.210 HD
ENDBRANCH  13  36
TORSDOF 10
ENDMDL
MODEL 2
REMARK VINA RESULT:      -7.1      3.781      9.099
REMARK  10 active torsions:
REMARK  status: ('A' for Active; 'I' for Inactive)
REMARK    1  A    between atoms: C_3  and  C_4 
REMARK    2  A    between atoms: C_4  and  C_5 
REMARK       I    between atoms: C_5  and  N_6 
REMARK    3  A    between atoms: N_6  and  C_7 
REMARK    4  A    between atoms: C_7  and  C_8 
REMARK    5  A    between atoms: C_8  and  O_9 
REMARK    6  A    between atoms: C_15  and  N_16 
REMARK    7  A    between atoms: N_16  and  C_17 
REMARK    8  A    between atoms: C_26  and  C_27 
REMARK    9  A    between atoms: C_27  and  O_28 
REMARK   10  A    between atoms: C_30  and  O_31 
ROOT
HETATM    1  C   UNL     1       8.243  28.394  54.153  1.00  0.00     0.016 C 
HETATM    2  C   UNL     1       7.092  27.422  54.574  1.00  0.00    -0.030 C 
HETATM    3  C   UNL     1       5.715  28.227  54.684  1.00  0.00     0.056 C 
HETATM    4  C   UNL     1       5.095  28.407  53.315  1.00  0.00     0.055 C 
HETATM    5  C   UNL     1       5.561  27.804  52.167  1.00  0.00     0.011 C 
HETATM    6  S   UNL     1       4.626  28.268  50.827  1.00  0.00    -0.060 SA
HETATM    7  C   UNL     1       3.497  29.014  51.902  1.00  0.00     0.150 C 
HETATM    8  N   UNL     1       3.901  29.089  53.154  1.00  0.00    -0.232 NA
HETATM    9  C   UNL     1       6.697  26.850  52.079  1.00  0.00     0.054 C 
HETATM   10  C   UNL     1       7.016  26.268  53.484  1.00  0.00     0.012 C 
HETATM   11  C   UNL     1       6.174  24.976  53.896  1.00  0.00     0.008 C 
HETATM   12  C   UNL     1       6.848  23.766  53.182  1.00  0.00     0.020 C 
HETATM   13  C   UNL     1       6.269  24.713  55.431  1.00  0.00     0.128 C 
HETATM   14  C   UNL     1       7.521  25.322  56.046  1.00  0.00     0.033 C 
HETATM   15  C   UNL     1       7.491  26.847  55.970  1.00  0.00     0.013 C 
ENDROOT
BRANCH   3  16
HETATM   16  C   UNL     1       5.888  29.576  55.411  1.00  0.00     0.114 C 
BRANCH  16  17
HETATM   17  C   UNL     1       6.162  29.494  56.900  1.00  0.00     0.218 C 
HETATM   18  N   UNL     1       7.347  30.035  57.319  1.00  0.00    -0.359 N 
HETATM   19  H   UNL     1       7.829  30.697  56.707  1.00  0.00     0.162 HD
HETATM   20  O   UNL     1       5.403  28.885  57.653  1.00  0.00    -0.274 OA
BRANCH  18  21
HETATM   21  C   UNL     1       7.840  29.834  58.668  1.00  0.00     0.148 C 
BRANCH  21  22
HETATM   22  C   UNL     1       9.229  30.434  58.920  1.00  0.00     0.186 C 
BRANCH  22  23
HETATM   23  O   UNL     1       9.899  30.844  57.724  1.00  0.00    -0.394 OA
HETATM   24  C   UNL     1      10.931  29.948  57.326  1.00  0.00     0.201 C 
ENDBRANCH  22  23
ENDBRANCH  21  22
ENDBRANCH  18  21
ENDBRANCH  16  17
ENDBRANCH   3  16
BRANCH  11  25
HETATM   25  C   UNL     1       4.676  24.976  53.488  1.00  0.00     0.176 C 
BRANCH  25  26
HETATM   26  O   UNL     1       4.468  24.454  52.179  1.00  0.00    -0.400 OA
HETATM   27  H   UNL     1       4.800  23.538  52.194  1.00  0.00     0.209 HD
ENDBRANCH  25  26
ENDBRANCH  11  25
BRANCH   7  28
HETATM   28  N   UNL     1       2.302  29.440  51.414  1.00  0.00    -0.238 NA
HETATM   29  H   UNL     1       2.007  30.322  51.821  1.00  0.00     0.136 HD
BRANCH  28  30
HETATM   30  C   UNL     1       2.035  29.485  50.016  1.00  0.00     0.014 A 
HETATM   31  C   UNL     1       1.481  28.417  49.298  1.00  0.00     0.024 A 
HETATM   32  C   UNL     1       1.258  28.515  47.920  1.00  0.00     0.002 A 
HETATM   33  C   UNL     1       1.547  29.697  47.246  1.00  0.00     0.000 A 
HETATM   34  C   UNL     1       2.047  30.787  47.951  1.00  0.00     0.002 A 
HETATM   35  C   UNL     1       2.276  30.685  49.327  1.00  0.00     0.024 A 
ENDBRANCH  28  30
ENDBRANCH   7  28
BRANCH  13  36
HETATM   36  O   UNL     1       5.131  25.242  56.112  1.00  0.00    -0.395 OA
HETATM   37  H   UNL     1       5.009  26.164  55.823  1.00  0.00     0.210 HD
ENDBRANCH  13  36
TORSDOF 10
ENDMDL
MODEL 3
REMARK VINA RESULT:      -7.1      9.750     13.508
REMARK  10 active torsions:
REMARK  status: ('A' for Active; 'I' for Inactive)
REMARK    1  A    between atoms: C_3  and  C_4 
REMARK    2  A    between atoms: C_4  and  C_5 
REMARK       I    between atoms: C_5  and  N_6 
REMARK    3  A    between atoms: N_6  and  C_7 
REMARK    4  A    between atoms: C_7  and  C_8 
REMARK    5  A    between atoms: C_8  and  O_9 
REMARK    6  A    between atoms: C_15  and  N_16 
REMARK    7  A    between atoms: N_16  and  C_17 
REMARK    8  A    between atoms: C_26  and  C_27 
REMARK    9  A    between atoms: C_27  and  O_28 
REMARK   10  A    between atoms: C_30  and  O_31 
ROOT
HETATM    1  C   UNL     1       2.963  34.109  63.795  1.00  0.00     0.016 C 
HETATM    2  C   UNL     1       4.066  35.084  63.268  1.00  0.00    -0.030 C 
HETATM    3  C   UNL     1       5.187  34.261  62.479  1.00  0.00     0.056 C 
HETATM    4  C   UNL     1       4.734  33.970  61.064  1.00  0.00     0.055 C 
HETATM    5  C   UNL     1       3.599  34.499  60.489  1.00  0.00     0.011 C 
HETATM    6  S   UNL     1       3.408  33.922  58.903  1.00  0.00    -0.060 SA
HETATM    7  C   UNL     1       4.991  33.231  58.989  1.00  0.00     0.150 C 
HETATM    8  N   UNL     1       5.534  33.254  60.190  1.00  0.00    -0.232 NA
HETATM    9  C   UNL     1       2.667  35.468  61.123  1.00  0.00     0.054 C 
HETATM   10  C   UNL     1       3.354  36.155  62.335  1.00  0.00     0.012 C 
HETATM   11  C   UNL     1       4.212  37.456  61.989  1.00  0.00     0.008 C 
HETATM   12  C   UNL     1       3.194  38.625  61.832  1.00  0.00     0.020 C 
HETATM   13  C   UNL     1       5.162  37.829  63.168  1.00  0.00     0.128 C 
HETATM   14  C   UNL     1       4.667  37.293  64.503  1.00  0.00     0.033 C 
HETATM   15  C   UNL     1       4.688  35.765  64.528  1.00  0.00     0.013 C 
ENDROOT
BRANCH   3  16
HETATM   16  C   UNL     1       5.590  32.971  63.222  1.00  0.00     0.114 C 
BRANCH  16  17
HETATM   17  C   UNL     1       7.055  32.591  63.139  1.00  0.00     0.218 C 
HETATM   18  N   UNL     1       7.398  31.752  62.114  1.00  0.00    -0.359 N 
HETATM   19  H   UNL     1       6.761  31.661  61.320  1.00  0.00     0.162 HD
HETATM   20  O   UNL     1       7.854  32.942  64.008  1.00  0.00    -0.274 OA
BRANCH  18  21
HETATM   21  C   UNL     1       8.707  31.132  62.043  1.00  0.00     0.148 C 
BRANCH  21  22
HETATM   22  C   UNL     1       9.753  31.968  61.296  1.00  0.00     0.186 C 
BRANCH  22  23
HETATM   23  O   UNL     1       9.293  32.467  60.036  1.00  0.00    -0.394 OA
HETATM   24  C   UNL     1       9.719  31.677  58.933  1.00  0.00     0.201 C 
ENDBRANCH  22  23
ENDBRANCH  21  22
ENDBRANCH  18  21
ENDBRANCH  16  17
ENDBRANCH   3  16
BRANCH  11  25
HETATM   25  C   UNL     1       5.048  37.396  60.681  1.00  0.00     0.176 C 
BRANCH  25  26
HETATM   26  O   UNL     1       5.685  38.635  60.385  1.00  0.00    -0.400 OA
HETATM   27  H   UNL     1       5.231  39.310  60.921  1.00  0.00     0.209 HD
ENDBRANCH  25  26
ENDBRANCH  11  25
BRANCH   7  28
HETATM   28  N   UNL     1       5.563  32.747  57.855  1.00  0.00    -0.238 NA
HETATM   29  H   UNL     1       6.543  32.999  57.776  1.00  0.00     0.136 HD
BRANCH  28  30
HETATM   30  C   UNL     1       5.421  31.385  57.466  1.00  0.00     0.014 A 
HETATM   31  C   UNL     1       4.376  30.913  56.662  1.00  0.00     0.024 A 
HETATM   32  C   UNL     1       4.281  29.557  56.327  1.00  0.00     0.002 A 
HETATM   33  C   UNL     1       5.252  28.659  56.756  1.00  0.00     0.000 A 
HETATM   34  C   UNL     1       6.328  29.118  57.511  1.00  0.00     0.002 A 
HETATM   35  C   UNL     1       6.417  30.471  57.851  1.00  0.00     0.024 A 
ENDBRANCH  28  30
ENDBRANCH   7  28
BRANCH  13  36
HETATM   36  O   UNL     1       6.480  37.327  62.942  1.00  0.00    -0.395 OA
HETATM   37  H   UNL     1       6.698  37.467  62.003  1.00  0.00     0.210 HD
ENDBRANCH  13  36
TORSDOF 10
ENDMDL
MODEL 4
REMARK VINA RESULT:      -7.0      3.009      5.917
REMARK  10 active torsions:
REMARK  status: ('A' for Active; 'I' for Inactive)
REMARK    1  A    between atoms: C_3  and  C_4 
REMARK    2  A    between atoms: C_4  and  C_5 
REMARK       I    between atoms: C_5  and  N_6 
REMARK    3  A    between atoms: N_6  and  C_7 
REMARK    4  A    between atoms: C_7  and  C_8 
REMARK    5  A    between atoms: C_8  and  O_9 
REMARK    6  A    between atoms: C_15  and  N_16 
REMARK    7  A    between atoms: N_16  and  C_17 
REMARK    8  A    between atoms: C_26  and  C_27 
REMARK    9  A    between atoms: C_27  and  O_28 
REMARK   10  A    between atoms: C_30  and  O_31 
ROOT
HETATM    1  C   UNL     1       5.803  28.823  48.640  1.00  0.00     0.016 C 
HETATM    2  C   UNL     1       4.331  28.415  48.976  1.00  0.00    -0.030 C 
HETATM    3  C   UNL     1       4.273  27.732  50.421  1.00  0.00     0.056 C 
HETATM    4  C   UNL     1       4.254  28.788  51.506  1.00  0.00     0.055 C 
HETATM    5  C   UNL     1       4.120  30.140  51.271  1.00  0.00     0.011 C 
HETATM    6  S   UNL     1       4.170  31.007  52.730  1.00  0.00    -0.060 SA
HETATM    7  C   UNL     1       4.085  29.513  53.595  1.00  0.00     0.150 C 
HETATM    8  N   UNL     1       4.219  28.437  52.845  1.00  0.00    -0.232 NA
HETATM    9  C   UNL     1       3.923  30.782  49.945  1.00  0.00     0.054 C 
HETATM   10  C   UNL     1       3.441  29.729  48.908  1.00  0.00     0.012 C 
HETATM   11  C   UNL     1       1.863  29.499  48.850  1.00  0.00     0.008 C 
HETATM   12  C   UNL     1       1.277  30.675  48.011  1.00  0.00     0.020 C 
HETATM   13  C   UNL     1       1.518  28.179  48.093  1.00  0.00     0.128 C 
HETATM   14  C   UNL     1       2.620  27.760  47.131  1.00  0.00     0.033 C 
HETATM   15  C   UNL     1       3.899  27.390  47.880  1.00  0.00     0.013 C 
ENDROOT
BRANCH   3  16
HETATM   16  C   UNL     1       5.420  26.723  50.632  1.00  0.00     0.114 C 
BRANCH  16  17
HETATM   17  C   UNL     1       5.211  25.708  51.738  1.00  0.00     0.218 C 
HETATM   18  N   UNL     1       5.890  25.946  52.903  1.00  0.00    -0.359 N 
HETATM   19  H   UNL     1       6.245  26.888  53.080  1.00  0.00     0.162 HD
HETATM   20  O   UNL     1       4.551  24.687  51.549  1.00  0.00    -0.274 OA
BRANCH  18  21
HETATM   21  C   UNL     1       5.963  24.954  53.958  1.00  0.00     0.148 C 
BRANCH  21  22
HETATM   22  C   UNL     1       7.384  24.692  54.471  1.00  0.00     0.186 C 
BRANCH  22  23
HETATM   23  O   UNL     1       7.793  23.326  54.346  1.00  0.00    -0.394 OA
HETATM   24  C   UNL     1       7.772  22.857  53.004  1.00  0.00     0.201 C 
ENDBRANCH  22  23
ENDBRANCH  21  22
ENDBRANCH  18  21
ENDBRANCH  16  17
ENDBRANCH   3  16
BRANCH  11  25
HETATM   25  C   UNL     1       1.121  29.493  50.214  1.00  0.00     0.176 C 
BRANCH  25  26
HETATM   26  O   UNL     1       0.447  30.720  50.473  1.00  0.00    -0.400 OA
HETATM   27  H   UNL     1      -0.492  30.494  50.608  1.00  0.00     0.209 HD
ENDBRANCH  25  26
ENDBRANCH  11  25
BRANCH   7  28
HETATM   28  N   UNL     1       3.871  29.537  54.937  1.00  0.00    -0.238 NA
HETATM   29  H   UNL     1       3.043  29.015  55.209  1.00  0.00     0.136 HD
BRANCH  28  30
HETATM   30  C   UNL     1       4.907  29.244  55.868  1.00  0.00     0.014 A 
HETATM   31  C   UNL     1       5.260  27.943  56.250  1.00  0.00     0.024 A 
HETATM   32  C   UNL     1       6.278  27.719  57.184  1.00  0.00     0.002 A 
HETATM   33  C   UNL     1       6.986  28.790  57.720  1.00  0.00     0.000 A 
HETATM   34  C   UNL     1       6.687  30.086  57.312  1.00  0.00     0.002 A 
HETATM   35  C   UNL     1       5.664  30.309  56.384  1.00  0.00     0.024 A 
ENDBRANCH  28  30
ENDBRANCH   7  28
BRANCH  13  36
HETATM   36  O   UNL     1       1.289  27.108  49.010  1.00  0.00    -0.395 OA
HETATM   37  H   UNL     1       1.939  26.408  48.823  1.00  0.00     0.210 HD
ENDBRANCH  13  36
TORSDOF 10
ENDMDL
MODEL 5
REMARK VINA RESULT:      -7.0      1.958      2.877
REMARK  10 active torsions:
REMARK  status: ('A' for Active; 'I' for Inactive)
REMARK    1  A    between atoms: C_3  and  C_4 
REMARK    2  A    between atoms: C_4  and  C_5 
REMARK       I    between atoms: C_5  and  N_6 
REMARK    3  A    between atoms: N_6  and  C_7 
REMARK    4  A    between atoms: C_7  and  C_8 
REMARK    5  A    between atoms: C_8  and  O_9 
REMARK    6  A    between atoms: C_15  and  N_16 
REMARK    7  A    between atoms: N_16  and  C_17 
REMARK    8  A    between atoms: C_26  and  C_27 
REMARK    9  A    between atoms: C_27  and  O_28 
REMARK   10  A    between atoms: C_30  and  O_31 
ROOT
HETATM    1  C   UNL     1       5.055  30.486  47.283  1.00  0.00     0.016 C 
HETATM    2  C   UNL     1       3.727  30.543  48.106  1.00  0.00    -0.030 C 
HETATM    3  C   UNL     1       3.335  29.076  48.608  1.00  0.00     0.056 C 
HETATM    4  C   UNL     1       4.119  28.714  49.851  1.00  0.00     0.055 C 
HETATM    5  C   UNL     1       4.916  29.596  50.549  1.00  0.00     0.011 C 
HETATM    6  S   UNL     1       5.653  28.818  51.868  1.00  0.00    -0.060 SA
HETATM    7  C   UNL     1       4.648  27.440  51.588  1.00  0.00     0.150 C 
HETATM    8  N   UNL     1       3.961  27.483  50.463  1.00  0.00    -0.232 NA
HETATM    9  C   UNL     1       5.103  31.038  50.243  1.00  0.00     0.054 C 
HETATM   10  C   UNL     1       3.958  31.541  49.321  1.00  0.00     0.012 C 
HETATM   11  C   UNL     1       2.641  32.037  50.074  1.00  0.00     0.008 C 
HETATM   12  C   UNL     1       2.941  33.480  50.580  1.00  0.00     0.020 C 
HETATM   13  C   UNL     1       1.437  32.139  49.087  1.00  0.00     0.128 C 
HETATM   14  C   UNL     1       1.886  32.321  47.644  1.00  0.00     0.033 C 
HETATM   15  C   UNL     1       2.631  31.089  47.136  1.00  0.00     0.013 C 
ENDROOT
BRANCH   3  16
HETATM   16  C   UNL     1       3.509  28.018  47.499  1.00  0.00     0.114 C 
BRANCH  16  17
HETATM   17  C   UNL     1       2.273  27.211  47.156  1.00  0.00     0.218 C 
HETATM   18  N   UNL     1       1.383  27.812  46.309  1.00  0.00    -0.359 N 
HETATM   19  H   UNL     1       1.702  28.598  45.738  1.00  0.00     0.162 HD
HETATM   20  O   UNL     1       2.052  26.127  47.696  1.00  0.00    -0.274 OA
BRANCH  18  21
HETATM   21  C   UNL     1       0.064  27.258  46.072  1.00  0.00     0.148 C 
BRANCH  21  22
HETATM   22  C   UNL     1      -0.644  27.836  44.840  1.00  0.00     0.186 C 
BRANCH  22  23
HETATM   23  O   UNL     1      -1.014  26.845  43.877  1.00  0.00    -0.394 OA
HETATM   24  C   UNL     1      -1.089  27.354  42.551  1.00  0.00     0.201 C 
ENDBRANCH  22  23
ENDBRANCH  21  22
ENDBRANCH  18  21
ENDBRANCH  16  17
ENDBRANCH   3  16
BRANCH  11  25
HETATM   25  C   UNL     1       2.199  31.201  51.305  1.00  0.00     0.176 C 
BRANCH  25  26
HETATM   26  O   UNL     1       2.324  31.922  52.527  1.00  0.00    -0.400 OA
HETATM   27  H   UNL     1       3.247  32.230  52.570  1.00  0.00     0.209 HD
ENDBRANCH  25  26
ENDBRANCH  11  25
BRANCH   7  28
HETATM   28  N   UNL     1       4.612  26.448  52.517  1.00  0.00    -0.238 NA
HETATM   29  H   UNL     1       3.763  25.894  52.461  1.00  0.00     0.136 HD
BRANCH  28  30
HETATM   30  C   UNL     1       5.709  25.563  52.712  1.00  0.00     0.014 A 
HETATM   31  C   UNL     1       6.779  25.444  51.815  1.00  0.00     0.024 A 
HETATM   32  C   UNL     1       7.821  24.542  52.054  1.00  0.00     0.002 A 
HETATM   33  C   UNL     1       7.832  23.773  53.213  1.00  0.00     0.000 A 
HETATM   34  C   UNL     1       6.806  23.916  54.142  1.00  0.00     0.002 A 
HETATM   35  C   UNL     1       5.761  24.813  53.899  1.00  0.00     0.024 A 
ENDBRANCH  28  30
ENDBRANCH   7  28
BRANCH  13  36
HETATM   36  O   UNL     1       0.617  30.972  49.159  1.00  0.00    -0.395 OA
HETATM   37  H   UNL     1      -0.282  31.218  48.876  1.00  0.00     0.210 HD
ENDBRANCH  13  36
TORSDOF 10
ENDMDL
MODEL 6
REMARK VINA RESULT:      -7.0      3.748      5.792
REMARK  10 active torsions:
REMARK  status: ('A' for Active; 'I' for Inactive)
REMARK    1  A    between atoms: C_3  and  C_4 
REMARK    2  A    between atoms: C_4  and  C_5 
REMARK       I    between atoms: C_5  and  N_6 
REMARK    3  A    between atoms: N_6  and  C_7 
REMARK    4  A    between atoms: C_7  and  C_8 
REMARK    5  A    between atoms: C_8  and  O_9 
REMARK    6  A    between atoms: C_15  and  N_16 
REMARK    7  A    between atoms: N_16  and  C_17 
REMARK    8  A    between atoms: C_26  and  C_27 
REMARK    9  A    between atoms: C_27  and  O_28 
REMARK   10  A    between atoms: C_30  and  O_31 
ROOT
HETATM    1  C   UNL     1       2.376  31.534  50.683  1.00  0.00     0.016 C 
HETATM    2  C   UNL     1       3.243  30.679  49.701  1.00  0.00    -0.030 C 
HETATM    3  C   UNL     1       4.747  30.596  50.237  1.00  0.00     0.056 C 
HETATM    4  C   UNL     1       4.870  29.533  51.309  1.00  0.00     0.055 C 
HETATM    5  C   UNL     1       3.868  28.646  51.640  1.00  0.00     0.011 C 
HETATM    6  S   UNL     1       4.367  27.627  52.904  1.00  0.00    -0.060 SA
HETATM    7  C   UNL     1       5.973  28.245  52.738  1.00  0.00     0.150 C 
HETATM    8  N   UNL     1       6.079  29.286  51.936  1.00  0.00    -0.232 NA
HETATM    9  C   UNL     1       2.540  28.541  50.982  1.00  0.00     0.054 C 
HETATM   10  C   UNL     1       2.573  29.243  49.596  1.00  0.00     0.012 C 
HETATM   11  C   UNL     1       3.064  28.333  48.380  1.00  0.00     0.008 C 
HETATM   12  C   UNL     1       1.846  27.454  47.968  1.00  0.00     0.020 C 
HETATM   13  C   UNL     1       3.439  29.207  47.144  1.00  0.00     0.128 C 
HETATM   14  C   UNL     1       2.735  30.556  47.154  1.00  0.00     0.033 C 
HETATM   15  C   UNL     1       3.204  31.417  48.325  1.00  0.00     0.013 C 
ENDROOT
BRANCH   3  16
HETATM   16  C   UNL     1       5.264  31.962  50.731  1.00  0.00     0.114 C 
BRANCH  16  17
HETATM   17  C   UNL     1       6.024  32.788  49.713  1.00  0.00     0.218 C 
HETATM   18  N   UNL     1       5.829  34.142  49.777  1.00  0.00    -0.359 N 
HETATM   19  H   UNL     1       5.448  34.543  50.636  1.00  0.00     0.162 HD
HETATM   20  O   UNL     1       6.689  32.252  48.827  1.00  0.00    -0.274 OA
BRANCH  18  21
HETATM   21  C   UNL     1       6.310  35.030  48.736  1.00  0.00     0.148 C 
BRANCH  21  22
HETATM   22  C   UNL     1       7.688  35.639  49.023  1.00  0.00     0.186 C 
BRANCH  22  23
HETATM   23  O   UNL     1       8.705  35.203  48.115  1.00  0.00    -0.394 OA
HETATM   24  C   UNL     1       8.190  34.801  46.851  1.00  0.00     0.201 C 
ENDBRANCH  22  23
ENDBRANCH  21  22
ENDBRANCH  18  21
ENDBRANCH  16  17
ENDBRANCH   3  16
BRANCH  11  25
HETATM   25  C   UNL     1       4.246  27.370  48.680  1.00  0.00     0.176 C 
BRANCH  25  26
HETATM   26  O   UNL     1       4.661  26.643  47.528  1.00  0.00    -0.400 OA
HETATM   27  H   UNL     1       5.552  26.968  47.306  1.00  0.00     0.209 HD
ENDBRANCH  25  26
ENDBRANCH  11  25
BRANCH   7  28
HETATM   28  N   UNL     1       6.989  27.631  53.399  1.00  0.00    -0.238 NA
HETATM   29  H   UNL     1       7.054  27.923  54.370  1.00  0.00     0.136 HD
BRANCH  28  30
HETATM   30  C   UNL     1       7.176  26.221  53.346  1.00  0.00     0.014 A 
HETATM   31  C   UNL     1       7.618  25.540  52.204  1.00  0.00     0.024 A 
HETATM   32  C   UNL     1       7.766  24.149  52.208  1.00  0.00     0.002 A 
HETATM   33  C   UNL     1       7.513  23.420  53.365  1.00  0.00     0.000 A 
HETATM   34  C   UNL     1       7.125  24.083  54.525  1.00  0.00     0.002 A 
HETATM   35  C   UNL     1       6.971  25.473  54.518  1.00  0.00     0.024 A 
ENDBRANCH  28  30
ENDBRANCH   7  28
BRANCH  13  36
HETATM   36  O   UNL     1       4.848  29.435  47.086  1.00  0.00    -0.395 OA
HETATM   37  H   UNL     1       5.094  29.565  46.153  1.00  0.00     0.210 HD
ENDBRANCH  13  36
TORSDOF 10
ENDMDL
MODEL 7
REMARK VINA RESULT:      -6.9      2.824      7.247
REMARK  10 active torsions:
REMARK  status: ('A' for Active; 'I' for Inactive)
REMARK    1  A    between atoms: C_3  and  C_4 
REMARK    2  A    between atoms: C_4  and  C_5 
REMARK       I    between atoms: C_5  and  N_6 
REMARK    3  A    between atoms: N_6  and  C_7 
REMARK    4  A    between atoms: C_7  and  C_8 
REMARK    5  A    between atoms: C_8  and  O_9 
REMARK    6  A    between atoms: C_15  and  N_16 
REMARK    7  A    between atoms: N_16  and  C_17 
REMARK    8  A    between atoms: C_26  and  C_27 
REMARK    9  A    between atoms: C_27  and  O_28 
REMARK   10  A    between atoms: C_30  and  O_31 
ROOT
HETATM    1  C   UNL     1       5.615  27.812  47.274  1.00  0.00     0.016 C 
HETATM    2  C   UNL     1       4.217  27.898  47.971  1.00  0.00    -0.030 C 
HETATM    3  C   UNL     1       4.406  28.165  49.536  1.00  0.00     0.056 C 
HETATM    4  C   UNL     1       4.653  29.636  49.797  1.00  0.00     0.055 C 
HETATM    5  C   UNL     1       4.547  30.622  48.839  1.00  0.00     0.011 C 
HETATM    6  S   UNL     1       4.925  32.140  49.501  1.00  0.00    -0.060 SA
HETATM    7  C   UNL     1       4.931  31.426  51.076  1.00  0.00     0.150 C 
HETATM    8  N   UNL     1       4.861  30.110  51.081  1.00  0.00    -0.232 NA
HETATM    9  C   UNL     1       4.129  30.428  47.427  1.00  0.00     0.054 C 
HETATM   10  C   UNL     1       3.401  29.064  47.267  1.00  0.00     0.012 C 
HETATM   11  C   UNL     1       1.832  29.089  47.557  1.00  0.00     0.008 C 
HETATM   12  C   UNL     1       1.156  29.662  46.276  1.00  0.00     0.020 C 
HETATM   13  C   UNL     1       1.278  27.644  47.760  1.00  0.00     0.128 C 
HETATM   14  C   UNL     1       2.148  26.592  47.090  1.00  0.00     0.033 C 
HETATM   15  C   UNL     1       3.528  26.516  47.742  1.00  0.00     0.013 C 
ENDROOT
BRANCH   3  16
HETATM   16  C   UNL     1       5.518  27.287  50.145  1.00  0.00     0.114 C 
BRANCH  16  17
HETATM   17  C   UNL     1       5.156  26.552  51.420  1.00  0.00     0.218 C 
HETATM   18  N   UNL     1       5.291  27.266  52.580  1.00  0.00    -0.359 N 
HETATM   19  H   UNL     1       5.335  28.286  52.526  1.00  0.00     0.162 HD
HETATM   20  O   UNL     1       4.860  25.357  51.404  1.00  0.00    -0.274 OA
BRANCH  18  21
HETATM   21  C   UNL     1       5.197  26.632  53.880  1.00  0.00     0.148 C 
BRANCH  21  22
HETATM   22  C   UNL     1       6.552  26.381  54.552  1.00  0.00     0.186 C 
BRANCH  22  23
HETATM   23  O   UNL     1       7.339  25.382  53.894  1.00  0.00    -0.394 OA
HETATM   24  C   UNL     1       6.856  24.061  54.106  1.00  0.00     0.201 C 
ENDBRANCH  22  23
ENDBRANCH  21  22
ENDBRANCH  18  21
ENDBRANCH  16  17
ENDBRANCH   3  16
BRANCH  11  25
HETATM   25  C   UNL     1       1.370  29.966  48.752  1.00  0.00     0.176 C 
BRANCH  25  26
HETATM   26  O   UNL     1       0.508  31.026  48.349  1.00  0.00    -0.400 OA
HETATM   27  H   UNL     1       0.794  31.815  48.845  1.00  0.00     0.209 HD
ENDBRANCH  25  26
ENDBRANCH  11  25
BRANCH   7  28
HETATM   28  N   UNL     1       4.984  32.234  52.168  1.00  0.00    -0.238 NA
HETATM   29  H   UNL     1       5.196  33.198  51.929  1.00  0.00     0.136 HD
BRANCH  28  30
HETATM   30  C   UNL     1       3.954  32.235  53.151  1.00  0.00     0.014 A 
HETATM   31  C   UNL     1       4.020  31.504  54.344  1.00  0.00     0.024 A 
HETATM   32  C   UNL     1       2.967  31.533  55.264  1.00  0.00     0.002 A 
HETATM   33  C   UNL     1       1.848  32.324  55.026  1.00  0.00     0.000 A 
HETATM   34  C   UNL     1       1.788  33.100  53.872  1.00  0.00     0.002 A 
HETATM   35  C   UNL     1       2.838  33.065  52.950  1.00  0.00     0.024 A 
ENDBRANCH  28  30
ENDBRANCH   7  28
BRANCH  13  36
HETATM   36  O   UNL     1       1.176  27.326  49.149  1.00  0.00    -0.395 OA
HETATM   37  H   UNL     1       0.600  27.990  49.568  1.00  0.00     0.210 HD
ENDBRANCH  13  36
TORSDOF 10
ENDMDL
MODEL 8
REMARK VINA RESULT:      -6.3     16.731     19.678
REMARK  10 active torsions:
REMARK  status: ('A' for Active; 'I' for Inactive)
REMARK    1  A    between atoms: C_3  and  C_4 
REMARK    2  A    between atoms: C_4  and  C_5 
REMARK       I    between atoms: C_5  and  N_6 
REMARK    3  A    between atoms: N_6  and  C_7 
REMARK    4  A    between atoms: C_7  and  C_8 
REMARK    5  A    between atoms: C_8  and  O_9 
REMARK    6  A    between atoms: C_15  and  N_16 
REMARK    7  A    between atoms: N_16  and  C_17 
REMARK    8  A    between atoms: C_26  and  C_27 
REMARK    9  A    between atoms: C_27  and  O_28 
REMARK   10  A    between atoms: C_30  and  O_31 
ROOT
HETATM    1  C   UNL     1       9.234   6.450  56.444  1.00  0.00     0.016 C 
HETATM    2  C   UNL     1       8.606   7.877  56.576  1.00  0.00    -0.030 C 
HETATM    3  C   UNL     1       9.755   8.951  56.864  1.00  0.00     0.056 C 
HETATM    4  C   UNL     1      10.445   9.347  55.575  1.00  0.00     0.055 C 
HETATM    5  C   UNL     1      10.018   8.971  54.320  1.00  0.00     0.011 C 
HETATM    6  S   UNL     1      11.061   9.584  53.127  1.00  0.00    -0.060 SA
HETATM    7  C   UNL     1      11.847  10.538  54.336  1.00  0.00     0.150 C 
HETATM    8  N   UNL     1      11.488  10.258  55.573  1.00  0.00    -0.232 NA
HETATM    9  C   UNL     1       8.803   8.173  54.011  1.00  0.00     0.054 C 
HETATM   10  C   UNL     1       7.832   8.187  55.224  1.00  0.00     0.012 C 
HETATM   11  C   UNL     1       6.815   9.415  55.271  1.00  0.00     0.008 C 
HETATM   12  C   UNL     1       5.662   9.070  54.282  1.00  0.00     0.020 C 
HETATM   13  C   UNL     1       6.176   9.559  56.687  1.00  0.00     0.128 C 
HETATM   14  C   UNL     1       6.190   8.250  57.463  1.00  0.00     0.033 C 
HETATM   15  C   UNL     1       7.618   7.812  57.784  1.00  0.00     0.013 C 
ENDROOT
BRANCH   3  16
HETATM   16  C   UNL     1      10.764   8.453  57.918  1.00  0.00     0.114 C 
BRANCH  16  17
HETATM   17  C   UNL     1      10.850   9.274  59.190  1.00  0.00     0.218 C 
HETATM   18  N   UNL     1       9.662   9.749  59.676  1.00  0.00    -0.359 N 
HETATM   19  H   UNL     1       8.793   9.312  59.360  1.00  0.00     0.162 HD
HETATM   20  O   UNL     1      11.939   9.570  59.683  1.00  0.00    -0.274 OA
BRANCH  18  21
HETATM   21  C   UNL     1       9.614  10.724  60.747  1.00  0.00     0.148 C 
BRANCH  21  22
HETATM   22  C   UNL     1       8.261  10.794  61.467  1.00  0.00     0.186 C 
BRANCH  22  23
HETATM   23  O   UNL     1       7.145  10.529  60.611  1.00  0.00    -0.394 OA
HETATM   24  C   UNL     1       6.460   9.327  60.943  1.00  0.00     0.201 C 
ENDBRANCH  22  23
ENDBRANCH  21  22
ENDBRANCH  18  21
ENDBRANCH  16  17
ENDBRANCH   3  16
BRANCH  11  25
HETATM   25  C   UNL     1       7.387  10.796  54.846  1.00  0.00     0.176 C 
BRANCH  25  26
HETATM   26  O   UNL     1       6.770  11.302  53.667  1.00  0.00    -0.400 OA
HETATM   27  H   UNL     1       6.138  11.984  53.960  1.00  0.00     0.209 HD
ENDBRANCH  25  26
ENDBRANCH  11  25
BRANCH   7  28
HETATM   28  N   UNL     1      12.733  11.493  53.951  1.00  0.00    -0.238 NA
HETATM   29  H   UNL     1      13.632  11.398  54.412  1.00  0.00     0.136 HD
BRANCH  28  30
HETATM   30  C   UNL     1      12.966  11.792  52.579  1.00  0.00     0.014 A 
HETATM   31  C   UNL     1      12.285  12.795  51.877  1.00  0.00     0.024 A 
HETATM   32  C   UNL     1      12.547  13.030  50.522  1.00  0.00     0.002 A 
HETATM   33  C   UNL     1      13.521  12.292  49.858  1.00  0.00     0.000 A 
HETATM   34  C   UNL     1      14.246  11.328  50.552  1.00  0.00     0.002 A 
HETATM   35  C   UNL     1      13.979  11.090  51.904  1.00  0.00     0.024 A 
ENDBRANCH  28  30
ENDBRANCH   7  28
BRANCH  13  36
HETATM   36  O   UNL     1       6.859  10.547  57.459  1.00  0.00    -0.395 OA
HETATM   37  H   UNL     1       6.211  10.966  58.053  1.00  0.00     0.210 HD
ENDBRANCH  13  36
TORSDOF 10
ENDMDL
MODEL 9
REMARK VINA RESULT:      -6.3      4.027      9.125
REMARK  10 active torsions:
REMARK  status: ('A' for Active; 'I' for Inactive)
REMARK    1  A    between atoms: C_3  and  C_4 
REMARK    2  A    between atoms: C_4  and  C_5 
REMARK       I    between atoms: C_5  and  N_6 
REMARK    3  A    between atoms: N_6  and  C_7 
REMARK    4  A    between atoms: C_7  and  C_8 
REMARK    5  A    between atoms: C_8  and  O_9 
REMARK    6  A    between atoms: C_15  and  N_16 
REMARK    7  A    between atoms: N_16  and  C_17 
REMARK    8  A    between atoms: C_26  and  C_27 
REMARK    9  A    between atoms: C_27  and  O_28 
REMARK   10  A    between atoms: C_30  and  O_31 
ROOT
HETATM    1  C   UNL     1       8.415  28.618  54.995  1.00  0.00     0.016 C 
HETATM    2  C   UNL     1       7.104  27.778  55.144  1.00  0.00    -0.030 C 
HETATM    3  C   UNL     1       5.832  28.746  55.106  1.00  0.00     0.056 C 
HETATM    4  C   UNL     1       5.474  29.095  53.677  1.00  0.00     0.055 C 
HETATM    5  C   UNL     1       6.051  28.514  52.569  1.00  0.00     0.011 C 
HETATM    6  S   UNL     1       5.413  29.182  51.143  1.00  0.00    -0.060 SA
HETATM    7  C   UNL     1       4.216  29.997  52.088  1.00  0.00     0.150 C 
HETATM    8  N   UNL     1       4.411  29.936  53.390  1.00  0.00    -0.232 NA
HETATM    9  C   UNL     1       7.066  27.428  52.579  1.00  0.00     0.054 C 
HETATM   10  C   UNL     1       7.075  26.718  53.961  1.00  0.00     0.012 C 
HETATM   11  C   UNL     1       6.032  25.522  54.122  1.00  0.00     0.008 C 
HETATM   12  C   UNL     1       6.668  24.285  53.421  1.00  0.00     0.020 C 
HETATM   13  C   UNL     1       5.838  25.149  55.625  1.00  0.00     0.128 C 
HETATM   14  C   UNL     1       7.032  25.547  56.479  1.00  0.00     0.033 C 
HETATM   15  C   UNL     1       7.194  27.065  56.531  1.00  0.00     0.013 C 
ENDROOT
BRANCH   3  16
HETATM   16  C   UNL     1       6.038  30.010  55.964  1.00  0.00     0.114 C 
BRANCH  16  17
HETATM   17  C   UNL     1       4.950  30.306  56.977  1.00  0.00     0.218 C 
HETATM   18  N   UNL     1       5.120  31.442  57.721  1.00  0.00    -0.359 N 
HETATM   19  H   UNL     1       5.766  32.159  57.383  1.00  0.00     0.162 HD
HETATM   20  O   UNL     1       4.032  29.510  57.176  1.00  0.00    -0.274 OA
BRANCH  18  21
HETATM   21  C   UNL     1       4.284  31.732  58.870  1.00  0.00     0.148 C 
BRANCH  21  22
HETATM   22  C   UNL     1       4.849  32.817  59.796  1.00  0.00     0.186 C 
BRANCH  22  23
HETATM   23  O   UNL     1       5.808  32.322  60.736  1.00  0.00    -0.394 OA
HETATM   24  C   UNL     1       5.367  32.416  62.085  1.00  0.00     0.201 C 
ENDBRANCH  22  23
ENDBRANCH  21  22
ENDBRANCH  18  21
ENDBRANCH  16  17
ENDBRANCH   3  16
BRANCH  11  25
HETATM   25  C   UNL     1       4.632  25.743  53.485  1.00  0.00     0.176 C 
BRANCH  25  26
HETATM   26  O   UNL     1       3.821  24.574  53.534  1.00  0.00    -0.400 OA
HETATM   27  H   UNL     1       3.939  24.196  54.424  1.00  0.00     0.209 HD
ENDBRANCH  25  26
ENDBRANCH  11  25
BRANCH   7  28
HETATM   28  N   UNL     1       3.177  30.605  51.457  1.00  0.00    -0.238 NA
HETATM   29  H   UNL     1       3.294  31.612  51.400  1.00  0.00     0.136 HD
BRANCH  28  30
HETATM   30  C   UNL     1       2.685  30.142  50.205  1.00  0.00     0.014 A 
HETATM   31  C   UNL     1       3.006  30.736  48.977  1.00  0.00     0.024 A 
HETATM   32  C   UNL     1       2.476  30.245  47.779  1.00  0.00     0.002 A 
HETATM   33  C   UNL     1       1.648  29.127  47.785  1.00  0.00     0.000 A 
HETATM   34  C   UNL     1       1.361  28.490  48.988  1.00  0.00     0.002 A 
HETATM   35  C   UNL     1       1.886  28.986  50.185  1.00  0.00     0.024 A 
ENDBRANCH  28  30
ENDBRANCH   7  28
BRANCH  13  36
HETATM   36  O   UNL     1       4.672  25.775  56.162  1.00  0.00    -0.395 OA
HETATM   37  H   UNL     1       4.709  26.722  55.938  1.00  0.00     0.210 HD
ENDBRANCH  13  36
TORSDOF 10
ENDMDL
MODEL 10
REMARK VINA RESULT:      -6.2      3.676      8.131
REMARK  10 active torsions:
REMARK  status: ('A' for Active; 'I' for Inactive)
REMARK    1  A    between atoms: C_3  and  C_4 
REMARK    2  A    between atoms: C_4  and  C_5 
REMARK       I    between atoms: C_5  and  N_6 
REMARK    3  A    between atoms: N_6  and  C_7 
REMARK    4  A    between atoms: C_7  and  C_8 
REMARK    5  A    between atoms: C_8  and  O_9 
REMARK    6  A    between atoms: C_15  and  N_16 
REMARK    7  A    between atoms: N_16  and  C_17 
REMARK    8  A    between atoms: C_26  and  C_27 
REMARK    9  A    between atoms: C_27  and  O_28 
REMARK   10  A    between atoms: C_30  and  O_31 
ROOT
HETATM    1  C   UNL     1       5.402  28.410  47.219  1.00  0.00     0.016 C 
HETATM    2  C   UNL     1       4.036  28.384  47.979  1.00  0.00    -0.030 C 
HETATM    3  C   UNL     1       4.182  29.132  49.384  1.00  0.00     0.056 C 
HETATM    4  C   UNL     1       4.079  30.632  49.200  1.00  0.00     0.055 C 
HETATM    5  C   UNL     1       3.726  31.245  48.017  1.00  0.00     0.011 C 
HETATM    6  S   UNL     1       3.746  32.934  48.192  1.00  0.00    -0.060 SA
HETATM    7  C   UNL     1       3.947  32.733  49.897  1.00  0.00     0.150 C 
HETATM    8  N   UNL     1       4.191  31.494  50.277  1.00  0.00    -0.232 NA
HETATM    9  C   UNL     1       3.342  30.559  46.756  1.00  0.00     0.054 C 
HETATM   10  C   UNL     1       2.955  29.082  47.048  1.00  0.00     0.012 C 
HETATM   11  C   UNL     1       1.429  28.843  47.452  1.00  0.00     0.008 C 
HETATM   12  C   UNL     1       0.616  28.851  46.123  1.00  0.00     0.020 C 
HETATM   13  C   UNL     1       1.237  27.436  48.098  1.00  0.00     0.128 C 
HETATM   14  C   UNL     1       2.320  26.453  47.679  1.00  0.00     0.033 C 
HETATM   15  C   UNL     1       3.689  26.878  48.207  1.00  0.00     0.013 C 
ENDROOT
BRANCH   3  16
HETATM   16  C   UNL     1       5.480  28.739  50.119  1.00  0.00     0.114 C 
BRANCH  16  17
HETATM   17  C   UNL     1       5.303  28.144  51.501  1.00  0.00     0.218 C 
HETATM   18  N   UNL     1       5.865  28.848  52.531  1.00  0.00    -0.359 N 
HETATM   19  H   UNL     1       6.102  29.831  52.383  1.00  0.00     0.162 HD
HETATM   20  O   UNL     1       4.774  27.043  51.657  1.00  0.00    -0.274 OA
BRANCH  18  21
HETATM   21  C   UNL     1       5.968  28.291  53.866  1.00  0.00     0.148 C 
BRANCH  21  22
HETATM   22  C   UNL     1       7.233  27.455  54.099  1.00  0.00     0.186 C 
BRANCH  22  23
HETATM   23  O   UNL     1       6.982  26.048  54.164  1.00  0.00    -0.394 OA
HETATM   24  C   UNL     1       6.313  25.655  55.357  1.00  0.00     0.201 C 
ENDBRANCH  22  23
ENDBRANCH  21  22
ENDBRANCH  18  21
ENDBRANCH  16  17
ENDBRANCH   3  16
BRANCH  11  25
HETATM   25  C   UNL     1       0.793  29.907  48.387  1.00  0.00     0.176 C 
BRANCH  25  26
HETATM   26  O   UNL     1      -0.050  30.815  47.686  1.00  0.00    -0.400 OA
HETATM   27  H   UNL     1      -0.315  30.363  46.864  1.00  0.00     0.209 HD
ENDBRANCH  25  26
ENDBRANCH  11  25
BRANCH   7  28
HETATM   28  N   UNL     1       3.826  33.815  50.710  1.00  0.00    -0.238 NA
HETATM   29  H   UNL     1       3.139  33.676  51.444  1.00  0.00     0.136 HD
BRANCH  28  30
HETATM   30  C   UNL     1       4.961  34.457  51.279  1.00  0.00     0.014 A 
HETATM   31  C   UNL     1       5.369  34.277  52.607  1.00  0.00     0.024 A 
HETATM   32  C   UNL     1       6.486  34.950  53.115  1.00  0.00     0.002 A 
HETATM   33  C   UNL     1       7.236  35.784  52.293  1.00  0.00     0.000 A 
HETATM   34  C   UNL     1       6.879  35.934  50.956  1.00  0.00     0.002 A 
HETATM   35  C   UNL     1       5.759  35.266  50.452  1.00  0.00     0.024 A 
ENDBRANCH  28  30
ENDBRANCH   7  28
BRANCH  13  36
HETATM   36  O   UNL     1       1.236  27.524  49.524  1.00  0.00    -0.395 OA
HETATM   37  H   UNL     1       0.777  26.739  49.873  1.00  0.00     0.210 HD
ENDBRANCH  13  36
TORSDOF 10
ENDMDL
