MODEL 1
REMARK VINA RESULT:      -9.1      0.000      0.000
REMARK  8 active torsions:
REMARK  status: ('A' for Active; 'I' for Inactive)
REMARK    1  A    between atoms: C_2  and  O_3 
REMARK    2  A    between atoms: O_3  and  C_4 
REMARK    3  A    between atoms: C_5  and  N_6 
REMARK       I    between atoms: N_6  and  C_7 
REMARK    4  A    between atoms: C_7  and  C_8 
REMARK    5  A    between atoms: C_8  and  N_9 
REMARK    6  A    between atoms: C_12  and  C_13 
REMARK       I    between atoms: C_13  and  N_14 
REMARK    7  A    between atoms: N_14  and  C_15 
REMARK    8  A    between atoms: C_23  and  N_24 
ROOT
HETATM    1  N   UNL     1       5.835  29.655  56.580  1.00  0.00    -0.248 N 
HETATM    2  N   UNL     1       7.168  29.589  56.383  1.00  0.00     0.007 NA
HETATM    3  N   UNL     1       7.487  28.316  56.214  1.00  0.00    -0.150 NA
HETATM    4  C   UNL     1       6.327  27.575  56.229  1.00  0.00     0.187 A 
HETATM    5  C   UNL     1       5.248  28.420  56.426  1.00  0.00     0.151 A 
ENDROOT
BRANCH   1   6
HETATM    6  C   UNL     1       5.219  30.921  56.899  1.00  0.00     0.251 C 
BRANCH   6   7
HETATM    7  C   UNL     1       6.002  31.648  57.970  1.00  0.00     0.241 C 
HETATM    8  N   UNL     1       6.533  30.809  58.946  1.00  0.00    -0.323 N 
HETATM    9  H   UNL     1       6.024  29.956  59.135  1.00  0.00     0.169 HD
HETATM   10  O   UNL     1       6.084  32.873  57.979  1.00  0.00    -0.271 OA
BRANCH   8  11
HETATM   11  C   UNL     1       7.393  31.260  59.977  1.00  0.00     0.068 A 
HETATM   12  C   UNL     1       8.784  31.066  59.989  1.00  0.00     0.095 A 
HETATM   13  C   UNL     1       9.570  31.644  60.990  1.00  0.00     0.039 A 
HETATM   14  C   UNL     1       8.973  32.353  62.029  1.00  0.00     0.003 A 
HETATM   15  C   UNL     1       7.586  32.479  62.073  1.00  0.00     0.002 A 
HETATM   16  C   UNL     1       6.798  31.927  61.057  1.00  0.00     0.032 A 
BRANCH  12  17
HETATM   17  O   UNL     1       9.462  30.284  59.090  1.00  0.00    -0.349 OA
BRANCH  17  18
HETATM   18  C   UNL     1      10.146  31.075  58.111  1.00  0.00     0.171 C 
HETATM   19  C   UNL     1      10.826  30.135  57.134  1.00  0.00     0.034 C 
ENDBRANCH  17  18
ENDBRANCH  12  17
ENDBRANCH   8  11
ENDBRANCH   6   7
ENDBRANCH   1   6
BRANCH   5  20
HETATM   20  N   UNL     1       3.912  28.188  56.501  1.00  0.00    -0.382 N 
HETATM   21  H   UNL     1       3.455  28.496  57.370  1.00  0.00     0.157 HD
HETATM   22  H   UNL     1       3.517  27.303  56.196  1.00  0.00     0.157 HD
ENDBRANCH   5  20
BRANCH   4  23
HETATM   23  C   UNL     1       6.328  26.130  56.010  1.00  0.00     0.280 C 
HETATM   24  N   UNL     1       7.367  25.752  55.180  1.00  0.00    -0.320 N 
HETATM   25  H   UNL     1       7.832  26.543  54.741  1.00  0.00     0.169 HD
HETATM   26  O   UNL     1       5.444  25.419  56.468  1.00  0.00    -0.265 OA
BRANCH  24  27
HETATM   27  C   UNL     1       7.716  24.476  54.689  1.00  0.00     0.057 A 
HETATM   28  C   UNL     1       8.135  23.353  55.423  1.00  0.00     0.060 A 
HETATM   29 CL   UNL     1       8.557  23.380  57.098  1.00  0.00    -0.082 Cl
HETATM   30  C   UNL     1       8.397  22.140  54.763  1.00  0.00     0.026 A 
HETATM   31  C   UNL     1       8.283  22.038  53.378  1.00  0.00     0.002 A 
HETATM   32  C   UNL     1       7.928  23.155  52.636  1.00  0.00     0.002 A 
HETATM   33  C   UNL     1       7.654  24.362  53.286  1.00  0.00     0.031 A 
ENDBRANCH  24  27
ENDBRANCH   4  23
TORSDOF 8
ENDMDL
MODEL 2
REMARK VINA RESULT:      -8.9      2.594      8.507
REMARK  8 active torsions:
REMARK  status: ('A' for Active; 'I' for Inactive)
REMARK    1  A    between atoms: C_2  and  O_3 
REMARK    2  A    between atoms: O_3  and  C_4 
REMARK    3  A    between atoms: C_5  and  N_6 
REMARK       I    between atoms: N_6  and  C_7 
REMARK    4  A    between atoms: C_7  and  C_8 
REMARK    5  A    between atoms: C_8  and  N_9 
REMARK    6  A    between atoms: C_12  and  C_13 
REMARK       I    between atoms: C_13  and  N_14 
REMARK    7  A    between atoms: N_14  and  C_15 
REMARK    8  A    between atoms: C_23  and  N_24 
ROOT
HETATM    1  N   UNL     1       6.598  27.515  54.025  1.00  0.00    -0.248 N 
HETATM    2  N   UNL     1       7.859  27.961  54.200  1.00  0.00     0.007 NA
HETATM    3  N   UNL     1       7.878  28.690  55.304  1.00  0.00    -0.150 NA
HETATM    4  C   UNL     1       6.627  28.641  55.876  1.00  0.00     0.187 A 
HETATM    5  C   UNL     1       5.797  27.860  55.088  1.00  0.00     0.151 A 
ENDROOT
BRANCH   1   6
HETATM    6  C   UNL     1       6.259  26.775  52.832  1.00  0.00     0.251 C 
BRANCH   6   7
HETATM    7  C   UNL     1       6.230  25.288  53.110  1.00  0.00     0.241 C 
HETATM    8  N   UNL     1       7.466  24.759  53.471  1.00  0.00    -0.323 N 
HETATM    9  H   UNL     1       8.283  25.221  53.098  1.00  0.00     0.169 HD
HETATM   10  O   UNL     1       5.204  24.631  52.956  1.00  0.00    -0.271 OA
BRANCH   8  11
HETATM   11  C   UNL     1       7.647  23.417  53.885  1.00  0.00     0.068 A 
HETATM   12  C   UNL     1       7.478  22.965  55.204  1.00  0.00     0.095 A 
HETATM   13  C   UNL     1       7.567  21.602  55.501  1.00  0.00     0.039 A 
HETATM   14  C   UNL     1       7.901  20.687  54.506  1.00  0.00     0.003 A 
HETATM   15  C   UNL     1       8.155  21.135  53.212  1.00  0.00     0.002 A 
HETATM   16  C   UNL     1       8.038  22.494  52.904  1.00  0.00     0.032 A 
BRANCH  12  17
HETATM   17  O   UNL     1       7.271  23.787  56.281  1.00  0.00    -0.349 OA
BRANCH  17  18
HETATM   18  C   UNL     1       8.505  24.185  56.888  1.00  0.00     0.171 C 
HETATM   19  C   UNL     1       8.380  25.638  57.308  1.00  0.00     0.034 C 
ENDBRANCH  17  18
ENDBRANCH  12  17
ENDBRANCH   8  11
ENDBRANCH   6   7
ENDBRANCH   1   6
BRANCH   5  20
HETATM   20  N   UNL     1       4.496  27.493  55.222  1.00  0.00    -0.382 N 
HETATM   21  H   UNL     1       4.206  26.673  54.673  1.00  0.00     0.157 HD
HETATM   22  H   UNL     1       3.754  28.188  55.227  1.00  0.00     0.157 HD
ENDBRANCH   5  20
BRANCH   4  23
HETATM   23  C   UNL     1       6.328  29.299  57.145  1.00  0.00     0.280 C 
HETATM   24  N   UNL     1       7.428  29.986  57.622  1.00  0.00    -0.320 N 
HETATM   25  H   UNL     1       8.280  29.776  57.107  1.00  0.00     0.169 HD
HETATM   26  O   UNL     1       5.245  29.152  57.696  1.00  0.00    -0.265 OA
BRANCH  24  27
HETATM   27  C   UNL     1       7.589  30.726  58.813  1.00  0.00     0.057 A 
HETATM   28  C   UNL     1       6.811  31.803  59.271  1.00  0.00     0.060 A 
HETATM   29 CL   UNL     1       5.619  32.623  58.327  1.00  0.00    -0.082 Cl
HETATM   30  C   UNL     1       7.092  32.392  60.516  1.00  0.00     0.026 A 
HETATM   31  C   UNL     1       8.160  31.950  61.295  1.00  0.00     0.002 A 
HETATM   32  C   UNL     1       8.971  30.926  60.826  1.00  0.00     0.002 A 
HETATM   33  C   UNL     1       8.691  30.327  59.595  1.00  0.00     0.031 A 
ENDBRANCH  24  27
ENDBRANCH   4  23
TORSDOF 8
ENDMDL
MODEL 3
REMARK VINA RESULT:      -8.9      2.735      9.045
REMARK  8 active torsions:
REMARK  status: ('A' for Active; 'I' for Inactive)
REMARK    1  A    between atoms: C_2  and  O_3 
REMARK    2  A    between atoms: O_3  and  C_4 
REMARK    3  A    between atoms: C_5  and  N_6 
REMARK       I    between atoms: N_6  and  C_7 
REMARK    4  A    between atoms: C_7  and  C_8 
REMARK    5  A    between atoms: C_8  and  N_9 
REMARK    6  A    between atoms: C_12  and  C_13 
REMARK       I    between atoms: C_13  and  N_14 
REMARK    7  A    between atoms: N_14  and  C_15 
REMARK    8  A    between atoms: C_23  and  N_24 
ROOT
HETATM    1  N   UNL     1       7.105  29.378  57.296  1.00  0.00    -0.248 N 
HETATM    2  N   UNL     1       8.059  28.727  57.992  1.00  0.00     0.007 NA
HETATM    3  N   UNL     1       8.417  29.500  59.004  1.00  0.00    -0.150 NA
HETATM    4  C   UNL     1       7.623  30.624  58.990  1.00  0.00     0.187 A 
HETATM    5  C   UNL     1       6.746  30.550  57.921  1.00  0.00     0.151 A 
ENDROOT
BRANCH   1   6
HETATM    6  C   UNL     1       6.600  28.810  56.068  1.00  0.00     0.251 C 
BRANCH   6   7
HETATM    7  C   UNL     1       6.450  27.310  56.188  1.00  0.00     0.241 C 
HETATM    8  N   UNL     1       7.570  26.597  55.768  1.00  0.00    -0.323 N 
HETATM    9  H   UNL     1       8.137  27.027  55.050  1.00  0.00     0.169 HD
HETATM   10  O   UNL     1       5.397  26.803  56.564  1.00  0.00    -0.271 OA
BRANCH   8  11
HETATM   11  C   UNL     1       7.693  25.192  55.898  1.00  0.00     0.068 A 
HETATM   12  C   UNL     1       7.158  24.264  54.991  1.00  0.00     0.095 A 
HETATM   13  C   UNL     1       7.424  22.899  55.136  1.00  0.00     0.039 A 
HETATM   14  C   UNL     1       8.158  22.440  56.227  1.00  0.00     0.003 A 
HETATM   15  C   UNL     1       8.620  23.345  57.179  1.00  0.00     0.002 A 
HETATM   16  C   UNL     1       8.381  24.714  57.022  1.00  0.00     0.032 A 
BRANCH  12  17
HETATM   17  O   UNL     1       6.321  24.590  53.956  1.00  0.00    -0.349 OA
BRANCH  17  18
HETATM   18  C   UNL     1       6.818  24.110  52.701  1.00  0.00     0.171 C 
HETATM   19  C   UNL     1       7.902  25.058  52.227  1.00  0.00     0.034 C 
ENDBRANCH  17  18
ENDBRANCH  12  17
ENDBRANCH   8  11
ENDBRANCH   6   7
ENDBRANCH   1   6
BRANCH   5  20
HETATM   20  N   UNL     1       5.765  31.384  57.488  1.00  0.00    -0.382 N 
HETATM   21  H   UNL     1       4.852  30.943  57.312  1.00  0.00     0.157 HD
HETATM   22  H   UNL     1       5.953  32.090  56.781  1.00  0.00     0.157 HD
ENDBRANCH   5  20
BRANCH   4  23
HETATM   23  C   UNL     1       7.726  31.659  60.017  1.00  0.00     0.280 C 
HETATM   24  N   UNL     1       6.991  31.324  61.138  1.00  0.00    -0.320 N 
HETATM   25  H   UNL     1       6.385  30.520  60.989  1.00  0.00     0.169 HD
HETATM   26  O   UNL     1       8.338  32.698  59.809  1.00  0.00    -0.265 OA
BRANCH  24  27
HETATM   27  C   UNL     1       6.788  32.041  62.337  1.00  0.00     0.057 A 
HETATM   28  C   UNL     1       5.567  32.424  62.918  1.00  0.00     0.060 A 
HETATM   29 CL   UNL     1       4.031  32.309  62.135  1.00  0.00    -0.082 Cl
HETATM   30  C   UNL     1       5.557  33.097  64.152  1.00  0.00     0.026 A 
HETATM   31  C   UNL     1       6.746  33.427  64.798  1.00  0.00     0.002 A 
HETATM   32  C   UNL     1       7.960  33.107  64.206  1.00  0.00     0.002 A 
HETATM   33  C   UNL     1       7.978  32.427  62.986  1.00  0.00     0.031 A 
ENDBRANCH  24  27
ENDBRANCH   4  23
TORSDOF 8
ENDMDL
MODEL 4
REMARK VINA RESULT:      -8.7      1.136      2.496
REMARK  8 active torsions:
REMARK  status: ('A' for Active; 'I' for Inactive)
REMARK    1  A    between atoms: C_2  and  O_3 
REMARK    2  A    between atoms: O_3  and  C_4 
REMARK    3  A    between atoms: C_5  and  N_6 
REMARK       I    between atoms: N_6  and  C_7 
REMARK    4  A    between atoms: C_7  and  C_8 
REMARK    5  A    between atoms: C_8  and  N_9 
REMARK    6  A    between atoms: C_12  and  C_13 
REMARK       I    between atoms: C_13  and  N_14 
REMARK    7  A    between atoms: N_14  and  C_15 
REMARK    8  A    between atoms: C_23  and  N_24 
ROOT
HETATM    1  N   UNL     1       5.790  29.650  56.618  1.00  0.00    -0.248 N 
HETATM    2  N   UNL     1       7.123  29.613  56.416  1.00  0.00     0.007 NA
HETATM    3  N   UNL     1       7.470  28.345  56.260  1.00  0.00    -0.150 NA
HETATM    4  C   UNL     1       6.328  27.578  56.287  1.00  0.00     0.187 A 
HETATM    5  C   UNL     1       5.230  28.401  56.479  1.00  0.00     0.151 A 
ENDROOT
BRANCH   1   6
HETATM    6  C   UNL     1       5.146  30.906  56.925  1.00  0.00     0.251 C 
BRANCH   6   7
HETATM    7  C   UNL     1       5.947  31.689  57.942  1.00  0.00     0.241 C 
HETATM    8  N   UNL     1       6.504  30.902  58.946  1.00  0.00    -0.323 N 
HETATM    9  H   UNL     1       6.006  30.056  59.187  1.00  0.00     0.169 HD
HETATM   10  O   UNL     1       6.021  32.913  57.889  1.00  0.00    -0.271 OA
BRANCH   8  11
HETATM   11  C   UNL     1       7.383  31.408  59.934  1.00  0.00     0.068 A 
HETATM   12  C   UNL     1       6.965  32.019  61.127  1.00  0.00     0.095 A 
HETATM   13  C   UNL     1       7.900  32.388  62.098  1.00  0.00     0.039 A 
HETATM   14  C   UNL     1       9.262  32.222  61.860  1.00  0.00     0.003 A 
HETATM   15  C   UNL     1       9.691  31.694  60.644  1.00  0.00     0.002 A 
HETATM   16  C   UNL     1       8.758  31.297  59.681  1.00  0.00     0.032 A 
BRANCH  12  17
HETATM   17  O   UNL     1       5.664  32.345  61.413  1.00  0.00    -0.349 OA
BRANCH  17  18
HETATM   18  C   UNL     1       5.322  32.020  62.765  1.00  0.00     0.171 C 
HETATM   19  C   UNL     1       4.592  33.206  63.367  1.00  0.00     0.034 C 
ENDBRANCH  17  18
ENDBRANCH  12  17
ENDBRANCH   8  11
ENDBRANCH   6   7
ENDBRANCH   1   6
BRANCH   5  20
HETATM   20  N   UNL     1       3.900  28.140  56.562  1.00  0.00    -0.382 N 
HETATM   21  H   UNL     1       3.281  28.846  56.141  1.00  0.00     0.157 HD
HETATM   22  H   UNL     1       3.489  27.785  57.421  1.00  0.00     0.157 HD
ENDBRANCH   5  20
BRANCH   4  23
HETATM   23  C   UNL     1       6.360  26.132  56.084  1.00  0.00     0.280 C 
HETATM   24  N   UNL     1       7.355  25.776  55.193  1.00  0.00    -0.320 N 
HETATM   25  H   UNL     1       7.765  26.576  54.716  1.00  0.00     0.169 HD
HETATM   26  O   UNL     1       5.532  25.400  56.607  1.00  0.00    -0.265 OA
BRANCH  24  27
HETATM   27  C   UNL     1       7.713  24.505  54.694  1.00  0.00     0.057 A 
HETATM   28  C   UNL     1       8.136  23.379  55.422  1.00  0.00     0.060 A 
HETATM   29 CL   UNL     1       8.553  23.396  57.098  1.00  0.00    -0.082 Cl
HETATM   30  C   UNL     1       8.406  22.172  54.754  1.00  0.00     0.026 A 
HETATM   31  C   UNL     1       8.297  22.079  53.368  1.00  0.00     0.002 A 
HETATM   32  C   UNL     1       7.938  23.200  52.632  1.00  0.00     0.002 A 
HETATM   33  C   UNL     1       7.656  24.400  53.290  1.00  0.00     0.031 A 
ENDBRANCH  24  27
ENDBRANCH   4  23
TORSDOF 8
ENDMDL
MODEL 5
REMARK VINA RESULT:      -8.4      2.019      3.033
REMARK  8 active torsions:
REMARK  status: ('A' for Active; 'I' for Inactive)
REMARK    1  A    between atoms: C_2  and  O_3 
REMARK    2  A    between atoms: O_3  and  C_4 
REMARK    3  A    between atoms: C_5  and  N_6 
REMARK       I    between atoms: N_6  and  C_7 
REMARK    4  A    between atoms: C_7  and  C_8 
REMARK    5  A    between atoms: C_8  and  N_9 
REMARK    6  A    between atoms: C_12  and  C_13 
REMARK       I    between atoms: C_13  and  N_14 
REMARK    7  A    between atoms: N_14  and  C_15 
REMARK    8  A    between atoms: C_23  and  N_24 
ROOT
HETATM    1  N   UNL     1       7.817  28.544  57.042  1.00  0.00    -0.248 N 
HETATM    2  N   UNL     1       8.068  27.665  58.033  1.00  0.00     0.007 NA
HETATM    3  N   UNL     1       7.704  26.466  57.610  1.00  0.00    -0.150 NA
HETATM    4  C   UNL     1       7.286  26.577  56.304  1.00  0.00     0.187 A 
HETATM    5  C   UNL     1       7.385  27.900  55.905  1.00  0.00     0.151 A 
ENDROOT
BRANCH   1   6
HETATM    6  C   UNL     1       8.021  29.956  57.265  1.00  0.00     0.251 C 
BRANCH   6   7
HETATM    7  C   UNL     1       6.878  30.548  58.061  1.00  0.00     0.241 C 
HETATM    8  N   UNL     1       7.275  31.515  58.980  1.00  0.00    -0.323 N 
HETATM    9  H   UNL     1       8.206  31.423  59.361  1.00  0.00     0.169 HD
HETATM   10  O   UNL     1       5.729  30.139  57.925  1.00  0.00    -0.271 OA
BRANCH   8  11
HETATM   11  C   UNL     1       6.363  32.279  59.748  1.00  0.00     0.068 A 
HETATM   12  C   UNL     1       6.336  32.303  61.152  1.00  0.00     0.095 A 
HETATM   13  C   UNL     1       5.476  33.173  61.828  1.00  0.00     0.039 A 
HETATM   14  C   UNL     1       4.583  33.970  61.117  1.00  0.00     0.003 A 
HETATM   15  C   UNL     1       4.543  33.891  59.727  1.00  0.00     0.002 A 
HETATM   16  C   UNL     1       5.421  33.044  59.045  1.00  0.00     0.032 A 
BRANCH  12  17
HETATM   17  O   UNL     1       7.079  31.474  61.952  1.00  0.00    -0.349 OA
BRANCH  17  18
HETATM   18  C   UNL     1       8.205  32.156  62.519  1.00  0.00     0.171 C 
HETATM   19  C   UNL     1       9.445  31.744  61.749  1.00  0.00     0.034 C 
ENDBRANCH  17  18
ENDBRANCH  12  17
ENDBRANCH   8  11
ENDBRANCH   6   7
ENDBRANCH   1   6
BRANCH   5  20
HETATM   20  N   UNL     1       7.116  28.517  54.725  1.00  0.00    -0.382 N 
HETATM   21  H   UNL     1       6.740  27.913  53.983  1.00  0.00     0.157 HD
HETATM   22  H   UNL     1       7.765  29.192  54.328  1.00  0.00     0.157 HD
ENDBRANCH   5  20
BRANCH   4  23
HETATM   23  C   UNL     1       6.868  25.416  55.522  1.00  0.00     0.280 C 
HETATM   24  N   UNL     1       7.848  24.441  55.515  1.00  0.00    -0.320 N 
HETATM   25  H   UNL     1       8.732  24.765  55.901  1.00  0.00     0.169 HD
HETATM   26  O   UNL     1       5.808  25.410  54.913  1.00  0.00    -0.265 OA
BRANCH  24  27
HETATM   27  C   UNL     1       7.876  23.187  54.867  1.00  0.00     0.057 A 
HETATM   28  C   UNL     1       7.979  22.930  53.489  1.00  0.00     0.060 A 
HETATM   29 CL   UNL     1       7.841  24.131  52.255  1.00  0.00    -0.082 Cl
HETATM   30  C   UNL     1       8.042  21.605  53.025  1.00  0.00     0.026 A 
HETATM   31  C   UNL     1       7.965  20.531  53.909  1.00  0.00     0.002 A 
HETATM   32  C   UNL     1       7.803  20.771  55.266  1.00  0.00     0.002 A 
HETATM   33  C   UNL     1       7.753  22.086  55.737  1.00  0.00     0.031 A 
ENDBRANCH  24  27
ENDBRANCH   4  23
TORSDOF 8
ENDMDL
MODEL 6
REMARK VINA RESULT:      -8.4      1.709      3.029
REMARK  8 active torsions:
REMARK  status: ('A' for Active; 'I' for Inactive)
REMARK    1  A    between atoms: C_2  and  O_3 
REMARK    2  A    between atoms: O_3  and  C_4 
REMARK    3  A    between atoms: C_5  and  N_6 
REMARK       I    between atoms: N_6  and  C_7 
REMARK    4  A    between atoms: C_7  and  C_8 
REMARK    5  A    between atoms: C_8  and  N_9 
REMARK    6  A    between atoms: C_12  and  C_13 
REMARK       I    between atoms: C_13  and  N_14 
REMARK    7  A    between atoms: N_14  and  C_15 
REMARK    8  A    between atoms: C_23  and  N_24 
ROOT
HETATM    1  N   UNL     1       5.449  27.495  55.984  1.00  0.00    -0.248 N 
HETATM    2  N   UNL     1       6.048  27.999  54.886  1.00  0.00     0.007 NA
HETATM    3  N   UNL     1       6.443  26.981  54.139  1.00  0.00    -0.150 NA
HETATM    4  C   UNL     1       6.020  25.817  54.738  1.00  0.00     0.187 A 
HETATM    5  C   UNL     1       5.346  26.125  55.908  1.00  0.00     0.151 A 
ENDROOT
BRANCH   1   6
HETATM    6  C   UNL     1       5.010  28.384  57.033  1.00  0.00     0.251 C 
BRANCH   6   7
HETATM    7  C   UNL     1       6.021  29.485  57.267  1.00  0.00     0.241 C 
HETATM    8  N   UNL     1       7.235  29.035  57.779  1.00  0.00    -0.323 N 
HETATM    9  H   UNL     1       7.204  28.201  58.349  1.00  0.00     0.169 HD
HETATM   10  O   UNL     1       5.736  30.663  57.072  1.00  0.00    -0.271 OA
BRANCH   8  11
HETATM   11  C   UNL     1       8.359  29.875  57.966  1.00  0.00     0.068 A 
HETATM   12  C   UNL     1       8.474  30.827  58.992  1.00  0.00     0.095 A 
HETATM   13  C   UNL     1       9.667  31.534  59.171  1.00  0.00     0.039 A 
HETATM   14  C   UNL     1      10.727  31.356  58.285  1.00  0.00     0.003 A 
HETATM   15  C   UNL     1      10.592  30.477  57.214  1.00  0.00     0.002 A 
HETATM   16  C   UNL     1       9.411  29.746  57.048  1.00  0.00     0.032 A 
BRANCH  12  17
HETATM   17  O   UNL     1       7.456  31.173  59.842  1.00  0.00    -0.349 OA
BRANCH  17  18
HETATM   18  C   UNL     1       7.926  31.968  60.936  1.00  0.00     0.171 C 
HETATM   19  C   UNL     1       6.829  32.943  61.320  1.00  0.00     0.034 C 
ENDBRANCH  17  18
ENDBRANCH  12  17
ENDBRANCH   8  11
ENDBRANCH   6   7
ENDBRANCH   1   6
BRANCH   5  20
HETATM   20  N   UNL     1       4.732  25.347  56.837  1.00  0.00    -0.382 N 
HETATM   21  H   UNL     1       3.725  25.516  56.963  1.00  0.00     0.157 HD
HETATM   22  H   UNL     1       5.168  25.162  57.736  1.00  0.00     0.157 HD
ENDBRANCH   5  20
BRANCH   4  23
HETATM   23  C   UNL     1       6.248  24.507  54.133  1.00  0.00     0.280 C 
HETATM   24  N   UNL     1       7.176  23.779  54.854  1.00  0.00    -0.320 N 
HETATM   25  H   UNL     1       7.652  24.334  55.561  1.00  0.00     0.169 HD
HETATM   26  O   UNL     1       5.711  24.193  53.079  1.00  0.00    -0.265 OA
BRANCH  24  27
HETATM   27  C   UNL     1       7.708  22.494  54.611  1.00  0.00     0.057 A 
HETATM   28  C   UNL     1       8.114  21.536  55.556  1.00  0.00     0.060 A 
HETATM   29 CL   UNL     1       8.281  21.838  57.249  1.00  0.00    -0.082 Cl
HETATM   30  C   UNL     1       8.577  20.280  55.127  1.00  0.00     0.026 A 
HETATM   31  C   UNL     1       8.678  19.977  53.771  1.00  0.00     0.002 A 
HETATM   32  C   UNL     1       8.336  20.936  52.828  1.00  0.00     0.002 A 
HETATM   33  C   UNL     1       7.863  22.183  53.246  1.00  0.00     0.031 A 
ENDBRANCH  24  27
ENDBRANCH   4  23
TORSDOF 8
ENDMDL
MODEL 7
REMARK VINA RESULT:      -8.1      3.085      8.359
REMARK  8 active torsions:
REMARK  status: ('A' for Active; 'I' for Inactive)
REMARK    1  A    between atoms: C_2  and  O_3 
REMARK    2  A    between atoms: O_3  and  C_4 
REMARK    3  A    between atoms: C_5  and  N_6 
REMARK       I    between atoms: N_6  and  C_7 
REMARK    4  A    between atoms: C_7  and  C_8 
REMARK    5  A    between atoms: C_8  and  N_9 
REMARK    6  A    between atoms: C_12  and  C_13 
REMARK       I    between atoms: C_13  and  N_14 
REMARK    7  A    between atoms: N_14  and  C_15 
REMARK    8  A    between atoms: C_23  and  N_24 
ROOT
HETATM    1  N   UNL     1       4.370  30.771  57.317  1.00  0.00    -0.248 N 
HETATM    2  N   UNL     1       5.421  31.457  56.823  1.00  0.00     0.007 NA
HETATM    3  N   UNL     1       5.790  32.340  57.737  1.00  0.00    -0.150 NA
HETATM    4  C   UNL     1       5.008  32.157  58.855  1.00  0.00     0.187 A 
HETATM    5  C   UNL     1       4.112  31.128  58.621  1.00  0.00     0.151 A 
ENDROOT
BRANCH   1   6
HETATM    6  C   UNL     1       3.689  29.806  56.486  1.00  0.00     0.251 C 
BRANCH   6   7
HETATM    7  C   UNL     1       4.620  28.680  56.094  1.00  0.00     0.241 C 
HETATM    8  N   UNL     1       5.252  28.069  57.174  1.00  0.00    -0.323 N 
HETATM    9  H   UNL     1       5.417  28.646  57.987  1.00  0.00     0.169 HD
HETATM   10  O   UNL     1       4.823  28.403  54.916  1.00  0.00    -0.271 OA
BRANCH   8  11
HETATM   11  C   UNL     1       6.074  26.924  57.049  1.00  0.00     0.068 A 
HETATM   12  C   UNL     1       7.398  26.846  57.511  1.00  0.00     0.095 A 
HETATM   13  C   UNL     1       8.100  25.638  57.447  1.00  0.00     0.039 A 
HETATM   14  C   UNL     1       7.519  24.520  56.854  1.00  0.00     0.003 A 
HETATM   15  C   UNL     1       6.237  24.610  56.317  1.00  0.00     0.002 A 
HETATM   16  C   UNL     1       5.521  25.808  56.404  1.00  0.00     0.032 A 
BRANCH  12  17
HETATM   17  O   UNL     1       8.111  27.912  57.996  1.00  0.00    -0.349 OA
BRANCH  17  18
HETATM   18  C   UNL     1       8.901  28.530  56.974  1.00  0.00     0.171 C 
HETATM   19  C   UNL     1       9.605  29.730  57.580  1.00  0.00     0.034 C 
ENDBRANCH  17  18
ENDBRANCH  12  17
ENDBRANCH   8  11
ENDBRANCH   6   7
ENDBRANCH   1   6
BRANCH   5  20
HETATM   20  N   UNL     1       3.154  30.560  59.399  1.00  0.00    -0.382 N 
HETATM   21  H   UNL     1       3.378  29.626  59.768  1.00  0.00     0.157 HD
HETATM   22  H   UNL     1       2.173  30.605  59.138  1.00  0.00     0.157 HD
ENDBRANCH   5  20
BRANCH   4  23
HETATM   23  C   UNL     1       5.202  32.941  60.073  1.00  0.00     0.280 C 
HETATM   24  N   UNL     1       5.907  32.223  61.020  1.00  0.00    -0.320 N 
HETATM   25  H   UNL     1       6.015  31.242  60.776  1.00  0.00     0.169 HD
HETATM   26  O   UNL     1       4.706  34.052  60.196  1.00  0.00    -0.265 OA
BRANCH  24  27
HETATM   27  C   UNL     1       6.284  32.581  62.333  1.00  0.00     0.057 A 
HETATM   28  C   UNL     1       7.581  32.652  62.870  1.00  0.00     0.060 A 
HETATM   29 CL   UNL     1       9.001  32.062  62.083  1.00  0.00    -0.082 Cl
HETATM   30  C   UNL     1       7.770  33.078  64.196  1.00  0.00     0.026 A 
HETATM   31  C   UNL     1       6.683  33.398  65.008  1.00  0.00     0.002 A 
HETATM   32  C   UNL     1       5.395  33.275  64.508  1.00  0.00     0.002 A 
HETATM   33  C   UNL     1       5.199  32.864  63.187  1.00  0.00     0.031 A 
ENDBRANCH  24  27
ENDBRANCH   4  23
TORSDOF 8
ENDMDL
MODEL 8
REMARK VINA RESULT:      -8.1      2.281      8.745
REMARK  8 active torsions:
REMARK  status: ('A' for Active; 'I' for Inactive)
REMARK    1  A    between atoms: C_2  and  O_3 
REMARK    2  A    between atoms: O_3  and  C_4 
REMARK    3  A    between atoms: C_5  and  N_6 
REMARK       I    between atoms: N_6  and  C_7 
REMARK    4  A    between atoms: C_7  and  C_8 
REMARK    5  A    between atoms: C_8  and  N_9 
REMARK    6  A    between atoms: C_12  and  C_13 
REMARK       I    between atoms: C_13  and  N_14 
REMARK    7  A    between atoms: N_14  and  C_15 
REMARK    8  A    between atoms: C_23  and  N_24 
ROOT
HETATM    1  N   UNL     1       6.767  27.945  55.367  1.00  0.00    -0.248 N 
HETATM    2  N   UNL     1       5.794  27.729  56.274  1.00  0.00     0.007 NA
HETATM    3  N   UNL     1       6.114  28.392  57.373  1.00  0.00    -0.150 NA
HETATM    4  C   UNL     1       7.270  29.099  57.130  1.00  0.00     0.187 A 
HETATM    5  C   UNL     1       7.688  28.856  55.832  1.00  0.00     0.151 A 
ENDROOT
BRANCH   1   6
HETATM    6  C   UNL     1       6.733  27.255  54.099  1.00  0.00     0.251 C 
BRANCH   6   7
HETATM    7  C   UNL     1       6.567  25.764  54.300  1.00  0.00     0.241 C 
HETATM    8  N   UNL     1       7.724  25.031  54.052  1.00  0.00    -0.323 N 
HETATM    9  H   UNL     1       8.367  25.416  53.373  1.00  0.00     0.169 HD
HETATM   10  O   UNL     1       5.479  25.278  54.593  1.00  0.00    -0.271 OA
BRANCH   8  11
HETATM   11  C   UNL     1       7.829  23.639  54.287  1.00  0.00     0.068 A 
HETATM   12  C   UNL     1       7.638  23.030  55.538  1.00  0.00     0.095 A 
HETATM   13  C   UNL     1       7.649  21.638  55.656  1.00  0.00     0.039 A 
HETATM   14  C   UNL     1       7.927  20.842  54.548  1.00  0.00     0.003 A 
HETATM   15  C   UNL     1       8.202  21.439  53.320  1.00  0.00     0.002 A 
HETATM   16  C   UNL     1       8.163  22.831  53.191  1.00  0.00     0.032 A 
BRANCH  12  17
HETATM   17  O   UNL     1       7.482  23.716  56.714  1.00  0.00    -0.349 OA
BRANCH  17  18
HETATM   18  C   UNL     1       8.739  24.148  57.246  1.00  0.00     0.171 C 
HETATM   19  C   UNL     1       8.680  25.652  57.442  1.00  0.00     0.034 C 
ENDBRANCH  17  18
ENDBRANCH  12  17
ENDBRANCH   8  11
ENDBRANCH   6   7
ENDBRANCH   1   6
BRANCH   5  20
HETATM   20  N   UNL     1       8.744  29.319  55.114  1.00  0.00    -0.382 N 
HETATM   21  H   UNL     1       9.165  28.647  54.459  1.00  0.00     0.157 HD
HETATM   22  H   UNL     1       9.471  29.877  55.554  1.00  0.00     0.157 HD
ENDBRANCH   5  20
BRANCH   4  23
HETATM   23  C   UNL     1       7.862  29.985  58.130  1.00  0.00     0.280 C 
HETATM   24  N   UNL     1       6.897  30.496  58.976  1.00  0.00    -0.320 N 
HETATM   25  H   UNL     1       5.949  30.309  58.658  1.00  0.00     0.169 HD
HETATM   26  O   UNL     1       9.055  30.255  58.110  1.00  0.00    -0.265 OA
BRANCH  24  27
HETATM   27  C   UNL     1       7.022  31.404  60.051  1.00  0.00     0.057 A 
HETATM   28  C   UNL     1       8.023  31.443  61.036  1.00  0.00     0.060 A 
HETATM   29 CL   UNL     1       9.201  30.203  61.286  1.00  0.00    -0.082 Cl
HETATM   30  C   UNL     1       8.013  32.457  62.008  1.00  0.00     0.026 A 
HETATM   31  C   UNL     1       6.999  33.413  62.037  1.00  0.00     0.002 A 
HETATM   32  C   UNL     1       5.972  33.350  61.106  1.00  0.00     0.002 A 
HETATM   33  C   UNL     1       5.982  32.352  60.128  1.00  0.00     0.031 A 
ENDBRANCH  24  27
ENDBRANCH   4  23
TORSDOF 8
ENDMDL
MODEL 9
REMARK VINA RESULT:      -8.0      7.798     11.093
REMARK  8 active torsions:
REMARK  status: ('A' for Active; 'I' for Inactive)
REMARK    1  A    between atoms: C_2  and  O_3 
REMARK    2  A    between atoms: O_3  and  C_4 
REMARK    3  A    between atoms: C_5  and  N_6 
REMARK       I    between atoms: N_6  and  C_7 
REMARK    4  A    between atoms: C_7  and  C_8 
REMARK    5  A    between atoms: C_8  and  N_9 
REMARK    6  A    between atoms: C_12  and  C_13 
REMARK       I    between atoms: C_13  and  N_14 
REMARK    7  A    between atoms: N_14  and  C_15 
REMARK    8  A    between atoms: C_23  and  N_24 
ROOT
HETATM    1  N   UNL     1       5.706  34.315  66.263  1.00  0.00    -0.248 N 
HETATM    2  N   UNL     1       7.025  34.058  66.158  1.00  0.00     0.007 NA
HETATM    3  N   UNL     1       7.197  33.257  65.119  1.00  0.00    -0.150 NA
HETATM    4  C   UNL     1       5.976  33.067  64.513  1.00  0.00     0.187 A 
HETATM    5  C   UNL     1       5.007  33.769  65.211  1.00  0.00     0.151 A 
ENDROOT
BRANCH   1   6
HETATM    6  C   UNL     1       5.212  35.085  67.380  1.00  0.00     0.251 C 
BRANCH   6   7
HETATM    7  C   UNL     1       5.460  34.363  68.686  1.00  0.00     0.241 C 
HETATM    8  N   UNL     1       6.617  34.771  69.344  1.00  0.00    -0.323 N 
HETATM    9  H   UNL     1       7.372  35.111  68.764  1.00  0.00     0.169 HD
HETATM   10  O   UNL     1       4.721  33.459  69.064  1.00  0.00    -0.271 OA
BRANCH   8  11
HETATM   11  C   UNL     1       6.983  34.312  70.633  1.00  0.00     0.068 A 
HETATM   12  C   UNL     1       6.993  35.114  71.786  1.00  0.00     0.095 A 
HETATM   13  C   UNL     1       7.258  34.551  73.037  1.00  0.00     0.039 A 
HETATM   14  C   UNL     1       7.592  33.203  73.143  1.00  0.00     0.003 A 
HETATM   15  C   UNL     1       7.668  32.417  71.995  1.00  0.00     0.002 A 
HETATM   16  C   UNL     1       7.374  32.970  70.744  1.00  0.00     0.032 A 
BRANCH  12  17
HETATM   17  O   UNL     1       6.803  36.472  71.783  1.00  0.00    -0.349 OA
BRANCH  17  18
HETATM   18  C   UNL     1       8.019  37.177  72.061  1.00  0.00     0.171 C 
HETATM   19  C   UNL     1       8.252  38.177  70.944  1.00  0.00     0.034 C 
ENDBRANCH  17  18
ENDBRANCH  12  17
ENDBRANCH   8  11
ENDBRANCH   6   7
ENDBRANCH   1   6
BRANCH   5  20
HETATM   20  N   UNL     1       3.672  33.919  65.013  1.00  0.00    -0.382 N 
HETATM   21  H   UNL     1       3.398  34.307  64.101  1.00  0.00     0.157 HD
HETATM   22  H   UNL     1       3.074  34.294  65.744  1.00  0.00     0.157 HD
ENDBRANCH   5  20
BRANCH   4  23
HETATM   23  C   UNL     1       5.830  32.273  63.296  1.00  0.00     0.280 C 
HETATM   24  N   UNL     1       6.916  32.441  62.458  1.00  0.00    -0.320 N 
HETATM   25  H   UNL     1       7.528  33.199  62.749  1.00  0.00     0.169 HD
HETATM   26  O   UNL     1       4.813  31.629  63.077  1.00  0.00    -0.265 OA
BRANCH  24  27
HETATM   27  C   UNL     1       7.170  31.893  61.181  1.00  0.00     0.057 A 
HETATM   28  C   UNL     1       8.145  30.946  60.827  1.00  0.00     0.060 A 
HETATM   29 CL   UNL     1       9.429  30.428  61.860  1.00  0.00    -0.082 Cl
HETATM   30  C   UNL     1       8.220  30.476  59.505  1.00  0.00     0.026 A 
HETATM   31  C   UNL     1       7.363  30.963  58.520  1.00  0.00     0.002 A 
HETATM   32  C   UNL     1       6.434  31.942  58.845  1.00  0.00     0.002 A 
HETATM   33  C   UNL     1       6.345  32.406  60.160  1.00  0.00     0.031 A 
ENDBRANCH  24  27
ENDBRANCH   4  23
TORSDOF 8
ENDMDL
MODEL 10
REMARK VINA RESULT:      -8.0      2.342      3.222
REMARK  8 active torsions:
REMARK  status: ('A' for Active; 'I' for Inactive)
REMARK    1  A    between atoms: C_2  and  O_3 
REMARK    2  A    between atoms: O_3  and  C_4 
REMARK    3  A    between atoms: C_5  and  N_6 
REMARK       I    between atoms: N_6  and  C_7 
REMARK    4  A    between atoms: C_7  and  C_8 
REMARK    5  A    between atoms: C_8  and  N_9 
REMARK    6  A    between atoms: C_12  and  C_13 
REMARK       I    between atoms: C_13  and  N_14 
REMARK    7  A    between atoms: N_14  and  C_15 
REMARK    8  A    between atoms: C_23  and  N_24 
ROOT
HETATM    1  N   UNL     1       5.264  27.646  53.816  1.00  0.00    -0.248 N 
HETATM    2  N   UNL     1       6.497  28.191  53.826  1.00  0.00     0.007 NA
HETATM    3  N   UNL     1       7.369  27.218  53.618  1.00  0.00    -0.150 NA
HETATM    4  C   UNL     1       6.671  26.053  53.397  1.00  0.00     0.187 A 
HETATM    5  C   UNL     1       5.313  26.311  53.483  1.00  0.00     0.151 A 
ENDROOT
BRANCH   1   6
HETATM    6  C   UNL     1       4.114  28.464  54.124  1.00  0.00     0.251 C 
BRANCH   6   7
HETATM    7  C   UNL     1       4.491  29.594  55.058  1.00  0.00     0.241 C 
HETATM    8  N   UNL     1       4.891  29.169  56.322  1.00  0.00    -0.323 N 
HETATM    9  H   UNL     1       4.490  28.303  56.656  1.00  0.00     0.169 HD
HETATM   10  O   UNL     1       4.377  30.767  54.716  1.00  0.00    -0.271 OA
BRANCH   8  11
HETATM   11  C   UNL     1       5.394  30.045  57.314  1.00  0.00     0.068 A 
HETATM   12  C   UNL     1       6.715  30.027  57.790  1.00  0.00     0.095 A 
HETATM   13  C   UNL     1       7.156  31.002  58.690  1.00  0.00     0.039 A 
HETATM   14  C   UNL     1       6.268  31.955  59.182  1.00  0.00     0.003 A 
HETATM   15  C   UNL     1       4.934  31.929  58.782  1.00  0.00     0.002 A 
HETATM   16  C   UNL     1       4.495  30.973  57.860  1.00  0.00     0.032 A 
BRANCH  12  17
HETATM   17  O   UNL     1       7.637  29.064  57.471  1.00  0.00    -0.349 OA
BRANCH  17  18
HETATM   18  C   UNL     1       8.567  29.527  56.485  1.00  0.00     0.171 C 
HETATM   19  C   UNL     1       9.969  29.203  56.964  1.00  0.00     0.034 C 
ENDBRANCH  17  18
ENDBRANCH  12  17
ENDBRANCH   8  11
ENDBRANCH   6   7
ENDBRANCH   1   6
BRANCH   5  20
HETATM   20  N   UNL     1       4.223  25.515  53.330  1.00  0.00    -0.382 N 
HETATM   21  H   UNL     1       4.188  24.688  53.940  1.00  0.00     0.157 HD
HETATM   22  H   UNL     1       3.873  25.280  52.405  1.00  0.00     0.157 HD
ENDBRANCH   5  20
BRANCH   4  23
HETATM   23  C   UNL     1       7.343  24.795  53.078  1.00  0.00     0.280 C 
HETATM   24  N   UNL     1       7.231  23.892  54.118  1.00  0.00    -0.320 N 
HETATM   25  H   UNL     1       6.859  24.310  54.968  1.00  0.00     0.169 HD
HETATM   26  O   UNL     1       7.972  24.660  52.038  1.00  0.00    -0.265 OA
BRANCH  24  27
HETATM   27  C   UNL     1       7.751  22.586  54.245  1.00  0.00     0.057 A 
HETATM   28  C   UNL     1       8.173  21.934  55.417  1.00  0.00     0.060 A 
HETATM   29 CL   UNL     1       8.379  22.708  56.948  1.00  0.00    -0.082 Cl
HETATM   30  C   UNL     1       8.620  20.604  55.358  1.00  0.00     0.026 A 
HETATM   31  C   UNL     1       8.690  19.923  54.144  1.00  0.00     0.002 A 
HETATM   32  C   UNL     1       8.332  20.574  52.972  1.00  0.00     0.002 A 
HETATM   33  C   UNL     1       7.874  21.893  53.024  1.00  0.00     0.031 A 
ENDBRANCH  24  27
ENDBRANCH   4  23
TORSDOF 8
ENDMDL
