MODEL 1
REMARK VINA RESULT:      -8.6      0.000      0.000
REMARK  7 active torsions:
REMARK  status: ('A' for Active; 'I' for Inactive)
REMARK    1  A    between atoms: C_2  and  C_3 
REMARK    2  A    between atoms: C_3  and  C_4 
REMARK    3  A    between atoms: C_7  and  C_8 
REMARK    4  A    between atoms: C_14  and  C_15 
REMARK    5  A    between atoms: C_16  and  O_17 
REMARK    6  A    between atoms: O_17  and  C_18 
REMARK       I    between atoms: C_18  and  N_19 
REMARK    7  A    between atoms: C_33  and  N_34 
ROOT
HETATM    1  C   UNL     1       5.035  25.952  50.763  1.00  0.00     0.099 A 
HETATM    2  N   UNL     1       4.245  25.162  50.012  1.00  0.00    -0.172 NA
HETATM    3  N   UNL     1       3.756  25.978  49.061  1.00  0.00    -0.256 N 
HETATM    4  H   UNL     1       3.155  25.588  48.344  1.00  0.00     0.191 HD
HETATM    5  C   UNL     1       4.186  27.257  49.193  1.00  0.00     0.175 A 
HETATM    6  C   UNL     1       4.967  27.305  50.321  1.00  0.00     0.040 A 
HETATM    7  C   UNL     1       5.611  28.594  50.721  1.00  0.00     0.108 A 
HETATM    8  C   UNL     1       5.219  29.694  49.742  1.00  0.00     0.072 A 
HETATM    9  C   UNL     1       5.661  31.096  50.127  1.00  0.00     0.021 C 
HETATM   10  N   UNL     1       6.029  32.259  50.447  1.00  0.00    -0.096 N 
HETATM   11  C   UNL     1       4.451  29.498  48.639  1.00  0.00     0.160 A 
HETATM   12  O   UNL     1       3.904  28.237  48.341  1.00  0.00    -0.274 OA
ENDROOT
BRANCH   7  13
HETATM   13  C   UNL     1       5.287  28.844  52.190  1.00  0.00    -0.010 C 
HETATM   14  C   UNL     1       4.048  29.259  52.712  1.00  0.00     0.088 C 
HETATM   15  C   UNL     1       3.828  29.309  54.100  1.00  0.00     0.038 C 
HETATM   16  C   UNL     1       4.868  29.066  54.990  1.00  0.00     0.003 C 
HETATM   17  C   UNL     1       6.129  28.764  54.501  1.00  0.00     0.001 C 
HETATM   18  C   UNL     1       6.332  28.655  53.123  1.00  0.00     0.011 C 
BRANCH  14  19
HETATM   19  O   UNL     1       3.010  29.653  51.840  1.00  0.00    -0.261 OA
BRANCH  19  20
HETATM   20  C   UNL     1       2.719  31.027  51.791  1.00  0.00     0.368 C 
HETATM   21  N   UNL     1       1.780  31.358  50.830  1.00  0.00    -0.324 N 
HETATM   22  C   UNL     1       1.184  32.696  50.859  1.00  0.00     0.154 C 
HETATM   23  C   UNL     1       1.061  30.382  50.020  1.00  0.00     0.154 C 
HETATM   24  C   UNL     1       0.813  33.180  49.454  1.00  0.00     0.187 C 
HETATM   25  O   UNL     1       0.019  32.204  48.761  1.00  0.00    -0.388 OA
HETATM   26  C   UNL     1       0.736  30.966  48.642  1.00  0.00     0.187 C 
HETATM   27  O   UNL     1       3.235  31.875  52.515  1.00  0.00    -0.238 OA
ENDBRANCH  19  20
ENDBRANCH  14  19
ENDBRANCH   7  13
BRANCH  11  28
HETATM   28  N   UNL     1       4.101  30.462  47.728  1.00  0.00    -0.379 N 
HETATM   29  H   UNL     1       4.343  30.296  46.755  1.00  0.00     0.158 HD
HETATM   30  H   UNL     1       4.250  31.411  48.055  1.00  0.00     0.158 HD
ENDBRANCH  11  28
BRANCH   1  31
HETATM   31  C   UNL     1       5.825  25.396  51.852  1.00  0.00    -0.005 A 
HETATM   32  C   UNL     1       5.219  25.057  53.066  1.00  0.00     0.014 A 
HETATM   33  C   UNL     1       5.949  24.390  54.053  1.00  0.00     0.008 A 
HETATM   34  C   UNL     1       7.298  24.062  53.850  1.00  0.00    -0.058 A 
HETATM   35  C   UNL     1       7.924  24.511  52.681  1.00  0.00     0.008 A 
HETATM   36  C   UNL     1       7.191  25.160  51.682  1.00  0.00     0.014 A 
BRANCH  34  37
HETATM   37  C   UNL     1       8.026  23.274  54.920  1.00  0.00     0.042 C 
BRANCH  37  38
HETATM   38  C   UNL     1       7.692  21.771  55.046  1.00  0.00    -0.019 C 
HETATM   39  C   UNL     1       8.457  21.085  56.183  1.00  0.00     0.010 C 
HETATM   40  C   UNL     1       8.014  21.062  53.726  1.00  0.00     0.010 C 
ENDBRANCH  37  38
ENDBRANCH  34  37
ENDBRANCH   1  31
TORSDOF 7
ENDMDL
MODEL 2
REMARK VINA RESULT:      -8.3      2.450      4.775
REMARK  7 active torsions:
REMARK  status: ('A' for Active; 'I' for Inactive)
REMARK    1  A    between atoms: C_2  and  C_3 
REMARK    2  A    between atoms: C_3  and  C_4 
REMARK    3  A    between atoms: C_7  and  C_8 
REMARK    4  A    between atoms: C_14  and  C_15 
REMARK    5  A    between atoms: C_16  and  O_17 
REMARK    6  A    between atoms: O_17  and  C_18 
REMARK       I    between atoms: C_18  and  N_19 
REMARK    7  A    between atoms: C_33  and  N_34 
ROOT
HETATM    1  C   UNL     1       4.292  28.781  52.266  1.00  0.00     0.099 A 
HETATM    2  N   UNL     1       4.673  29.702  53.170  1.00  0.00    -0.172 NA
HETATM    3  N   UNL     1       3.927  30.785  52.884  1.00  0.00    -0.256 N 
HETATM    4  H   UNL     1       4.015  31.608  53.470  1.00  0.00     0.191 HD
HETATM    5  C   UNL     1       3.109  30.595  51.820  1.00  0.00     0.175 A 
HETATM    6  C   UNL     1       3.356  29.331  51.344  1.00  0.00     0.040 A 
HETATM    7  C   UNL     1       2.579  28.817  50.174  1.00  0.00     0.108 A 
HETATM    8  C   UNL     1       1.616  29.889  49.681  1.00  0.00     0.072 A 
HETATM    9  C   UNL     1       0.888  29.564  48.386  1.00  0.00     0.021 C 
HETATM   10  N   UNL     1       0.284  29.294  47.313  1.00  0.00    -0.096 N 
HETATM   11  C   UNL     1       1.453  31.101  50.271  1.00  0.00     0.160 A 
HETATM   12  O   UNL     1       2.224  31.485  51.383  1.00  0.00    -0.274 OA
ENDROOT
BRANCH   7  13
HETATM   13  C   UNL     1       3.575  28.275  49.153  1.00  0.00    -0.010 C 
HETATM   14  C   UNL     1       4.470  29.034  48.377  1.00  0.00     0.088 C 
HETATM   15  C   UNL     1       5.446  28.410  47.580  1.00  0.00     0.038 C 
HETATM   16  C   UNL     1       5.470  27.027  47.446  1.00  0.00     0.003 C 
HETATM   17  C   UNL     1       4.528  26.259  48.113  1.00  0.00     0.001 C 
HETATM   18  C   UNL     1       3.596  26.876  48.951  1.00  0.00     0.011 C 
BRANCH  14  19
HETATM   19  O   UNL     1       4.384  30.443  48.375  1.00  0.00    -0.261 OA
BRANCH  19  20
HETATM   20  C   UNL     1       5.489  31.140  48.893  1.00  0.00     0.368 C 
HETATM   21  N   UNL     1       5.833  32.257  48.152  1.00  0.00    -0.324 N 
HETATM   22  C   UNL     1       6.776  33.220  48.727  1.00  0.00     0.154 C 
HETATM   23  C   UNL     1       5.066  32.752  47.015  1.00  0.00     0.154 C 
HETATM   24  C   UNL     1       7.611  33.909  47.644  1.00  0.00     0.187 C 
HETATM   25  O   UNL     1       6.775  34.458  46.613  1.00  0.00    -0.388 OA
HETATM   26  C   UNL     1       5.993  33.424  45.997  1.00  0.00     0.187 C 
HETATM   27  O   UNL     1       6.111  30.811  49.900  1.00  0.00    -0.238 OA
ENDBRANCH  19  20
ENDBRANCH  14  19
ENDBRANCH   7  13
BRANCH  11  28
HETATM   28  N   UNL     1       0.578  32.076  49.864  1.00  0.00    -0.379 N 
HETATM   29  H   UNL     1       0.917  32.755  49.188  1.00  0.00     0.158 HD
HETATM   30  H   UNL     1       0.010  32.458  50.613  1.00  0.00     0.158 HD
ENDBRANCH  11  28
BRANCH   1  31
HETATM   31  C   UNL     1       4.819  27.425  52.318  1.00  0.00    -0.005 A 
HETATM   32  C   UNL     1       5.963  27.080  51.591  1.00  0.00     0.014 A 
HETATM   33  C   UNL     1       6.549  25.823  51.758  1.00  0.00     0.008 A 
HETATM   34  C   UNL     1       5.996  24.884  52.642  1.00  0.00    -0.058 A 
HETATM   35  C   UNL     1       4.786  25.198  53.274  1.00  0.00     0.008 A 
HETATM   36  C   UNL     1       4.209  26.463  53.125  1.00  0.00     0.014 A 
BRANCH  34  37
HETATM   37  C   UNL     1       6.708  23.563  52.844  1.00  0.00     0.042 C 
BRANCH  37  38
HETATM   38  C   UNL     1       8.083  23.597  53.548  1.00  0.00    -0.019 C 
HETATM   39  C   UNL     1       8.735  22.214  53.648  1.00  0.00     0.010 C 
HETATM   40  C   UNL     1       7.924  24.179  54.957  1.00  0.00     0.010 C 
ENDBRANCH  37  38
ENDBRANCH  34  37
ENDBRANCH   1  31
TORSDOF 7
ENDMDL
MODEL 3
REMARK VINA RESULT:      -8.3      5.750      8.242
REMARK  7 active torsions:
REMARK  status: ('A' for Active; 'I' for Inactive)
REMARK    1  A    between atoms: C_2  and  C_3 
REMARK    2  A    between atoms: C_3  and  C_4 
REMARK    3  A    between atoms: C_7  and  C_8 
REMARK    4  A    between atoms: C_14  and  C_15 
REMARK    5  A    between atoms: C_16  and  O_17 
REMARK    6  A    between atoms: O_17  and  C_18 
REMARK       I    between atoms: C_18  and  N_19 
REMARK    7  A    between atoms: C_33  and  N_34 
ROOT
HETATM    1  C   UNL     1       8.774  30.128  57.563  1.00  0.00     0.099 A 
HETATM    2  N   UNL     1      10.014  30.644  57.492  1.00  0.00    -0.172 NA
HETATM    3  N   UNL     1      10.016  31.645  58.392  1.00  0.00    -0.256 N 
HETATM    4  H   UNL     1      10.874  32.164  58.544  1.00  0.00     0.191 HD
HETATM    5  C   UNL     1       8.820  31.798  59.011  1.00  0.00     0.175 A 
HETATM    6  C   UNL     1       7.961  30.879  58.461  1.00  0.00     0.040 A 
HETATM    7  C   UNL     1       6.555  30.788  58.962  1.00  0.00     0.108 A 
HETATM    8  C   UNL     1       6.324  31.834  60.045  1.00  0.00     0.072 A 
HETATM    9  C   UNL     1       4.886  31.971  60.520  1.00  0.00     0.021 C 
HETATM   10  N   UNL     1       3.693  32.084  60.914  1.00  0.00    -0.096 N 
HETATM   11  C   UNL     1       7.283  32.671  60.518  1.00  0.00     0.160 A 
HETATM   12  O   UNL     1       8.585  32.667  59.989  1.00  0.00    -0.274 OA
ENDROOT
BRANCH   7  13
HETATM   13  C   UNL     1       5.624  30.839  57.756  1.00  0.00    -0.010 C 
HETATM   14  C   UNL     1       5.265  31.988  57.027  1.00  0.00     0.088 C 
HETATM   15  C   UNL     1       4.518  31.889  55.840  1.00  0.00     0.038 C 
HETATM   16  C   UNL     1       4.013  30.662  55.424  1.00  0.00     0.003 C 
HETATM   17  C   UNL     1       4.259  29.529  56.183  1.00  0.00     0.001 C 
HETATM   18  C   UNL     1       5.050  29.619  57.330  1.00  0.00     0.011 C 
BRANCH  14  19
HETATM   19  O   UNL     1       5.637  33.267  57.496  1.00  0.00    -0.261 OA
BRANCH  19  20
HETATM   20  C   UNL     1       5.158  34.367  56.764  1.00  0.00     0.368 C 
HETATM   21  N   UNL     1       4.217  35.117  57.448  1.00  0.00    -0.324 N 
HETATM   22  C   UNL     1       3.847  36.432  56.922  1.00  0.00     0.154 C 
HETATM   23  C   UNL     1       3.836  34.881  58.836  1.00  0.00     0.154 C 
HETATM   24  C   UNL     1       2.395  36.786  57.255  1.00  0.00     0.187 C 
HETATM   25  O   UNL     1       2.128  36.625  58.657  1.00  0.00    -0.388 OA
HETATM   26  C   UNL     1       2.372  35.269  59.061  1.00  0.00     0.187 C 
HETATM   27  O   UNL     1       5.517  34.657  55.626  1.00  0.00    -0.238 OA
ENDBRANCH  19  20
ENDBRANCH  14  19
ENDBRANCH   7  13
BRANCH  11  28
HETATM   28  N   UNL     1       7.109  33.606  61.506  1.00  0.00    -0.379 N 
HETATM   29  H   UNL     1       6.621  33.312  62.348  1.00  0.00     0.158 HD
HETATM   30  H   UNL     1       6.860  34.528  61.163  1.00  0.00     0.158 HD
ENDBRANCH  11  28
BRANCH   1  31
HETATM   31  C   UNL     1       8.414  28.947  56.791  1.00  0.00    -0.005 A 
HETATM   32  C   UNL     1       8.245  27.711  57.424  1.00  0.00     0.014 A 
HETATM   33  C   UNL     1       7.757  26.616  56.706  1.00  0.00     0.008 A 
HETATM   34  C   UNL     1       7.443  26.732  55.344  1.00  0.00    -0.058 A 
HETATM   35  C   UNL     1       7.729  27.941  54.696  1.00  0.00     0.008 A 
HETATM   36  C   UNL     1       8.196  29.044  55.415  1.00  0.00     0.014 A 
BRANCH  34  37
HETATM   37  C   UNL     1       6.849  25.537  54.627  1.00  0.00     0.042 C 
BRANCH  37  38
HETATM   38  C   UNL     1       7.814  24.640  53.820  1.00  0.00    -0.019 C 
HETATM   39  C   UNL     1       7.824  24.972  52.324  1.00  0.00     0.010 C 
HETATM   40  C   UNL     1       7.423  23.170  54.005  1.00  0.00     0.010 C 
ENDBRANCH  37  38
ENDBRANCH  34  37
ENDBRANCH   1  31
TORSDOF 7
ENDMDL
MODEL 4
REMARK VINA RESULT:      -7.9      2.620      5.077
REMARK  7 active torsions:
REMARK  status: ('A' for Active; 'I' for Inactive)
REMARK    1  A    between atoms: C_2  and  C_3 
REMARK    2  A    between atoms: C_3  and  C_4 
REMARK    3  A    between atoms: C_7  and  C_8 
REMARK    4  A    between atoms: C_14  and  C_15 
REMARK    5  A    between atoms: C_16  and  O_17 
REMARK    6  A    between atoms: O_17  and  C_18 
REMARK       I    between atoms: C_18  and  N_19 
REMARK    7  A    between atoms: C_33  and  N_34 
ROOT
HETATM    1  C   UNL     1       3.717  29.444  51.687  1.00  0.00     0.099 A 
HETATM    2  N   UNL     1       3.904  30.556  52.421  1.00  0.00    -0.172 NA
HETATM    3  N   UNL     1       3.051  31.455  51.897  1.00  0.00    -0.256 N 
HETATM    4  H   UNL     1       2.986  32.373  52.321  1.00  0.00     0.191 HD
HETATM    5  C   UNL     1       2.350  30.964  50.845  1.00  0.00     0.175 A 
HETATM    6  C   UNL     1       2.794  29.683  50.628  1.00  0.00     0.040 A 
HETATM    7  C   UNL     1       2.185  28.864  49.535  1.00  0.00     0.108 A 
HETATM    8  C   UNL     1       1.134  29.685  48.798  1.00  0.00     0.072 A 
HETATM    9  C   UNL     1       0.558  29.035  47.550  1.00  0.00     0.021 C 
HETATM   10  N   UNL     1       0.081  28.496  46.515  1.00  0.00    -0.096 N 
HETATM   11  C   UNL     1       0.771  30.948  49.141  1.00  0.00     0.160 A 
HETATM   12  O   UNL     1       1.396  31.628  50.201  1.00  0.00    -0.274 OA
ENDROOT
BRANCH   7  13
HETATM   13  C   UNL     1       3.319  28.294  48.690  1.00  0.00    -0.010 C 
HETATM   14  C   UNL     1       4.330  29.030  48.046  1.00  0.00     0.088 C 
HETATM   15  C   UNL     1       5.410  28.382  47.420  1.00  0.00     0.038 C 
HETATM   16  C   UNL     1       5.440  26.996  47.318  1.00  0.00     0.003 C 
HETATM   17  C   UNL     1       4.398  26.250  47.847  1.00  0.00     0.001 C 
HETATM   18  C   UNL     1       3.356  26.891  48.521  1.00  0.00     0.011 C 
BRANCH  14  19
HETATM   19  O   UNL     1       4.261  30.439  48.003  1.00  0.00    -0.261 OA
BRANCH  19  20
HETATM   20  C   UNL     1       3.969  31.016  46.755  1.00  0.00     0.368 C 
HETATM   21  N   UNL     1       4.655  32.194  46.517  1.00  0.00    -0.324 N 
HETATM   22  C   UNL     1       4.659  32.745  45.160  1.00  0.00     0.154 C 
HETATM   23  C   UNL     1       5.676  32.738  47.405  1.00  0.00     0.154 C 
HETATM   24  C   UNL     1       4.748  34.273  45.171  1.00  0.00     0.187 C 
HETATM   25  O   UNL     1       5.842  34.726  45.986  1.00  0.00    -0.388 OA
HETATM   26  C   UNL     1       5.683  34.268  47.337  1.00  0.00     0.187 C 
HETATM   27  O   UNL     1       3.182  30.545  45.937  1.00  0.00    -0.238 OA
ENDBRANCH  19  20
ENDBRANCH  14  19
ENDBRANCH   7  13
BRANCH  11  28
HETATM   28  N   UNL     1      -0.186  31.702  48.511  1.00  0.00    -0.379 N 
HETATM   29  H   UNL     1       0.061  32.120  47.618  1.00  0.00     0.158 HD
HETATM   30  H   UNL     1      -0.717  32.300  49.136  1.00  0.00     0.158 HD
ENDBRANCH  11  28
BRANCH   1  31
HETATM   31  C   UNL     1       4.408  28.206  52.021  1.00  0.00    -0.005 A 
HETATM   32  C   UNL     1       4.052  27.482  53.164  1.00  0.00     0.014 A 
HETATM   33  C   UNL     1       4.614  26.225  53.401  1.00  0.00     0.008 A 
HETATM   34  C   UNL     1       5.548  25.676  52.510  1.00  0.00    -0.058 A 
HETATM   35  C   UNL     1       5.983  26.460  51.434  1.00  0.00     0.008 A 
HETATM   36  C   UNL     1       5.408  27.709  51.182  1.00  0.00     0.014 A 
BRANCH  34  37
HETATM   37  C   UNL     1       6.073  24.279  52.772  1.00  0.00     0.042 C 
BRANCH  37  38
HETATM   38  C   UNL     1       7.530  24.149  53.267  1.00  0.00    -0.019 C 
HETATM   39  C   UNL     1       8.120  22.756  53.019  1.00  0.00     0.010 C 
HETATM   40  C   UNL     1       7.593  24.460  54.766  1.00  0.00     0.010 C 
ENDBRANCH  37  38
ENDBRANCH  34  37
ENDBRANCH   1  31
TORSDOF 7
ENDMDL
MODEL 5
REMARK VINA RESULT:      -7.8      2.342      5.229
REMARK  7 active torsions:
REMARK  status: ('A' for Active; 'I' for Inactive)
REMARK    1  A    between atoms: C_2  and  C_3 
REMARK    2  A    between atoms: C_3  and  C_4 
REMARK    3  A    between atoms: C_7  and  C_8 
REMARK    4  A    between atoms: C_14  and  C_15 
REMARK    5  A    between atoms: C_16  and  O_17 
REMARK    6  A    between atoms: O_17  and  C_18 
REMARK       I    between atoms: C_18  and  N_19 
REMARK    7  A    between atoms: C_33  and  N_34 
ROOT
HETATM    1  C   UNL     1       4.791  29.866  54.618  1.00  0.00     0.099 A 
HETATM    2  N   UNL     1       5.212  30.150  55.864  1.00  0.00    -0.172 NA
HETATM    3  N   UNL     1       4.549  31.272  56.197  1.00  0.00    -0.256 N 
HETATM    4  H   UNL     1       4.679  31.660  57.125  1.00  0.00     0.191 HD
HETATM    5  C   UNL     1       3.744  31.723  55.203  1.00  0.00     0.175 A 
HETATM    6  C   UNL     1       3.915  30.879  54.133  1.00  0.00     0.040 A 
HETATM    7  C   UNL     1       3.133  31.108  52.879  1.00  0.00     0.108 A 
HETATM    8  C   UNL     1       2.256  32.343  53.035  1.00  0.00     0.072 A 
HETATM    9  C   UNL     1       1.537  32.794  51.773  1.00  0.00     0.021 C 
HETATM   10  N   UNL     1       0.941  33.167  50.726  1.00  0.00    -0.096 N 
HETATM   11  C   UNL     1       2.162  33.077  54.174  1.00  0.00     0.160 A 
HETATM   12  O   UNL     1       2.932  32.769  55.309  1.00  0.00    -0.274 OA
ENDROOT
BRANCH   7  13
HETATM   13  C   UNL     1       4.112  31.110  51.710  1.00  0.00    -0.010 C 
HETATM   14  C   UNL     1       4.229  30.118  50.719  1.00  0.00     0.088 C 
HETATM   15  C   UNL     1       5.066  30.304  49.605  1.00  0.00     0.038 C 
HETATM   16  C   UNL     1       5.890  31.420  49.518  1.00  0.00     0.003 C 
HETATM   17  C   UNL     1       5.877  32.360  50.537  1.00  0.00     0.001 C 
HETATM   18  C   UNL     1       5.002  32.204  51.615  1.00  0.00     0.011 C 
BRANCH  14  19
HETATM   19  O   UNL     1       3.516  28.906  50.844  1.00  0.00    -0.261 OA
BRANCH  19  20
HETATM   20  C   UNL     1       2.497  28.678  49.903  1.00  0.00     0.368 C 
HETATM   21  N   UNL     1       2.783  27.654  49.018  1.00  0.00    -0.324 N 
HETATM   22  C   UNL     1       1.705  27.130  48.175  1.00  0.00     0.154 C 
HETATM   23  C   UNL     1       3.961  26.801  49.108  1.00  0.00     0.154 C 
HETATM   24  C   UNL     1       2.233  26.627  46.830  1.00  0.00     0.187 C 
HETATM   25  O   UNL     1       3.327  25.712  47.009  1.00  0.00    -0.388 OA
HETATM   26  C   UNL     1       4.404  26.351  47.712  1.00  0.00     0.187 C 
HETATM   27  O   UNL     1       1.447  29.313  49.846  1.00  0.00    -0.238 OA
ENDBRANCH  19  20
ENDBRANCH  14  19
ENDBRANCH   7  13
BRANCH  11  28
HETATM   28  N   UNL     1       1.365  34.179  54.350  1.00  0.00    -0.379 N 
HETATM   29  H   UNL     1       1.443  34.927  53.665  1.00  0.00     0.158 HD
HETATM   30  H   UNL     1       1.289  34.483  55.315  1.00  0.00     0.158 HD
ENDBRANCH  11  28
BRANCH   1  31
HETATM   31  C   UNL     1       5.224  28.648  53.945  1.00  0.00    -0.005 A 
HETATM   32  C   UNL     1       6.565  28.473  53.591  1.00  0.00     0.014 A 
HETATM   33  C   UNL     1       7.001  27.247  53.081  1.00  0.00     0.008 A 
HETATM   34  C   UNL     1       6.105  26.183  52.904  1.00  0.00    -0.058 A 
HETATM   35  C   UNL     1       4.745  26.409  53.151  1.00  0.00     0.008 A 
HETATM   36  C   UNL     1       4.309  27.627  53.681  1.00  0.00     0.014 A 
BRANCH  34  37
HETATM   37  C   UNL     1       6.640  24.852  52.417  1.00  0.00     0.042 C 
BRANCH  37  38
HETATM   38  C   UNL     1       6.828  23.734  53.468  1.00  0.00    -0.019 C 
HETATM   39  C   UNL     1       6.985  24.277  54.892  1.00  0.00     0.010 C 
HETATM   40  C   UNL     1       8.062  22.898  53.111  1.00  0.00     0.010 C 
ENDBRANCH  37  38
ENDBRANCH  34  37
ENDBRANCH   1  31
TORSDOF 7
ENDMDL
MODEL 6
REMARK VINA RESULT:      -7.5      9.656     12.956
REMARK  7 active torsions:
REMARK  status: ('A' for Active; 'I' for Inactive)
REMARK    1  A    between atoms: C_2  and  C_3 
REMARK    2  A    between atoms: C_3  and  C_4 
REMARK    3  A    between atoms: C_7  and  C_8 
REMARK    4  A    between atoms: C_14  and  C_15 
REMARK    5  A    between atoms: C_16  and  O_17 
REMARK    6  A    between atoms: O_17  and  C_18 
REMARK       I    between atoms: C_18  and  N_19 
REMARK    7  A    between atoms: C_33  and  N_34 
ROOT
HETATM    1  C   UNL     1       6.237  32.617  59.940  1.00  0.00     0.099 A 
HETATM    2  N   UNL     1       7.537  32.455  59.631  1.00  0.00    -0.172 NA
HETATM    3  N   UNL     1       8.184  32.607  60.800  1.00  0.00    -0.256 N 
HETATM    4  H   UNL     1       9.191  32.487  60.821  1.00  0.00     0.191 HD
HETATM    5  C   UNL     1       7.349  32.883  61.832  1.00  0.00     0.175 A 
HETATM    6  C   UNL     1       6.081  32.964  61.313  1.00  0.00     0.040 A 
HETATM    7  C   UNL     1       4.926  33.238  62.223  1.00  0.00     0.108 A 
HETATM    8  C   UNL     1       5.424  33.418  63.651  1.00  0.00     0.072 A 
HETATM    9  C   UNL     1       4.375  33.875  64.653  1.00  0.00     0.021 C 
HETATM   10  N   UNL     1       3.505  34.254  65.483  1.00  0.00    -0.096 N 
HETATM   11  C   UNL     1       6.720  33.282  64.032  1.00  0.00     0.160 A 
HETATM   12  O   UNL     1       7.734  33.006  63.098  1.00  0.00    -0.274 OA
ENDROOT
BRANCH   7  13
HETATM   13  C   UNL     1       4.126  34.392  61.629  1.00  0.00    -0.010 C 
HETATM   14  C   UNL     1       4.555  35.727  61.505  1.00  0.00     0.088 C 
HETATM   15  C   UNL     1       3.787  36.672  60.802  1.00  0.00     0.038 C 
HETATM   16  C   UNL     1       2.526  36.339  60.319  1.00  0.00     0.003 C 
HETATM   17  C   UNL     1       2.031  35.061  60.525  1.00  0.00     0.001 C 
HETATM   18  C   UNL     1       2.820  34.106  61.171  1.00  0.00     0.011 C 
BRANCH  14  19
HETATM   19  O   UNL     1       5.764  36.140  62.106  1.00  0.00    -0.261 OA
BRANCH  19  20
HETATM   20  C   UNL     1       5.659  37.088  63.139  1.00  0.00     0.368 C 
HETATM   21  N   UNL     1       6.190  38.323  62.810  1.00  0.00    -0.324 N 
HETATM   22  C   UNL     1       5.900  39.467  63.677  1.00  0.00     0.154 C 
HETATM   23  C   UNL     1       6.701  38.666  61.489  1.00  0.00     0.154 C 
HETATM   24  C   UNL     1       7.049  40.479  63.680  1.00  0.00     0.187 C 
HETATM   25  O   UNL     1       7.425  40.844  62.342  1.00  0.00    -0.388 OA
HETATM   26  C   UNL     1       7.841  39.684  61.605  1.00  0.00     0.187 C 
HETATM   27  O   UNL     1       5.154  36.869  64.237  1.00  0.00    -0.238 OA
ENDBRANCH  19  20
ENDBRANCH  14  19
ENDBRANCH   7  13
BRANCH  11  28
HETATM   28  N   UNL     1       7.194  33.416  65.313  1.00  0.00    -0.379 N 
HETATM   29  H   UNL     1       8.180  33.224  65.469  1.00  0.00     0.158 HD
HETATM   30  H   UNL     1       6.566  33.056  66.024  1.00  0.00     0.158 HD
ENDBRANCH  11  28
BRANCH   1  31
HETATM   31  C   UNL     1       5.202  32.428  58.933  1.00  0.00    -0.005 A 
HETATM   32  C   UNL     1       4.962  33.413  57.970  1.00  0.00     0.014 A 
HETATM   33  C   UNL     1       4.073  33.166  56.920  1.00  0.00     0.008 A 
HETATM   34  C   UNL     1       3.401  31.939  56.821  1.00  0.00    -0.058 A 
HETATM   35  C   UNL     1       3.561  31.007  57.855  1.00  0.00     0.008 A 
HETATM   36  C   UNL     1       4.465  31.242  58.895  1.00  0.00     0.014 A 
BRANCH  34  37
HETATM   37  C   UNL     1       2.505  31.692  55.626  1.00  0.00     0.042 C 
BRANCH  37  38
HETATM   38  C   UNL     1       3.144  31.035  54.382  1.00  0.00    -0.019 C 
HETATM   39  C   UNL     1       4.474  30.340  54.693  1.00  0.00     0.010 C 
HETATM   40  C   UNL     1       3.374  32.098  53.302  1.00  0.00     0.010 C 
ENDBRANCH  37  38
ENDBRANCH  34  37
ENDBRANCH   1  31
TORSDOF 7
ENDMDL
MODEL 7
REMARK VINA RESULT:      -7.2      5.994      8.495
REMARK  7 active torsions:
REMARK  status: ('A' for Active; 'I' for Inactive)
REMARK    1  A    between atoms: C_2  and  C_3 
REMARK    2  A    between atoms: C_3  and  C_4 
REMARK    3  A    between atoms: C_7  and  C_8 
REMARK    4  A    between atoms: C_14  and  C_15 
REMARK    5  A    between atoms: C_16  and  O_17 
REMARK    6  A    between atoms: O_17  and  C_18 
REMARK       I    between atoms: C_18  and  N_19 
REMARK    7  A    between atoms: C_33  and  N_34 
ROOT
HETATM    1  C   UNL     1       6.979  30.356  57.807  1.00  0.00     0.099 A 
HETATM    2  N   UNL     1       8.310  30.489  57.956  1.00  0.00    -0.172 NA
HETATM    3  N   UNL     1       8.452  31.419  58.918  1.00  0.00    -0.256 N 
HETATM    4  H   UNL     1       9.385  31.660  59.232  1.00  0.00     0.191 HD
HETATM    5  C   UNL     1       7.265  31.897  59.366  1.00  0.00     0.175 A 
HETATM    6  C   UNL     1       6.280  31.285  58.630  1.00  0.00     0.040 A 
HETATM    7  C   UNL     1       4.845  31.595  58.913  1.00  0.00     0.108 A 
HETATM    8  C   UNL     1       4.749  32.632  60.025  1.00  0.00     0.072 A 
HETATM    9  C   UNL     1       3.352  33.169  60.294  1.00  0.00     0.021 C 
HETATM   10  N   UNL     1       2.194  33.615  60.517  1.00  0.00    -0.096 N 
HETATM   11  C   UNL     1       5.817  33.138  60.693  1.00  0.00     0.160 A 
HETATM   12  O   UNL     1       7.132  32.769  60.361  1.00  0.00    -0.274 OA
ENDROOT
BRANCH   7  13
HETATM   13  C   UNL     1       4.174  31.950  57.591  1.00  0.00    -0.010 C 
HETATM   14  C   UNL     1       4.359  33.135  56.853  1.00  0.00     0.088 C 
HETATM   15  C   UNL     1       3.801  33.284  55.571  1.00  0.00     0.038 C 
HETATM   16  C   UNL     1       2.951  32.312  55.053  1.00  0.00     0.003 C 
HETATM   17  C   UNL     1       2.662  31.185  55.806  1.00  0.00     0.001 C 
HETATM   18  C   UNL     1       3.264  31.010  57.054  1.00  0.00     0.011 C 
BRANCH  14  19
HETATM   19  O   UNL     1       5.097  34.203  57.406  1.00  0.00    -0.261 OA
BRANCH  19  20
HETATM   20  C   UNL     1       5.109  35.403  56.673  1.00  0.00     0.368 C 
HETATM   21  N   UNL     1       4.349  36.407  57.247  1.00  0.00    -0.324 N 
HETATM   22  C   UNL     1       4.497  37.775  56.746  1.00  0.00     0.154 C 
HETATM   23  C   UNL     1       3.694  36.296  58.545  1.00  0.00     0.154 C 
HETATM   24  C   UNL     1       3.193  38.568  56.874  1.00  0.00     0.187 C 
HETATM   25  O   UNL     1       2.666  38.491  58.208  1.00  0.00    -0.388 OA
HETATM   26  C   UNL     1       2.407  37.126  58.567  1.00  0.00     0.187 C 
HETATM   27  O   UNL     1       5.720  35.571  55.621  1.00  0.00    -0.238 OA
ENDBRANCH  19  20
ENDBRANCH  14  19
ENDBRANCH   7  13
BRANCH  11  28
HETATM   28  N   UNL     1       5.759  34.054  61.712  1.00  0.00    -0.379 N 
HETATM   29  H   UNL     1       6.121  33.769  62.619  1.00  0.00     0.158 HD
HETATM   30  H   UNL     1       4.896  34.587  61.740  1.00  0.00     0.158 HD
ENDBRANCH  11  28
BRANCH   1  31
HETATM   31  C   UNL     1       6.428  29.354  56.906  1.00  0.00    -0.005 A 
HETATM   32  C   UNL     1       6.482  29.540  55.521  1.00  0.00     0.014 A 
HETATM   33  C   UNL     1       6.086  28.514  54.659  1.00  0.00     0.008 A 
HETATM   34  C   UNL     1       5.618  27.292  55.164  1.00  0.00    -0.058 A 
HETATM   35  C   UNL     1       5.457  27.162  56.549  1.00  0.00     0.008 A 
HETATM   36  C   UNL     1       5.872  28.179  57.415  1.00  0.00     0.014 A 
BRANCH  34  37
HETATM   37  C   UNL     1       5.270  26.185  54.190  1.00  0.00     0.042 C 
BRANCH  37  38
HETATM   38  C   UNL     1       6.135  24.905  54.231  1.00  0.00    -0.019 C 
HETATM   39  C   UNL     1       7.590  25.183  54.622  1.00  0.00     0.010 C 
HETATM   40  C   UNL     1       6.106  24.223  52.859  1.00  0.00     0.010 C 
ENDBRANCH  37  38
ENDBRANCH  34  37
ENDBRANCH   1  31
TORSDOF 7
ENDMDL
MODEL 8
REMARK VINA RESULT:      -7.1      7.258     10.293
REMARK  7 active torsions:
REMARK  status: ('A' for Active; 'I' for Inactive)
REMARK    1  A    between atoms: C_2  and  C_3 
REMARK    2  A    between atoms: C_3  and  C_4 
REMARK    3  A    between atoms: C_7  and  C_8 
REMARK    4  A    between atoms: C_14  and  C_15 
REMARK    5  A    between atoms: C_16  and  O_17 
REMARK    6  A    between atoms: O_17  and  C_18 
REMARK       I    between atoms: C_18  and  N_19 
REMARK    7  A    between atoms: C_33  and  N_34 
ROOT
HETATM    1  C   UNL     1       3.582  32.424  59.635  1.00  0.00     0.099 A 
HETATM    2  N   UNL     1       3.082  31.205  59.912  1.00  0.00    -0.172 NA
HETATM    3  N   UNL     1       3.204  30.520  58.760  1.00  0.00    -0.256 N 
HETATM    4  H   UNL     1       2.923  29.546  58.739  1.00  0.00     0.191 HD
HETATM    5  C   UNL     1       3.738  31.263  57.760  1.00  0.00     0.175 A 
HETATM    6  C   UNL     1       3.941  32.526  58.260  1.00  0.00     0.040 A 
HETATM    7  C   UNL     1       4.548  33.578  57.388  1.00  0.00     0.108 A 
HETATM    8  C   UNL     1       4.815  33.009  56.000  1.00  0.00     0.072 A 
HETATM    9  C   UNL     1       5.270  34.019  54.959  1.00  0.00     0.021 C 
HETATM   10  N   UNL     1       5.648  34.857  54.096  1.00  0.00    -0.096 N 
HETATM   11  C   UNL     1       4.588  31.717  55.646  1.00  0.00     0.160 A 
HETATM   12  O   UNL     1       4.026  30.797  56.549  1.00  0.00    -0.274 OA
ENDROOT
BRANCH   7  13
HETATM   13  C   UNL     1       3.659  34.815  57.458  1.00  0.00    -0.010 C 
HETATM   14  C   UNL     1       2.329  34.912  57.009  1.00  0.00     0.088 C 
HETATM   15  C   UNL     1       1.561  36.061  57.265  1.00  0.00     0.038 C 
HETATM   16  C   UNL     1       2.137  37.177  57.861  1.00  0.00     0.003 C 
HETATM   17  C   UNL     1       3.477  37.149  58.213  1.00  0.00     0.001 C 
HETATM   18  C   UNL     1       4.224  35.986  58.013  1.00  0.00     0.011 C 
BRANCH  14  19
HETATM   19  O   UNL     1       1.753  33.854  56.272  1.00  0.00    -0.261 OA
BRANCH  19  20
HETATM   20  C   UNL     1       1.395  34.137  54.942  1.00  0.00     0.368 C 
HETATM   21  N   UNL     1       0.038  34.023  54.700  1.00  0.00    -0.324 N 
HETATM   22  C   UNL     1      -0.500  34.555  53.446  1.00  0.00     0.154 C 
HETATM   23  C   UNL     1      -0.957  33.758  55.732  1.00  0.00     0.154 C 
HETATM   24  C   UNL     1      -1.717  33.757  52.970  1.00  0.00     0.187 C 
HETATM   25  O   UNL     1      -2.696  33.628  54.014  1.00  0.00    -0.388 OA
HETATM   26  C   UNL     1      -2.130  32.961  55.152  1.00  0.00     0.187 C 
HETATM   27  O   UNL     1       2.189  34.453  54.060  1.00  0.00    -0.238 OA
ENDBRANCH  19  20
ENDBRANCH  14  19
ENDBRANCH   7  13
BRANCH  11  28
HETATM   28  N   UNL     1       4.839  31.172  54.413  1.00  0.00    -0.379 N 
HETATM   29  H   UNL     1       5.810  30.989  54.171  1.00  0.00     0.158 HD
HETATM   30  H   UNL     1       4.274  31.563  53.666  1.00  0.00     0.158 HD
ENDBRANCH  11  28
BRANCH   1  31
HETATM   31  C   UNL     1       3.709  33.432  60.678  1.00  0.00    -0.005 A 
HETATM   32  C   UNL     1       2.572  33.948  61.307  1.00  0.00     0.014 A 
HETATM   33  C   UNL     1       2.703  34.803  62.405  1.00  0.00     0.008 A 
HETATM   34  C   UNL     1       3.971  35.166  62.884  1.00  0.00    -0.058 A 
HETATM   35  C   UNL     1       5.099  34.737  62.175  1.00  0.00     0.008 A 
HETATM   36  C   UNL     1       4.971  33.865  61.089  1.00  0.00     0.014 A 
BRANCH  34  37
HETATM   37  C   UNL     1       4.061  36.035  64.122  1.00  0.00     0.042 C 
BRANCH  37  38
HETATM   38  C   UNL     1       4.705  35.414  65.381  1.00  0.00    -0.019 C 
HETATM   39  C   UNL     1       4.479  33.901  65.481  1.00  0.00     0.010 C 
HETATM   40  C   UNL     1       4.137  36.089  66.634  1.00  0.00     0.010 C 
ENDBRANCH  37  38
ENDBRANCH  34  37
ENDBRANCH   1  31
TORSDOF 7
ENDMDL
MODEL 9
REMARK VINA RESULT:      -7.0      6.471      9.167
REMARK  7 active torsions:
REMARK  status: ('A' for Active; 'I' for Inactive)
REMARK    1  A    between atoms: C_2  and  C_3 
REMARK    2  A    between atoms: C_3  and  C_4 
REMARK    3  A    between atoms: C_7  and  C_8 
REMARK    4  A    between atoms: C_14  and  C_15 
REMARK    5  A    between atoms: C_16  and  O_17 
REMARK    6  A    between atoms: O_17  and  C_18 
REMARK       I    between atoms: C_18  and  N_19 
REMARK    7  A    between atoms: C_33  and  N_34 
ROOT
HETATM    1  C   UNL     1       3.815  31.711  58.102  1.00  0.00     0.099 A 
HETATM    2  N   UNL     1       3.336  30.467  58.288  1.00  0.00    -0.172 NA
HETATM    3  N   UNL     1       2.916  30.080  57.070  1.00  0.00    -0.256 N 
HETATM    4  H   UNL     1       2.546  29.144  56.955  1.00  0.00     0.191 HD
HETATM    5  C   UNL     1       3.088  31.037  56.125  1.00  0.00     0.175 A 
HETATM    6  C   UNL     1       3.609  32.139  56.759  1.00  0.00     0.040 A 
HETATM    7  C   UNL     1       3.933  33.364  55.965  1.00  0.00     0.108 A 
HETATM    8  C   UNL     1       3.564  33.145  54.503  1.00  0.00     0.072 A 
HETATM    9  C   UNL     1       3.677  34.373  53.613  1.00  0.00     0.021 C 
HETATM   10  N   UNL     1       3.772  35.391  52.875  1.00  0.00    -0.096 N 
HETATM   11  C   UNL     1       3.077  31.981  54.002  1.00  0.00     0.160 A 
HETATM   12  O   UNL     1       2.821  30.876  54.833  1.00  0.00    -0.274 OA
ENDROOT
BRANCH   7  13
HETATM   13  C   UNL     1       3.285  34.557  56.659  1.00  0.00    -0.010 C 
HETATM   14  C   UNL     1       1.907  34.833  56.729  1.00  0.00     0.088 C 
HETATM   15  C   UNL     1       1.419  35.883  57.528  1.00  0.00     0.038 C 
HETATM   16  C   UNL     1       2.297  36.749  58.171  1.00  0.00     0.003 C 
HETATM   17  C   UNL     1       3.663  36.566  58.028  1.00  0.00     0.001 C 
HETATM   18  C   UNL     1       4.147  35.488  57.283  1.00  0.00     0.011 C 
BRANCH  14  19
HETATM   19  O   UNL     1       0.992  34.065  55.977  1.00  0.00    -0.261 OA
BRANCH  19  20
HETATM   20  C   UNL     1       0.190  34.766  55.059  1.00  0.00     0.368 C 
HETATM   21  N   UNL     1      -1.152  34.440  55.139  1.00  0.00    -0.324 N 
HETATM   22  C   UNL     1      -2.125  35.287  54.446  1.00  0.00     0.154 C 
HETATM   23  C   UNL     1      -1.719  33.554  56.149  1.00  0.00     0.154 C 
HETATM   24  C   UNL     1      -3.343  34.485  53.980  1.00  0.00     0.187 C 
HETATM   25  O   UNL     1      -3.904  33.718  55.057  1.00  0.00    -0.388 OA
HETATM   26  C   UNL     1      -2.929  32.804  55.583  1.00  0.00     0.187 C 
HETATM   27  O   UNL     1       0.612  35.589  54.251  1.00  0.00    -0.238 OA
ENDBRANCH  19  20
ENDBRANCH  14  19
ENDBRANCH   7  13
BRANCH  11  28
HETATM   28  N   UNL     1       2.758  31.748  52.689  1.00  0.00    -0.379 N 
HETATM   29  H   UNL     1       3.510  31.807  52.007  1.00  0.00     0.158 HD
HETATM   30  H   UNL     1       1.878  32.161  52.399  1.00  0.00     0.158 HD
ENDBRANCH  11  28
BRANCH   1  31
HETATM   31  C   UNL     1       4.454  32.434  59.192  1.00  0.00    -0.005 A 
HETATM   32  C   UNL     1       3.695  33.232  60.054  1.00  0.00     0.014 A 
HETATM   33  C   UNL     1       4.286  33.805  61.183  1.00  0.00     0.008 A 
HETATM   34  C   UNL     1       5.646  33.602  61.464  1.00  0.00    -0.058 A 
HETATM   35  C   UNL     1       6.420  32.900  60.531  1.00  0.00     0.008 A 
HETATM   36  C   UNL     1       5.827  32.308  59.411  1.00  0.00     0.014 A 
BRANCH  34  37
HETATM   37  C   UNL     1       6.223  34.182  62.738  1.00  0.00     0.042 C 
BRANCH  37  38
HETATM   38  C   UNL     1       6.194  33.293  64.001  1.00  0.00    -0.019 C 
HETATM   39  C   UNL     1       4.950  33.527  64.866  1.00  0.00     0.010 C 
HETATM   40  C   UNL     1       7.447  33.557  64.843  1.00  0.00     0.010 C 
ENDBRANCH  37  38
ENDBRANCH  34  37
ENDBRANCH   1  31
TORSDOF 7
ENDMDL
MODEL 10
REMARK VINA RESULT:      -6.9     15.663     17.616
REMARK  7 active torsions:
REMARK  status: ('A' for Active; 'I' for Inactive)
REMARK    1  A    between atoms: C_2  and  C_3 
REMARK    2  A    between atoms: C_3  and  C_4 
REMARK    3  A    between atoms: C_7  and  C_8 
REMARK    4  A    between atoms: C_14  and  C_15 
REMARK    5  A    between atoms: C_16  and  O_17 
REMARK    6  A    between atoms: O_17  and  C_18 
REMARK       I    between atoms: C_18  and  N_19 
REMARK    7  A    between atoms: C_33  and  N_34 
ROOT
HETATM    1  C   UNL     1      21.056  33.917  51.071  1.00  0.00     0.099 A 
HETATM    2  N   UNL     1      21.349  35.110  51.621  1.00  0.00    -0.172 NA
HETATM    3  N   UNL     1      20.379  35.932  51.182  1.00  0.00    -0.256 N 
HETATM    4  H   UNL     1      20.370  36.893  51.505  1.00  0.00     0.191 HD
HETATM    5  C   UNL     1      19.498  35.314  50.357  1.00  0.00     0.175 A 
HETATM    6  C   UNL     1      19.932  34.021  50.202  1.00  0.00     0.040 A 
HETATM    7  C   UNL     1      19.144  33.074  49.354  1.00  0.00     0.108 A 
HETATM    8  C   UNL     1      17.940  33.792  48.758  1.00  0.00     0.072 A 
HETATM    9  C   UNL     1      17.147  32.994  47.735  1.00  0.00     0.021 C 
HETATM   10  N   UNL     1      16.490  32.332  46.886  1.00  0.00    -0.096 N 
HETATM   11  C   UNL     1      17.611  35.083  49.022  1.00  0.00     0.160 A 
HETATM   12  O   UNL     1      18.413  35.889  49.849  1.00  0.00    -0.274 OA
ENDROOT
BRANCH   7  13
HETATM   13  C   UNL     1      20.104  32.419  48.367  1.00  0.00    -0.010 C 
HETATM   14  C   UNL     1      20.721  33.042  47.266  1.00  0.00     0.088 C 
HETATM   15  C   UNL     1      21.705  32.376  46.516  1.00  0.00     0.038 C 
HETATM   16  C   UNL     1      22.005  31.042  46.769  1.00  0.00     0.003 C 
HETATM   17  C   UNL     1      21.331  30.370  47.777  1.00  0.00     0.001 C 
HETATM   18  C   UNL     1      20.396  31.050  48.561  1.00  0.00     0.011 C 
BRANCH  14  19
HETATM   19  O   UNL     1      20.340  34.348  46.888  1.00  0.00    -0.261 OA
BRANCH  19  20
HETATM   20  C   UNL     1      21.187  35.392  47.298  1.00  0.00     0.368 C 
HETATM   21  N   UNL     1      20.714  36.649  46.965  1.00  0.00    -0.324 N 
HETATM   22  C   UNL     1      21.348  37.823  47.569  1.00  0.00     0.154 C 
HETATM   23  C   UNL     1      19.411  36.898  46.360  1.00  0.00     0.154 C 
HETATM   24  C   UNL     1      21.298  39.035  46.636  1.00  0.00     0.187 C 
HETATM   25  O   UNL     1      19.962  39.275  46.164  1.00  0.00    -0.388 OA
HETATM   26  C   UNL     1      19.470  38.130  45.452  1.00  0.00     0.187 C 
HETATM   27  O   UNL     1      22.251  35.234  47.890  1.00  0.00    -0.238 OA
ENDBRANCH  19  20
ENDBRANCH  14  19
ENDBRANCH   7  13
BRANCH  11  28
HETATM   28  N   UNL     1      16.522  35.748  48.519  1.00  0.00    -0.379 N 
HETATM   29  H   UNL     1      15.984  35.282  47.793  1.00  0.00     0.158 HD
HETATM   30  H   UNL     1      16.677  36.740  48.372  1.00  0.00     0.158 HD
ENDBRANCH  11  28
BRANCH   1  31
HETATM   31  C   UNL     1      21.840  32.734  51.396  1.00  0.00    -0.005 A 
HETATM   32  C   UNL     1      21.297  31.720  52.191  1.00  0.00     0.014 A 
HETATM   33  C   UNL     1      21.997  30.524  52.378  1.00  0.00     0.008 A 
HETATM   34  C   UNL     1      23.253  30.327  51.786  1.00  0.00    -0.058 A 
HETATM   35  C   UNL     1      23.837  31.394  51.092  1.00  0.00     0.008 A 
HETATM   36  C   UNL     1      23.131  32.583  50.885  1.00  0.00     0.014 A 
BRANCH  34  37
HETATM   37  C   UNL     1      23.938  28.987  51.958  1.00  0.00     0.042 C 
BRANCH  37  38
HETATM   38  C   UNL     1      23.285  27.763  51.279  1.00  0.00    -0.019 C 
HETATM   39  C   UNL     1      24.101  26.478  51.458  1.00  0.00     0.010 C 
HETATM   40  C   UNL     1      23.109  28.040  49.782  1.00  0.00     0.010 C 
ENDBRANCH  37  38
ENDBRANCH  34  37
ENDBRANCH   1  31
TORSDOF 7
ENDMDL
