MODEL 1
REMARK VINA RESULT:      -8.7      0.000      0.000
REMARK  9 active torsions:
REMARK  status: ('A' for Active; 'I' for Inactive)
REMARK    1  A    between atoms: C_2  and  C_3 
REMARK    2  A    between atoms: C_7  and  C_8 
REMARK    3  A    between atoms: C_8  and  C_9 
REMARK       I    between atoms: C_9  and  N_10 
REMARK    4  A    between atoms: N_10  and  C_11 
REMARK    5  A    between atoms: C_11  and  C_12 
REMARK    6  A    between atoms: C_12  and  C_13 
REMARK    7  A    between atoms: C_21  and  C_22 
REMARK    8  A    between atoms: C_32  and  C_33 
REMARK    9  A    between atoms: C_33  and  O_34 
ROOT
HETATM    1  C   UNL     1       7.059  29.753  58.031  1.00  0.00     0.051 C 
HETATM    2  N   UNL     1       6.131  30.730  57.730  1.00  0.00    -0.228 NA
HETATM    3  C   UNL     1       5.557  30.672  56.578  1.00  0.00     0.170 C 
HETATM    4  N   UNL     1       5.544  29.411  55.630  1.00  0.00    -0.318 N 
HETATM    5  C   UNL     1       4.692  29.627  54.677  1.00  0.00     0.011 C 
HETATM    6  C   UNL     1       6.115  28.230  56.311  1.00  0.00     0.166 C 
HETATM    7  S   UNL     1       4.594  31.976  55.948  1.00  0.00    -0.086 SA
HETATM    8  C   UNL     1       4.425  31.086  54.379  1.00  0.00     0.135 C 
HETATM    9  C   UNL     1       7.207  28.661  57.250  1.00  0.00     0.069 C 
ENDROOT
BRANCH   5  10
HETATM   10  C   UNL     1       3.782  28.558  54.138  1.00  0.00     0.156 C 
BRANCH  10  11
HETATM   11  C   UNL     1       3.901  28.578  52.625  1.00  0.00     0.222 C 
HETATM   12  N   UNL     1       5.154  28.392  52.102  1.00  0.00    -0.361 N 
HETATM   13  H   UNL     1       5.884  27.992  52.687  1.00  0.00     0.162 HD
HETATM   14  O   UNL     1       2.915  28.845  51.938  1.00  0.00    -0.273 OA
BRANCH  12  15
HETATM   15  C   UNL     1       5.382  28.412  50.661  1.00  0.00     0.124 C 
BRANCH  15  16
HETATM   16  C   UNL     1       4.825  27.157  49.972  1.00  0.00     0.053 C 
BRANCH  16  17
HETATM   17  C   UNL     1       4.144  27.463  48.627  1.00  0.00     0.189 C 
HETATM   18  N   UNL     1       2.620  27.451  48.834  1.00  0.00    -0.071 N 
HETATM   19  H   UNL     1       2.413  27.234  49.817  1.00  0.00     0.279 HD
HETATM   20  C   UNL     1       1.952  28.764  48.536  1.00  0.00     0.270 C 
HETATM   21  C   UNL     1       2.044  26.309  48.010  1.00  0.00     0.235 C 
HETATM   22  C   UNL     1       3.236  25.415  47.751  1.00  0.00     0.030 C 
HETATM   23  C   UNL     1       4.364  26.405  47.547  1.00  0.00     0.035 C 
ENDBRANCH  16  17
ENDBRANCH  15  16
ENDBRANCH  12  15
ENDBRANCH  10  11
ENDBRANCH   5  10
BRANCH   6  24
HETATM   24  C   UNL     1       6.470  27.035  55.427  1.00  0.00    -0.024 A 
HETATM   25  C   UNL     1       6.084  25.723  55.806  1.00  0.00    -0.053 A 
HETATM   26  C   UNL     1       5.274  25.430  57.044  1.00  0.00     0.049 C 
HETATM   27  C   UNL     1       6.478  24.630  55.016  1.00  0.00     0.014 A 
HETATM   28  C   UNL     1       7.256  24.801  53.868  1.00  0.00    -0.061 A 
HETATM   29  C   UNL     1       7.741  23.608  53.093  1.00  0.00     0.048 C 
HETATM   30  C   UNL     1       7.658  26.087  53.511  1.00  0.00     0.007 A 
HETATM   31  C   UNL     1       7.270  27.189  54.276  1.00  0.00     0.011 A 
ENDBRANCH   6  24
BRANCH   9  32
HETATM   32  C   UNL     1       8.607  28.450  56.828  1.00  0.00     0.293 C 
HETATM   33  O   UNL     1       9.193  27.437  57.185  1.00  0.00    -0.259 OA
BRANCH  32  34
HETATM   34  O   UNL     1       9.052  29.406  55.995  1.00  0.00    -0.323 OA
HETATM   35  C   UNL     1      10.408  29.783  56.255  1.00  0.00     0.213 C 
ENDBRANCH  32  34
ENDBRANCH   9  32
BRANCH   1  36
HETATM   36  C   UNL     1       7.976  30.100  59.195  1.00  0.00     0.056 C 
HETATM   37  C   UNL     1       8.487  31.536  59.087  1.00  0.00     0.011 C 
ENDBRANCH   1  36
TORSDOF 9
ENDMDL
MODEL 2
REMARK VINA RESULT:      -8.3      1.411      2.246
REMARK  9 active torsions:
REMARK  status: ('A' for Active; 'I' for Inactive)
REMARK    1  A    between atoms: C_2  and  C_3 
REMARK    2  A    between atoms: C_7  and  C_8 
REMARK    3  A    between atoms: C_8  and  C_9 
REMARK       I    between atoms: C_9  and  N_10 
REMARK    4  A    between atoms: N_10  and  C_11 
REMARK    5  A    between atoms: C_11  and  C_12 
REMARK    6  A    between atoms: C_12  and  C_13 
REMARK    7  A    between atoms: C_21  and  C_22 
REMARK    8  A    between atoms: C_32  and  C_33 
REMARK    9  A    between atoms: C_33  and  O_34 
ROOT
HETATM    1  C   UNL     1       6.831  29.784  57.764  1.00  0.00     0.051 C 
HETATM    2  N   UNL     1       5.891  30.725  57.389  1.00  0.00    -0.228 NA
HETATM    3  C   UNL     1       5.353  30.595  56.226  1.00  0.00     0.170 C 
HETATM    4  N   UNL     1       5.392  29.289  55.343  1.00  0.00    -0.318 N 
HETATM    5  C   UNL     1       4.564  29.438  54.357  1.00  0.00     0.011 C 
HETATM    6  C   UNL     1       5.968  28.157  56.099  1.00  0.00     0.166 C 
HETATM    7  S   UNL     1       4.381  31.845  55.504  1.00  0.00    -0.086 SA
HETATM    8  C   UNL     1       4.275  30.874  53.978  1.00  0.00     0.135 C 
HETATM    9  C   UNL     1       7.024  28.658  57.044  1.00  0.00     0.069 C 
ENDROOT
BRANCH   5  10
HETATM   10  C   UNL     1       3.692  28.323  53.848  1.00  0.00     0.156 C 
BRANCH  10  11
HETATM   11  C   UNL     1       3.647  28.434  52.334  1.00  0.00     0.222 C 
HETATM   12  N   UNL     1       2.461  28.841  51.781  1.00  0.00    -0.361 N 
HETATM   13  H   UNL     1       1.768  29.298  52.368  1.00  0.00     0.162 HD
HETATM   14  O   UNL     1       4.618  28.079  51.667  1.00  0.00    -0.273 OA
BRANCH  12  15
HETATM   15  C   UNL     1       2.305  28.963  50.335  1.00  0.00     0.124 C 
BRANCH  15  16
HETATM   16  C   UNL     1       2.443  30.419  49.862  1.00  0.00     0.053 C 
BRANCH  16  17
HETATM   17  C   UNL     1       3.574  30.612  48.839  1.00  0.00     0.189 C 
HETATM   18  N   UNL     1       4.580  29.457  48.993  1.00  0.00    -0.071 N 
HETATM   19  H   UNL     1       4.265  28.833  49.746  1.00  0.00     0.279 HD
HETATM   20  C   UNL     1       4.725  28.605  47.764  1.00  0.00     0.270 C 
HETATM   21  C   UNL     1       5.906  30.047  49.447  1.00  0.00     0.235 C 
HETATM   22  C   UNL     1       5.526  31.402  50.003  1.00  0.00     0.030 C 
HETATM   23  C   UNL     1       4.429  31.858  49.062  1.00  0.00     0.035 C 
ENDBRANCH  16  17
ENDBRANCH  15  16
ENDBRANCH  12  15
ENDBRANCH  10  11
ENDBRANCH   5  10
BRANCH   6  24
HETATM   24  C   UNL     1       6.373  26.927  55.287  1.00  0.00    -0.024 A 
HETATM   25  C   UNL     1       6.104  25.623  55.777  1.00  0.00    -0.053 A 
HETATM   26  C   UNL     1       5.372  25.367  57.070  1.00  0.00     0.049 C 
HETATM   27  C   UNL     1       6.544  24.505  55.049  1.00  0.00     0.014 A 
HETATM   28  C   UNL     1       7.257  24.644  53.855  1.00  0.00    -0.061 A 
HETATM   29  C   UNL     1       7.795  23.434  53.145  1.00  0.00     0.048 C 
HETATM   30  C   UNL     1       7.545  25.925  53.388  1.00  0.00     0.007 A 
HETATM   31  C   UNL     1       7.109  27.051  54.090  1.00  0.00     0.011 A 
ENDBRANCH   6  24
BRANCH   9  32
HETATM   32  C   UNL     1       8.439  28.457  56.672  1.00  0.00     0.293 C 
HETATM   33  O   UNL     1       9.032  27.470  57.085  1.00  0.00    -0.259 OA
BRANCH  32  34
HETATM   34  O   UNL     1       8.892  29.390  55.817  1.00  0.00    -0.323 OA
HETATM   35  C   UNL     1      10.249  29.769  56.075  1.00  0.00     0.213 C 
ENDBRANCH  32  34
ENDBRANCH   9  32
BRANCH   1  36
HETATM   36  C   UNL     1       7.706  30.210  58.934  1.00  0.00     0.056 C 
HETATM   37  C   UNL     1       7.406  31.648  59.355  1.00  0.00     0.011 C 
ENDBRANCH   1  36
TORSDOF 9
ENDMDL
MODEL 3
REMARK VINA RESULT:      -7.8      1.628      2.181
REMARK  9 active torsions:
REMARK  status: ('A' for Active; 'I' for Inactive)
REMARK    1  A    between atoms: C_2  and  C_3 
REMARK    2  A    between atoms: C_7  and  C_8 
REMARK    3  A    between atoms: C_8  and  C_9 
REMARK       I    between atoms: C_9  and  N_10 
REMARK    4  A    between atoms: N_10  and  C_11 
REMARK    5  A    between atoms: C_11  and  C_12 
REMARK    6  A    between atoms: C_12  and  C_13 
REMARK    7  A    between atoms: C_21  and  C_22 
REMARK    8  A    between atoms: C_32  and  C_33 
REMARK    9  A    between atoms: C_33  and  O_34 
ROOT
HETATM    1  C   UNL     1       5.377  29.835  56.967  1.00  0.00     0.051 C 
HETATM    2  N   UNL     1       4.623  30.469  55.999  1.00  0.00    -0.228 NA
HETATM    3  C   UNL     1       4.642  29.972  54.810  1.00  0.00     0.170 C 
HETATM    4  N   UNL     1       5.148  28.527  54.434  1.00  0.00    -0.318 N 
HETATM    5  C   UNL     1       4.812  28.283  53.206  1.00  0.00     0.011 C 
HETATM    6  C   UNL     1       5.426  27.731  55.648  1.00  0.00     0.166 C 
HETATM    7  S   UNL     1       3.985  30.814  53.437  1.00  0.00    -0.086 SA
HETATM    8  C   UNL     1       4.610  29.511  52.345  1.00  0.00     0.135 C 
HETATM    9  C   UNL     1       5.939  28.628  56.741  1.00  0.00     0.069 C 
ENDROOT
BRANCH   5  10
HETATM   10  C   UNL     1       4.322  26.937  52.746  1.00  0.00     0.156 C 
BRANCH  10  11
HETATM   11  C   UNL     1       4.986  26.643  51.412  1.00  0.00     0.222 C 
HETATM   12  N   UNL     1       4.174  26.628  50.308  1.00  0.00    -0.361 N 
HETATM   13  H   UNL     1       3.255  27.060  50.360  1.00  0.00     0.162 HD
HETATM   14  O   UNL     1       6.179  26.346  51.377  1.00  0.00    -0.273 OA
BRANCH  12  15
HETATM   15  C   UNL     1       4.708  26.337  48.982  1.00  0.00     0.124 C 
BRANCH  15  16
HETATM   16  C   UNL     1       3.603  25.941  47.991  1.00  0.00     0.053 C 
BRANCH  16  17
HETATM   17  C   UNL     1       3.024  27.144  47.227  1.00  0.00     0.189 C 
HETATM   18  N   UNL     1       3.458  28.436  47.942  1.00  0.00    -0.071 N 
HETATM   19  H   UNL     1       4.025  28.193  48.763  1.00  0.00     0.279 HD
HETATM   20  C   UNL     1       4.299  29.349  47.096  1.00  0.00     0.270 C 
HETATM   21  C   UNL     1       2.208  29.124  48.468  1.00  0.00     0.235 C 
HETATM   22  C   UNL     1       1.171  28.022  48.485  1.00  0.00     0.030 C 
HETATM   23  C   UNL     1       1.498  27.229  47.236  1.00  0.00     0.035 C 
ENDBRANCH  16  17
ENDBRANCH  15  16
ENDBRANCH  12  15
ENDBRANCH  10  11
ENDBRANCH   5  10
BRANCH   6  24
HETATM   24  C   UNL     1       6.225  26.443  55.454  1.00  0.00    -0.024 A 
HETATM   25  C   UNL     1       5.972  25.311  56.272  1.00  0.00    -0.053 A 
HETATM   26  C   UNL     1       4.891  25.283  57.323  1.00  0.00     0.049 C 
HETATM   27  C   UNL     1       6.763  24.159  56.125  1.00  0.00     0.014 A 
HETATM   28  C   UNL     1       7.808  24.103  55.199  1.00  0.00    -0.061 A 
HETATM   29  C   UNL     1       8.696  22.893  55.125  1.00  0.00     0.048 C 
HETATM   30  C   UNL     1       8.074  25.224  54.415  1.00  0.00     0.007 A 
HETATM   31  C   UNL     1       7.294  26.377  54.537  1.00  0.00     0.011 A 
ENDBRANCH   6  24
BRANCH   9  32
HETATM   32  C   UNL     1       7.388  28.612  57.026  1.00  0.00     0.293 C 
HETATM   33  O   UNL     1       7.810  27.923  57.945  1.00  0.00    -0.259 OA
BRANCH  32  34
HETATM   34  O   UNL     1       8.102  29.331  56.143  1.00  0.00    -0.323 OA
HETATM   35  C   UNL     1       9.483  29.444  56.505  1.00  0.00     0.213 C 
ENDBRANCH  32  34
ENDBRANCH   9  32
BRANCH   1  36
HETATM   36  C   UNL     1       5.637  30.678  58.206  1.00  0.00     0.056 C 
HETATM   37  C   UNL     1       5.665  32.168  57.866  1.00  0.00     0.011 C 
ENDBRANCH   1  36
TORSDOF 9
ENDMDL
MODEL 4
REMARK VINA RESULT:      -7.7      2.261      3.834
REMARK  9 active torsions:
REMARK  status: ('A' for Active; 'I' for Inactive)
REMARK    1  A    between atoms: C_2  and  C_3 
REMARK    2  A    between atoms: C_7  and  C_8 
REMARK    3  A    between atoms: C_8  and  C_9 
REMARK       I    between atoms: C_9  and  N_10 
REMARK    4  A    between atoms: N_10  and  C_11 
REMARK    5  A    between atoms: C_11  and  C_12 
REMARK    6  A    between atoms: C_12  and  C_13 
REMARK    7  A    between atoms: C_21  and  C_22 
REMARK    8  A    between atoms: C_32  and  C_33 
REMARK    9  A    between atoms: C_33  and  O_34 
ROOT
HETATM    1  C   UNL     1       5.370  29.246  54.638  1.00  0.00     0.051 C 
HETATM    2  N   UNL     1       4.757  29.844  53.554  1.00  0.00    -0.228 NA
HETATM    3  C   UNL     1       4.923  29.295  52.400  1.00  0.00     0.170 C 
HETATM    4  N   UNL     1       5.449  27.828  52.156  1.00  0.00    -0.318 N 
HETATM    5  C   UNL     1       5.270  27.533  50.907  1.00  0.00     0.011 C 
HETATM    6  C   UNL     1       5.554  27.085  53.430  1.00  0.00     0.166 C 
HETATM    7  S   UNL     1       4.462  30.081  50.919  1.00  0.00    -0.086 SA
HETATM    8  C   UNL     1       5.201  28.723  49.975  1.00  0.00     0.135 C 
HETATM    9  C   UNL     1       5.936  28.025  54.539  1.00  0.00     0.069 C 
ENDROOT
BRANCH   5  10
HETATM   10  C   UNL     1       4.821  26.173  50.446  1.00  0.00     0.156 C 
BRANCH  10  11
HETATM   11  C   UNL     1       4.210  26.340  49.066  1.00  0.00     0.222 C 
HETATM   12  N   UNL     1       2.844  26.439  49.004  1.00  0.00    -0.361 N 
HETATM   13  H   UNL     1       2.322  26.665  49.847  1.00  0.00     0.162 HD
HETATM   14  O   UNL     1       4.929  26.290  48.069  1.00  0.00    -0.273 OA
BRANCH  12  15
HETATM   15  C   UNL     1       2.154  26.583  47.726  1.00  0.00     0.124 C 
BRANCH  15  16
HETATM   16  C   UNL     1       1.055  27.655  47.783  1.00  0.00     0.053 C 
BRANCH  16  17
HETATM   17  C   UNL     1       0.823  28.348  46.430  1.00  0.00     0.189 C 
HETATM   18  N   UNL     1       0.364  29.793  46.690  1.00  0.00    -0.071 N 
HETATM   19  H   UNL     1       0.313  29.955  47.703  1.00  0.00     0.279 HD
HETATM   20  C   UNL     1       1.292  30.838  46.136  1.00  0.00     0.270 C 
HETATM   21  C   UNL     1      -1.053  29.939  46.158  1.00  0.00     0.235 C 
HETATM   22  C   UNL     1      -1.549  28.513  46.057  1.00  0.00     0.030 C 
HETATM   23  C   UNL     1      -0.317  27.758  45.600  1.00  0.00     0.035 C 
ENDBRANCH  16  17
ENDBRANCH  15  16
ENDBRANCH  12  15
ENDBRANCH  10  11
ENDBRANCH   5  10
BRANCH   6  24
HETATM   24  C   UNL     1       6.351  25.781  53.397  1.00  0.00    -0.024 A 
HETATM   25  C   UNL     1       6.183  24.812  54.420  1.00  0.00    -0.053 A 
HETATM   26  C   UNL     1       5.196  24.972  55.549  1.00  0.00     0.049 C 
HETATM   27  C   UNL     1       6.973  23.650  54.410  1.00  0.00     0.014 A 
HETATM   28  C   UNL     1       7.936  23.429  53.422  1.00  0.00    -0.061 A 
HETATM   29  C   UNL     1       8.830  22.223  53.486  1.00  0.00     0.048 C 
HETATM   30  C   UNL     1       8.119  24.394  52.433  1.00  0.00     0.007 A 
HETATM   31  C   UNL     1       7.339  25.552  52.417  1.00  0.00     0.011 A 
ENDBRANCH   6  24
BRANCH   9  32
HETATM   32  C   UNL     1       7.336  28.007  55.011  1.00  0.00     0.293 C 
HETATM   33  O   UNL     1       8.212  28.488  54.304  1.00  0.00    -0.259 OA
BRANCH  32  34
HETATM   34  O   UNL     1       7.463  27.513  56.254  1.00  0.00    -0.323 OA
HETATM   35  C   UNL     1       8.640  27.981  56.922  1.00  0.00     0.213 C 
ENDBRANCH  32  34
ENDBRANCH   9  32
BRANCH   1  36
HETATM   36  C   UNL     1       5.481  30.142  55.863  1.00  0.00     0.056 C 
HETATM   37  C   UNL     1       4.650  29.598  57.025  1.00  0.00     0.011 C 
ENDBRANCH   1  36
TORSDOF 9
ENDMDL
MODEL 5
REMARK VINA RESULT:      -7.4      2.333      8.058
REMARK  9 active torsions:
REMARK  status: ('A' for Active; 'I' for Inactive)
REMARK    1  A    between atoms: C_2  and  C_3 
REMARK    2  A    between atoms: C_7  and  C_8 
REMARK    3  A    between atoms: C_8  and  C_9 
REMARK       I    between atoms: C_9  and  N_10 
REMARK    4  A    between atoms: N_10  and  C_11 
REMARK    5  A    between atoms: C_11  and  C_12 
REMARK    6  A    between atoms: C_12  and  C_13 
REMARK    7  A    between atoms: C_21  and  C_22 
REMARK    8  A    between atoms: C_32  and  C_33 
REMARK    9  A    between atoms: C_33  and  O_34 
ROOT
HETATM    1  C   UNL     1       4.505  30.568  52.089  1.00  0.00     0.051 C 
HETATM    2  N   UNL     1       3.928  31.384  53.043  1.00  0.00    -0.228 NA
HETATM    3  C   UNL     1       3.686  30.868  54.199  1.00  0.00     0.170 C 
HETATM    4  N   UNL     1       4.300  29.521  54.743  1.00  0.00    -0.318 N 
HETATM    5  C   UNL     1       4.028  29.430  56.006  1.00  0.00     0.011 C 
HETATM    6  C   UNL     1       5.345  29.010  53.831  1.00  0.00     0.166 C 
HETATM    7  S   UNL     1       2.712  31.674  55.393  1.00  0.00    -0.086 SA
HETATM    8  C   UNL     1       2.810  30.208  56.454  1.00  0.00     0.135 C 
HETATM    9  C   UNL     1       4.994  29.351  52.409  1.00  0.00     0.069 C 
ENDROOT
BRANCH   5  10
HETATM   10  C   UNL     1       5.007  28.895  57.016  1.00  0.00     0.156 C 
BRANCH  10  11
HETATM   11  C   UNL     1       5.933  30.035  57.400  1.00  0.00     0.222 C 
HETATM   12  N   UNL     1       5.464  30.925  58.330  1.00  0.00    -0.361 N 
HETATM   13  H   UNL     1       4.670  30.666  58.911  1.00  0.00     0.162 HD
HETATM   14  O   UNL     1       7.007  30.172  56.815  1.00  0.00    -0.273 OA
BRANCH  12  15
HETATM   15  C   UNL     1       6.266  32.067  58.755  1.00  0.00     0.124 C 
BRANCH  15  16
HETATM   16  C   UNL     1       6.405  32.136  60.283  1.00  0.00     0.053 C 
BRANCH  16  17
HETATM   17  C   UNL     1       7.850  32.400  60.742  1.00  0.00     0.189 C 
HETATM   18  N   UNL     1       8.747  31.265  60.220  1.00  0.00    -0.071 N 
HETATM   19  H   UNL     1       8.173  30.594  59.694  1.00  0.00     0.279 HD
HETATM   20  C   UNL     1       9.831  31.723  59.286  1.00  0.00     0.270 C 
HETATM   21  C   UNL     1       9.299  30.512  61.421  1.00  0.00     0.235 C 
HETATM   22  C   UNL     1       8.362  30.892  62.546  1.00  0.00     0.030 C 
HETATM   23  C   UNL     1       8.056  32.348  62.255  1.00  0.00     0.035 C 
ENDBRANCH  16  17
ENDBRANCH  15  16
ENDBRANCH  12  15
ENDBRANCH  10  11
ENDBRANCH   5  10
BRANCH   6  24
HETATM   24  C   UNL     1       5.795  27.565  54.047  1.00  0.00    -0.024 A 
HETATM   25  C   UNL     1       7.175  27.252  54.154  1.00  0.00    -0.053 A 
HETATM   26  C   UNL     1       8.260  28.298  54.117  1.00  0.00     0.049 C 
HETATM   27  C   UNL     1       7.572  25.910  54.284  1.00  0.00     0.014 A 
HETATM   28  C   UNL     1       6.640  24.869  54.296  1.00  0.00    -0.061 A 
HETATM   29  C   UNL     1       7.097  23.439  54.344  1.00  0.00     0.048 C 
HETATM   30  C   UNL     1       5.287  25.176  54.163  1.00  0.00     0.007 A 
HETATM   31  C   UNL     1       4.868  26.503  54.042  1.00  0.00     0.011 A 
ENDBRANCH   6  24
BRANCH   9  32
HETATM   32  C   UNL     1       4.450  28.276  51.554  1.00  0.00     0.293 C 
HETATM   33  O   UNL     1       3.245  28.067  51.550  1.00  0.00    -0.259 OA
BRANCH  32  34
HETATM   34  O   UNL     1       5.388  27.691  50.789  1.00  0.00    -0.323 OA
HETATM   35  C   UNL     1       5.105  26.314  50.517  1.00  0.00     0.213 C 
ENDBRANCH  32  34
ENDBRANCH   9  32
BRANCH   1  36
HETATM   36  C   UNL     1       4.387  31.093  50.666  1.00  0.00     0.056 C 
HETATM   37  C   UNL     1       5.757  31.456  50.094  1.00  0.00     0.011 C 
ENDBRANCH   1  36
TORSDOF 9
ENDMDL
MODEL 6
REMARK VINA RESULT:      -7.3      2.319      4.867
REMARK  9 active torsions:
REMARK  status: ('A' for Active; 'I' for Inactive)
REMARK    1  A    between atoms: C_2  and  C_3 
REMARK    2  A    between atoms: C_7  and  C_8 
REMARK    3  A    between atoms: C_8  and  C_9 
REMARK       I    between atoms: C_9  and  N_10 
REMARK    4  A    between atoms: N_10  and  C_11 
REMARK    5  A    between atoms: C_11  and  C_12 
REMARK    6  A    between atoms: C_12  and  C_13 
REMARK    7  A    between atoms: C_21  and  C_22 
REMARK    8  A    between atoms: C_32  and  C_33 
REMARK    9  A    between atoms: C_33  and  O_34 
ROOT
HETATM    1  C   UNL     1       7.870  24.791  55.105  1.00  0.00     0.051 C 
HETATM    2  N   UNL     1       7.291  24.571  53.871  1.00  0.00    -0.228 NA
HETATM    3  C   UNL     1       6.379  25.396  53.486  1.00  0.00     0.170 C 
HETATM    4  N   UNL     1       6.111  26.817  54.116  1.00  0.00    -0.318 N 
HETATM    5  C   UNL     1       5.289  27.457  53.344  1.00  0.00     0.011 C 
HETATM    6  C   UNL     1       7.166  27.172  55.088  1.00  0.00     0.166 C 
HETATM    7  S   UNL     1       5.367  25.090  52.105  1.00  0.00    -0.086 SA
HETATM    8  C   UNL     1       4.406  26.577  52.486  1.00  0.00     0.135 C 
HETATM    9  C   UNL     1       7.653  25.934  55.789  1.00  0.00     0.069 C 
ENDROOT
BRANCH   5  10
HETATM   10  C   UNL     1       5.419  28.927  53.053  1.00  0.00     0.156 C 
BRANCH  10  11
HETATM   11  C   UNL     1       4.781  29.180  51.698  1.00  0.00     0.222 C 
HETATM   12  N   UNL     1       5.540  28.890  50.594  1.00  0.00    -0.361 N 
HETATM   13  H   UNL     1       6.355  28.289  50.694  1.00  0.00     0.162 HD
HETATM   14  O   UNL     1       3.671  29.707  51.635  1.00  0.00    -0.273 OA
BRANCH  12  15
HETATM   15  C   UNL     1       5.029  29.114  49.246  1.00  0.00     0.124 C 
BRANCH  15  16
HETATM   16  C   UNL     1       4.840  27.798  48.476  1.00  0.00     0.053 C 
BRANCH  16  17
HETATM   17  C   UNL     1       3.497  27.113  48.781  1.00  0.00     0.189 C 
HETATM   18  N   UNL     1       3.126  26.207  47.594  1.00  0.00    -0.071 N 
HETATM   19  H   UNL     1       3.857  26.275  46.875  1.00  0.00     0.279 HD
HETATM   20  C   UNL     1       3.012  24.751  47.950  1.00  0.00     0.270 C 
HETATM   21  C   UNL     1       1.851  26.750  46.968  1.00  0.00     0.235 C 
HETATM   22  C   UNL     1       1.785  28.177  47.466  1.00  0.00     0.030 C 
HETATM   23  C   UNL     1       2.306  28.065  48.885  1.00  0.00     0.035 C 
ENDBRANCH  16  17
ENDBRANCH  15  16
ENDBRANCH  12  15
ENDBRANCH  10  11
ENDBRANCH   5  10
BRANCH   6  24
HETATM   24  C   UNL     1       6.876  28.355  56.011  1.00  0.00    -0.024 A 
HETATM   25  C   UNL     1       7.907  29.269  56.353  1.00  0.00    -0.053 A 
HETATM   26  C   UNL     1       9.307  29.171  55.802  1.00  0.00     0.049 C 
HETATM   27  C   UNL     1       7.638  30.310  57.257  1.00  0.00     0.014 A 
HETATM   28  C   UNL     1       6.379  30.462  57.844  1.00  0.00    -0.061 A 
HETATM   29  C   UNL     1       6.143  31.528  58.876  1.00  0.00     0.048 C 
HETATM   30  C   UNL     1       5.374  29.548  57.529  1.00  0.00     0.007 A 
HETATM   31  C   UNL     1       5.616  28.511  56.625  1.00  0.00     0.011 A 
ENDBRANCH   6  24
BRANCH   9  32
HETATM   32  C   UNL     1       7.184  25.691  57.169  1.00  0.00     0.293 C 
HETATM   33  O   UNL     1       7.673  26.333  58.089  1.00  0.00    -0.259 OA
BRANCH  32  34
HETATM   34  O   UNL     1       6.172  24.809  57.230  1.00  0.00    -0.323 OA
HETATM   35  C   UNL     1       4.890  25.440  57.330  1.00  0.00     0.213 C 
ENDBRANCH  32  34
ENDBRANCH   9  32
BRANCH   1  36
HETATM   36  C   UNL     1       8.616  23.589  55.667  1.00  0.00     0.056 C 
HETATM   37  C   UNL     1       7.867  22.289  55.378  1.00  0.00     0.011 C 
ENDBRANCH   1  36
TORSDOF 9
ENDMDL
MODEL 7
REMARK VINA RESULT:      -7.2      2.420      8.233
REMARK  9 active torsions:
REMARK  status: ('A' for Active; 'I' for Inactive)
REMARK    1  A    between atoms: C_2  and  C_3 
REMARK    2  A    between atoms: C_7  and  C_8 
REMARK    3  A    between atoms: C_8  and  C_9 
REMARK       I    between atoms: C_9  and  N_10 
REMARK    4  A    between atoms: N_10  and  C_11 
REMARK    5  A    between atoms: C_11  and  C_12 
REMARK    6  A    between atoms: C_12  and  C_13 
REMARK    7  A    between atoms: C_21  and  C_22 
REMARK    8  A    between atoms: C_32  and  C_33 
REMARK    9  A    between atoms: C_33  and  O_34 
ROOT
HETATM    1  C   UNL     1       4.980  29.268  52.993  1.00  0.00     0.051 C 
HETATM    2  N   UNL     1       4.869  30.280  53.926  1.00  0.00    -0.228 NA
HETATM    3  C   UNL     1       5.050  29.971  55.164  1.00  0.00     0.170 C 
HETATM    4  N   UNL     1       5.729  28.645  55.682  1.00  0.00    -0.318 N 
HETATM    5  C   UNL     1       5.952  28.771  56.952  1.00  0.00     0.011 C 
HETATM    6  C   UNL     1       6.309  27.875  54.562  1.00  0.00     0.166 C 
HETATM    7  S   UNL     1       4.663  31.061  56.463  1.00  0.00    -0.086 SA
HETATM    8  C   UNL     1       5.054  29.761  57.663  1.00  0.00     0.135 C 
HETATM    9  C   UNL     1       5.468  28.054  53.329  1.00  0.00     0.069 C 
ENDROOT
BRANCH   5  10
HETATM   10  C   UNL     1       7.201  28.259  57.616  1.00  0.00     0.156 C 
BRANCH  10  11
HETATM   11  C   UNL     1       8.192  29.409  57.672  1.00  0.00     0.222 C 
HETATM   12  N   UNL     1       8.238  30.128  58.838  1.00  0.00    -0.361 N 
HETATM   13  H   UNL     1       7.837  29.731  59.684  1.00  0.00     0.162 HD
HETATM   14  O   UNL     1       8.836  29.709  56.667  1.00  0.00    -0.273 OA
BRANCH  12  15
HETATM   15  C   UNL     1       9.141  31.264  58.989  1.00  0.00     0.124 C 
BRANCH  15  16
HETATM   16  C   UNL     1       9.240  31.730  60.450  1.00  0.00     0.053 C 
BRANCH  16  17
HETATM   17  C   UNL     1       7.945  31.488  61.245  1.00  0.00     0.189 C 
HETATM   18  N   UNL     1       7.079  32.758  61.173  1.00  0.00    -0.071 N 
HETATM   19  H   UNL     1       7.569  33.471  60.618  1.00  0.00     0.279 HD
HETATM   20  C   UNL     1       5.743  32.549  60.516  1.00  0.00     0.270 C 
HETATM   21  C   UNL     1       6.950  33.319  62.580  1.00  0.00     0.235 C 
HETATM   22  C   UNL     1       8.099  32.681  63.329  1.00  0.00     0.030 C 
HETATM   23  C   UNL     1       8.149  31.283  62.745  1.00  0.00     0.035 C 
ENDBRANCH  16  17
ENDBRANCH  15  16
ENDBRANCH  12  15
ENDBRANCH  10  11
ENDBRANCH   5  10
BRANCH   6  24
HETATM   24  C   UNL     1       6.705  26.429  54.858  1.00  0.00    -0.024 A 
HETATM   25  C   UNL     1       7.609  25.743  54.006  1.00  0.00    -0.053 A 
HETATM   26  C   UNL     1       8.266  26.392  52.814  1.00  0.00     0.049 C 
HETATM   27  C   UNL     1       7.908  24.393  54.256  1.00  0.00     0.014 A 
HETATM   28  C   UNL     1       7.323  23.699  55.319  1.00  0.00    -0.061 A 
HETATM   29  C   UNL     1       7.589  22.233  55.509  1.00  0.00     0.048 C 
HETATM   30  C   UNL     1       6.414  24.365  56.139  1.00  0.00     0.007 A 
HETATM   31  C   UNL     1       6.109  25.710  55.916  1.00  0.00     0.011 A 
ENDBRANCH   6  24
BRANCH   9  32
HETATM   32  C   UNL     1       4.565  26.951  52.940  1.00  0.00     0.293 C 
HETATM   33  O   UNL     1       3.497  26.819  53.523  1.00  0.00    -0.259 OA
BRANCH  32  34
HETATM   34  O   UNL     1       5.020  26.249  51.889  1.00  0.00    -0.323 OA
HETATM   35  C   UNL     1       4.853  24.836  52.049  1.00  0.00     0.213 C 
ENDBRANCH  32  34
ENDBRANCH   9  32
BRANCH   1  36
HETATM   36  C   UNL     1       4.366  29.596  51.640  1.00  0.00     0.056 C 
HETATM   37  C   UNL     1       5.442  29.731  50.563  1.00  0.00     0.011 C 
ENDBRANCH   1  36
TORSDOF 9
ENDMDL
MODEL 8
REMARK VINA RESULT:      -7.2      7.930     11.364
REMARK  9 active torsions:
REMARK  status: ('A' for Active; 'I' for Inactive)
REMARK    1  A    between atoms: C_2  and  C_3 
REMARK    2  A    between atoms: C_7  and  C_8 
REMARK    3  A    between atoms: C_8  and  C_9 
REMARK       I    between atoms: C_9  and  N_10 
REMARK    4  A    between atoms: N_10  and  C_11 
REMARK    5  A    between atoms: C_11  and  C_12 
REMARK    6  A    between atoms: C_12  and  C_13 
REMARK    7  A    between atoms: C_21  and  C_22 
REMARK    8  A    between atoms: C_32  and  C_33 
REMARK    9  A    between atoms: C_33  and  O_34 
ROOT
HETATM    1  C   UNL     1       7.788  32.644  60.669  1.00  0.00     0.051 C 
HETATM    2  N   UNL     1       7.165  32.280  59.491  1.00  0.00    -0.228 NA
HETATM    3  C   UNL     1       5.877  32.305  59.468  1.00  0.00     0.170 C 
HETATM    4  N   UNL     1       4.960  33.040  60.519  1.00  0.00    -0.318 N 
HETATM    5  C   UNL     1       3.747  33.053  60.064  1.00  0.00     0.011 C 
HETATM    6  C   UNL     1       5.769  33.866  61.441  1.00  0.00     0.166 C 
HETATM    7  S   UNL     1       4.954  31.606  58.169  1.00  0.00    -0.086 SA
HETATM    8  C   UNL     1       3.425  31.953  59.076  1.00  0.00     0.135 C 
HETATM    9  C   UNL     1       7.098  33.207  61.684  1.00  0.00     0.069 C 
ENDROOT
BRANCH   5  10
HETATM   10  C   UNL     1       2.830  34.236  60.216  1.00  0.00     0.156 C 
BRANCH  10  11
HETATM   11  C   UNL     1       2.867  35.012  58.911  1.00  0.00     0.222 C 
HETATM   12  N   UNL     1       3.971  35.793  58.688  1.00  0.00    -0.361 N 
HETATM   13  H   UNL     1       4.814  35.632  59.235  1.00  0.00     0.162 HD
HETATM   14  O   UNL     1       1.894  34.988  58.159  1.00  0.00    -0.273 OA
BRANCH  12  15
HETATM   15  C   UNL     1       4.098  36.592  57.475  1.00  0.00     0.124 C 
BRANCH  15  16
HETATM   16  C   UNL     1       4.300  38.083  57.786  1.00  0.00     0.053 C 
BRANCH  16  17
HETATM   17  C   UNL     1       4.796  38.334  59.220  1.00  0.00     0.189 C 
HETATM   18  N   UNL     1       3.753  39.190  59.959  1.00  0.00    -0.071 N 
HETATM   19  H   UNL     1       2.974  39.399  59.322  1.00  0.00     0.279 HD
HETATM   20  C   UNL     1       3.152  38.517  61.161  1.00  0.00     0.270 C 
HETATM   21  C   UNL     1       4.398  40.523  60.305  1.00  0.00     0.235 C 
HETATM   22  C   UNL     1       5.583  40.603  59.368  1.00  0.00     0.030 C 
HETATM   23  C   UNL     1       6.072  39.169  59.316  1.00  0.00     0.035 C 
ENDBRANCH  16  17
ENDBRANCH  15  16
ENDBRANCH  12  15
ENDBRANCH  10  11
ENDBRANCH   5  10
BRANCH   6  24
HETATM   24  C   UNL     1       5.068  34.371  62.702  1.00  0.00    -0.024 A 
HETATM   25  C   UNL     1       5.254  35.708  63.140  1.00  0.00    -0.053 A 
HETATM   26  C   UNL     1       6.088  36.711  62.384  1.00  0.00     0.049 C 
HETATM   27  C   UNL     1       4.656  36.133  64.338  1.00  0.00     0.014 A 
HETATM   28  C   UNL     1       3.891  35.266  65.122  1.00  0.00    -0.061 A 
HETATM   29  C   UNL     1       3.340  35.720  66.444  1.00  0.00     0.048 C 
HETATM   30  C   UNL     1       3.732  33.945  64.706  1.00  0.00     0.007 A 
HETATM   31  C   UNL     1       4.309  33.503  63.513  1.00  0.00     0.011 A 
ENDBRANCH   6  24
BRANCH   9  32
HETATM   32  C   UNL     1       7.297  32.502  62.967  1.00  0.00     0.293 C 
HETATM   33  O   UNL     1       6.839  31.376  63.108  1.00  0.00    -0.259 OA
BRANCH  32  34
HETATM   34  O   UNL     1       8.064  33.191  63.829  1.00  0.00    -0.323 OA
HETATM   35  C   UNL     1       7.413  33.434  65.081  1.00  0.00     0.213 C 
ENDBRANCH  32  34
ENDBRANCH   9  32
BRANCH   1  36
HETATM   36  C   UNL     1       9.243  32.209  60.764  1.00  0.00     0.056 C 
HETATM   37  C   UNL     1       9.395  30.715  60.483  1.00  0.00     0.011 C 
ENDBRANCH   1  36
TORSDOF 9
ENDMDL
MODEL 9
REMARK VINA RESULT:      -7.1      3.350      8.030
REMARK  9 active torsions:
REMARK  status: ('A' for Active; 'I' for Inactive)
REMARK    1  A    between atoms: C_2  and  C_3 
REMARK    2  A    between atoms: C_7  and  C_8 
REMARK    3  A    between atoms: C_8  and  C_9 
REMARK       I    between atoms: C_9  and  N_10 
REMARK    4  A    between atoms: N_10  and  C_11 
REMARK    5  A    between atoms: C_11  and  C_12 
REMARK    6  A    between atoms: C_12  and  C_13 
REMARK    7  A    between atoms: C_21  and  C_22 
REMARK    8  A    between atoms: C_32  and  C_33 
REMARK    9  A    between atoms: C_33  and  O_34 
ROOT
HETATM    1  C   UNL     1       5.797  32.316  48.937  1.00  0.00     0.051 C 
HETATM    2  N   UNL     1       5.797  32.577  50.294  1.00  0.00    -0.228 NA
HETATM    3  C   UNL     1       4.800  32.140  50.983  1.00  0.00     0.170 C 
HETATM    4  N   UNL     1       3.772  31.044  50.505  1.00  0.00    -0.318 N 
HETATM    5  C   UNL     1       3.054  30.686  51.523  1.00  0.00     0.011 C 
HETATM    6  C   UNL     1       4.203  30.435  49.229  1.00  0.00     0.166 C 
HETATM    7  S   UNL     1       4.517  32.631  52.628  1.00  0.00    -0.086 SA
HETATM    8  C   UNL     1       2.953  31.717  52.626  1.00  0.00     0.135 C 
HETATM    9  C   UNL     1       4.910  31.460  48.386  1.00  0.00     0.069 C 
ENDROOT
BRANCH   5  10
HETATM   10  C   UNL     1       2.639  29.261  51.768  1.00  0.00     0.156 C 
BRANCH  10  11
HETATM   11  C   UNL     1       3.900  28.461  52.045  1.00  0.00     0.222 C 
HETATM   12  N   UNL     1       4.136  27.381  51.234  1.00  0.00    -0.361 N 
HETATM   13  H   UNL     1       3.642  27.307  50.348  1.00  0.00     0.162 HD
HETATM   14  O   UNL     1       4.602  28.743  53.015  1.00  0.00    -0.273 OA
BRANCH  12  15
HETATM   15  C   UNL     1       5.309  26.534  51.426  1.00  0.00     0.124 C 
BRANCH  15  16
HETATM   16  C   UNL     1       4.929  25.126  51.909  1.00  0.00     0.053 C 
BRANCH  16  17
HETATM   17  C   UNL     1       5.617  24.740  53.229  1.00  0.00     0.189 C 
HETATM   18  N   UNL     1       6.222  26.007  53.858  1.00  0.00    -0.071 N 
HETATM   19  H   UNL     1       6.032  26.812  53.247  1.00  0.00     0.279 HD
HETATM   20  C   UNL     1       5.655  26.351  55.206  1.00  0.00     0.270 C 
HETATM   21  C   UNL     1       7.733  25.840  53.891  1.00  0.00     0.235 C 
HETATM   22  C   UNL     1       7.998  24.749  52.877  1.00  0.00     0.030 C 
HETATM   23  C   UNL     1       6.822  23.813  53.072  1.00  0.00     0.035 C 
ENDBRANCH  16  17
ENDBRANCH  15  16
ENDBRANCH  12  15
ENDBRANCH  10  11
ENDBRANCH   5  10
BRANCH   6  24
HETATM   24  C   UNL     1       3.160  29.605  48.480  1.00  0.00    -0.024 A 
HETATM   25  C   UNL     1       3.546  28.435  47.776  1.00  0.00    -0.053 A 
HETATM   26  C   UNL     1       4.960  27.913  47.762  1.00  0.00     0.049 C 
HETATM   27  C   UNL     1       2.585  27.723  47.037  1.00  0.00     0.014 A 
HETATM   28  C   UNL     1       1.256  28.148  46.965  1.00  0.00    -0.061 A 
HETATM   29  C   UNL     1       0.270  27.421  46.095  1.00  0.00     0.048 C 
HETATM   30  C   UNL     1       0.884  29.313  47.634  1.00  0.00     0.007 A 
HETATM   31  C   UNL     1       1.819  30.031  48.383  1.00  0.00     0.011 A 
ENDBRANCH   6  24
BRANCH   9  32
HETATM   32  C   UNL     1       4.170  32.057  47.255  1.00  0.00     0.293 C 
HETATM   33  O   UNL     1       3.427  33.007  47.461  1.00  0.00    -0.259 OA
BRANCH  32  34
HETATM   34  O   UNL     1       4.487  31.503  46.073  1.00  0.00    -0.323 OA
HETATM   35  C   UNL     1       3.366  31.401  45.188  1.00  0.00     0.213 C 
ENDBRANCH  32  34
ENDBRANCH   9  32
BRANCH   1  36
HETATM   36  C   UNL     1       6.754  33.186  48.135  1.00  0.00     0.056 C 
HETATM   37  C   UNL     1       6.777  34.619  48.665  1.00  0.00     0.011 C 
ENDBRANCH   1  36
TORSDOF 9
ENDMDL
MODEL 10
REMARK VINA RESULT:      -7.1      4.277      7.717
REMARK  9 active torsions:
REMARK  status: ('A' for Active; 'I' for Inactive)
REMARK    1  A    between atoms: C_2  and  C_3 
REMARK    2  A    between atoms: C_7  and  C_8 
REMARK    3  A    between atoms: C_8  and  C_9 
REMARK       I    between atoms: C_9  and  N_10 
REMARK    4  A    between atoms: N_10  and  C_11 
REMARK    5  A    between atoms: C_11  and  C_12 
REMARK    6  A    between atoms: C_12  and  C_13 
REMARK    7  A    between atoms: C_21  and  C_22 
REMARK    8  A    between atoms: C_32  and  C_33 
REMARK    9  A    between atoms: C_33  and  O_34 
ROOT
HETATM    1  C   UNL     1       5.425  34.082  62.370  1.00  0.00     0.051 C 
HETATM    2  N   UNL     1       6.683  33.632  62.721  1.00  0.00    -0.228 NA
HETATM    3  C   UNL     1       7.200  32.693  62.006  1.00  0.00     0.170 C 
HETATM    4  N   UNL     1       6.702  32.258  60.575  1.00  0.00    -0.318 N 
HETATM    5  C   UNL     1       7.583  31.458  60.062  1.00  0.00     0.011 C 
HETATM    6  C   UNL     1       5.676  33.193  60.065  1.00  0.00     0.166 C 
HETATM    7  S   UNL     1       8.633  31.833  62.491  1.00  0.00    -0.086 SA
HETATM    8  C   UNL     1       8.442  30.726  61.070  1.00  0.00     0.135 C 
HETATM    9  C   UNL     1       4.848  33.714  61.206  1.00  0.00     0.069 C 
ENDROOT
BRANCH   5  10
HETATM   10  C   UNL     1       7.971  31.493  58.609  1.00  0.00     0.156 C 
BRANCH  10  11
HETATM   11  C   UNL     1       8.259  30.066  58.180  1.00  0.00     0.222 C 
HETATM   12  N   UNL     1       7.195  29.203  58.153  1.00  0.00    -0.361 N 
HETATM   13  H   UNL     1       6.249  29.578  58.151  1.00  0.00     0.162 HD
HETATM   14  O   UNL     1       9.419  29.715  57.964  1.00  0.00    -0.273 OA
BRANCH  12  15
HETATM   15  C   UNL     1       7.366  27.804  57.773  1.00  0.00     0.124 C 
BRANCH  15  16
HETATM   16  C   UNL     1       7.176  27.591  56.263  1.00  0.00     0.053 C 
BRANCH  16  17
HETATM   17  C   UNL     1       5.824  26.946  55.914  1.00  0.00     0.189 C 
HETATM   18  N   UNL     1       5.819  26.594  54.416  1.00  0.00    -0.071 N 
HETATM   19  H   UNL     1       6.714  26.878  53.999  1.00  0.00     0.279 HD
HETATM   20  C   UNL     1       5.661  25.127  54.134  1.00  0.00     0.270 C 
HETATM   21  C   UNL     1       4.744  27.432  53.741  1.00  0.00     0.235 C 
HETATM   22  C   UNL     1       4.499  28.560  54.719  1.00  0.00     0.030 C 
HETATM   23  C   UNL     1       4.619  27.874  56.065  1.00  0.00     0.035 C 
ENDBRANCH  16  17
ENDBRANCH  15  16
ENDBRANCH  12  15
ENDBRANCH  10  11
ENDBRANCH   5  10
BRANCH   6  24
HETATM   24  C   UNL     1       4.870  32.728  58.852  1.00  0.00    -0.024 A 
HETATM   25  C   UNL     1       4.426  33.666  57.884  1.00  0.00    -0.053 A 
HETATM   26  C   UNL     1       4.755  35.136  57.953  1.00  0.00     0.049 C 
HETATM   27  C   UNL     1       3.628  33.230  56.813  1.00  0.00     0.014 A 
HETATM   28  C   UNL     1       3.246  31.893  56.683  1.00  0.00    -0.061 A 
HETATM   29  C   UNL     1       2.317  31.470  55.580  1.00  0.00     0.048 C 
HETATM   30  C   UNL     1       3.659  30.977  57.649  1.00  0.00     0.007 A 
HETATM   31  C   UNL     1       4.461  31.386  58.717  1.00  0.00     0.011 A 
ENDBRANCH   6  24
BRANCH   9  32
HETATM   32  C   UNL     1       3.496  33.148  61.395  1.00  0.00     0.293 C 
HETATM   33  O   UNL     1       3.363  32.125  62.054  1.00  0.00    -0.259 OA
BRANCH  32  34
HETATM   34  O   UNL     1       2.530  33.914  60.862  1.00  0.00    -0.323 OA
HETATM   35  C   UNL     1       1.628  34.437  61.844  1.00  0.00     0.213 C 
ENDBRANCH  32  34
ENDBRANCH   9  32
BRANCH   1  36
HETATM   36  C   UNL     1       4.717  34.870  63.462  1.00  0.00     0.056 C 
HETATM   37  C   UNL     1       4.650  34.074  64.764  1.00  0.00     0.011 C 
ENDBRANCH   1  36
TORSDOF 9
ENDMDL
