MODEL 1
REMARK VINA RESULT:      -9.6      0.000      0.000
REMARK  3 active torsions:
REMARK  status: ('A' for Active; 'I' for Inactive)
REMARK    1  A    between atoms: C_3  and  C_4 
REMARK    2  A    between atoms: C_10  and  C_11 
REMARK    3  A    between atoms: C_14  and  O_15 
ROOT
HETATM    1  C   UNL     1       6.061  34.534  68.112  1.00  0.00    -0.007 A 
HETATM    2  C   UNL     1       7.087  34.236  67.205  1.00  0.00     0.047 A 
HETATM    3  C   UNL     1       6.737  33.848  65.901  1.00  0.00     0.086 A 
HETATM    4  C   UNL     1       5.400  33.772  65.543  1.00  0.00     0.063 A 
HETATM    5  N   UNL     1       5.425  33.366  64.234  1.00  0.00    -0.338 N 
HETATM    6  H   UNL     1       4.619  33.233  63.644  1.00  0.00     0.167 HD
HETATM    7  C   UNL     1       6.736  33.213  63.841  1.00  0.00     0.139 A 
HETATM    8  N   UNL     1       7.545  33.515  64.843  1.00  0.00    -0.228 NA
HETATM    9  C   UNL     1       4.354  34.079  66.410  1.00  0.00     0.033 A 
HETATM   10  C   UNL     1       4.716  34.465  67.707  1.00  0.00     0.016 A 
ENDROOT
BRANCH   1  11
HETATM   11  C   UNL     1       6.350  34.926  69.531  1.00  0.00     0.069 C 
HETATM   12  C   UNL     1       7.638  35.675  69.849  1.00  0.00     0.045 C 
HETATM   13  C   UNL     1       8.776  34.663  69.993  1.00  0.00     0.017 C 
HETATM   14  C   UNL     1       7.455  36.507  71.108  1.00  0.00     0.115 C 
HETATM   15  C   UNL     1       6.741  35.745  72.188  1.00  0.00     0.238 C 
HETATM   16  N   UNL     1       5.811  34.839  71.754  1.00  0.00    -0.247 N 
HETATM   17  O   UNL     1       6.920  35.972  73.382  1.00  0.00    -0.272 OA
HETATM   18  N   UNL     1       5.535  34.522  70.462  1.00  0.00    -0.176 NA
HETATM   19  H   UNL     1       5.242  34.388  72.463  1.00  0.00     0.192 HD
ENDBRANCH   1  11
BRANCH   7  20
HETATM   20  C   UNL     1       7.143  32.814  62.491  1.00  0.00     0.010 A 
HETATM   21  C   UNL     1       8.451  32.369  62.271  1.00  0.00     0.018 A 
HETATM   22  C   UNL     1       8.875  32.000  60.991  1.00  0.00     0.037 A 
HETATM   23  C   UNL     1       7.997  32.054  59.908  1.00  0.00     0.068 A 
HETATM   24  C   UNL     1       6.686  32.482  60.118  1.00  0.00     0.037 A 
HETATM   25  C   UNL     1       6.263  32.860  61.401  1.00  0.00     0.018 A 
BRANCH  23  26
HETATM   26  O   UNL     1       8.536  31.667  58.712  1.00  0.00    -0.356 OA
HETATM   27  C   UNL     1       9.954  31.603  58.634  1.00  0.00     0.210 C 
ENDBRANCH  23  26
ENDBRANCH   7  20
TORSDOF 3
ENDMDL
MODEL 2
REMARK VINA RESULT:      -9.5      2.147      3.860
REMARK  3 active torsions:
REMARK  status: ('A' for Active; 'I' for Inactive)
REMARK    1  A    between atoms: C_3  and  C_4 
REMARK    2  A    between atoms: C_10  and  C_11 
REMARK    3  A    between atoms: C_14  and  O_15 
ROOT
HETATM    1  C   UNL     1       6.139  33.347  64.765  1.00  0.00    -0.007 A 
HETATM    2  C   UNL     1       7.355  33.033  64.144  1.00  0.00     0.047 A 
HETATM    3  C   UNL     1       7.327  32.497  62.846  1.00  0.00     0.086 A 
HETATM    4  C   UNL     1       6.110  32.293  62.214  1.00  0.00     0.063 A 
HETATM    5  N   UNL     1       6.449  31.764  60.996  1.00  0.00    -0.338 N 
HETATM    6  H   UNL     1       5.804  31.518  60.261  1.00  0.00     0.167 HD
HETATM    7  C   UNL     1       7.821  31.665  60.919  1.00  0.00     0.139 A 
HETATM    8  N   UNL     1       8.367  32.119  62.034  1.00  0.00    -0.228 NA
HETATM    9  C   UNL     1       4.882  32.609  62.791  1.00  0.00     0.033 A 
HETATM   10  C   UNL     1       4.925  33.144  64.085  1.00  0.00     0.016 A 
ENDROOT
BRANCH   1  11
HETATM   11  C   UNL     1       6.082  33.894  66.160  1.00  0.00     0.069 C 
HETATM   12  C   UNL     1       4.727  34.205  66.782  1.00  0.00     0.045 C 
HETATM   13  C   UNL     1       4.274  35.591  66.318  1.00  0.00     0.017 C 
HETATM   14  C   UNL     1       4.820  34.117  68.298  1.00  0.00     0.115 C 
HETATM   15  C   UNL     1       6.060  34.780  68.824  1.00  0.00     0.238 C 
HETATM   16  N   UNL     1       7.156  34.715  68.007  1.00  0.00    -0.247 N 
HETATM   17  O   UNL     1       6.115  35.279  69.946  1.00  0.00    -0.272 OA
HETATM   18  N   UNL     1       7.201  34.182  66.758  1.00  0.00    -0.176 NA
HETATM   19  H   UNL     1       8.033  35.063  68.383  1.00  0.00     0.192 HD
ENDBRANCH   1  11
BRANCH   7  20
HETATM   20  C   UNL     1       8.539  31.166  59.744  1.00  0.00     0.010 A 
HETATM   21  C   UNL     1       9.676  31.847  59.293  1.00  0.00     0.018 A 
HETATM   22  C   UNL     1      10.371  31.407  58.163  1.00  0.00     0.037 A 
HETATM   23  C   UNL     1       9.955  30.270  57.471  1.00  0.00     0.068 A 
HETATM   24  C   UNL     1       8.833  29.574  57.919  1.00  0.00     0.037 A 
HETATM   25  C   UNL     1       8.130  30.020  59.048  1.00  0.00     0.018 A 
BRANCH  23  26
HETATM   26  O   UNL     1      10.721  29.947  56.385  1.00  0.00    -0.356 OA
HETATM   27  C   UNL     1      10.041  29.445  55.242  1.00  0.00     0.210 C 
ENDBRANCH  23  26
ENDBRANCH   7  20
TORSDOF 3
ENDMDL
MODEL 3
REMARK VINA RESULT:      -9.4      7.615     14.167
REMARK  3 active torsions:
REMARK  status: ('A' for Active; 'I' for Inactive)
REMARK    1  A    between atoms: C_3  and  C_4 
REMARK    2  A    between atoms: C_10  and  C_11 
REMARK    3  A    between atoms: C_14  and  O_15 
ROOT
HETATM    1  C   UNL     1       7.614  25.862  55.150  1.00  0.00    -0.007 A 
HETATM    2  C   UNL     1       7.593  26.178  56.516  1.00  0.00     0.047 A 
HETATM    3  C   UNL     1       7.631  27.531  56.892  1.00  0.00     0.086 A 
HETATM    4  C   UNL     1       7.686  28.513  55.916  1.00  0.00     0.063 A 
HETATM    5  N   UNL     1       7.718  29.687  56.622  1.00  0.00    -0.338 N 
HETATM    6  H   UNL     1       7.733  30.613  56.225  1.00  0.00     0.167 HD
HETATM    7  C   UNL     1       7.681  29.397  57.969  1.00  0.00     0.139 A 
HETATM    8  N   UNL     1       7.615  28.089  58.145  1.00  0.00    -0.228 NA
HETATM    9  C   UNL     1       7.689  28.240  54.550  1.00  0.00     0.033 A 
HETATM   10  C   UNL     1       7.650  26.887  54.188  1.00  0.00     0.016 A 
ENDROOT
BRANCH   1  11
HETATM   11  C   UNL     1       7.607  24.442  54.667  1.00  0.00     0.069 C 
HETATM   12  C   UNL     1       7.485  24.165  53.174  1.00  0.00     0.045 C 
HETATM   13  C   UNL     1       6.008  24.210  52.780  1.00  0.00     0.017 C 
HETATM   14  C   UNL     1       8.120  22.823  52.843  1.00  0.00     0.115 C 
HETATM   15  C   UNL     1       7.745  21.763  53.839  1.00  0.00     0.238 C 
HETATM   16  N   UNL     1       7.556  22.199  55.122  1.00  0.00    -0.247 N 
HETATM   17  O   UNL     1       7.689  20.572  53.543  1.00  0.00    -0.272 OA
HETATM   18  N   UNL     1       7.602  23.488  55.552  1.00  0.00    -0.176 NA
HETATM   19  H   UNL     1       7.405  21.490  55.833  1.00  0.00     0.192 HD
ENDBRANCH   1  11
BRANCH   7  20
HETATM   20  C   UNL     1       7.672  30.414  59.023  1.00  0.00     0.010 A 
HETATM   21  C   UNL     1       8.615  30.343  60.054  1.00  0.00     0.018 A 
HETATM   22  C   UNL     1       8.620  31.287  61.085  1.00  0.00     0.037 A 
HETATM   23  C   UNL     1       7.694  32.330  61.098  1.00  0.00     0.068 A 
HETATM   24  C   UNL     1       6.758  32.420  60.068  1.00  0.00     0.037 A 
HETATM   25  C   UNL     1       6.748  31.468  59.038  1.00  0.00     0.018 A 
BRANCH  23  26
HETATM   26  O   UNL     1       7.806  33.184  62.160  1.00  0.00    -0.356 OA
HETATM   27  C   UNL     1       7.960  32.597  63.446  1.00  0.00     0.210 C 
ENDBRANCH  23  26
ENDBRANCH   7  20
TORSDOF 3
ENDMDL
MODEL 4
REMARK VINA RESULT:      -9.1      9.683     15.366
REMARK  3 active torsions:
REMARK  status: ('A' for Active; 'I' for Inactive)
REMARK    1  A    between atoms: C_3  and  C_4 
REMARK    2  A    between atoms: C_10  and  C_11 
REMARK    3  A    between atoms: C_14  and  O_15 
ROOT
HETATM    1  C   UNL     1       6.384  24.317  54.133  1.00  0.00    -0.007 A 
HETATM    2  C   UNL     1       6.388  25.176  55.241  1.00  0.00     0.047 A 
HETATM    3  C   UNL     1       5.676  26.384  55.155  1.00  0.00     0.086 A 
HETATM    4  C   UNL     1       4.990  26.695  53.992  1.00  0.00     0.063 A 
HETATM    5  N   UNL     1       4.429  27.919  54.250  1.00  0.00    -0.338 N 
HETATM    6  H   UNL     1       3.834  28.437  53.624  1.00  0.00     0.167 HD
HETATM    7  C   UNL     1       4.776  28.307  55.525  1.00  0.00     0.139 A 
HETATM    8  N   UNL     1       5.524  27.376  56.091  1.00  0.00    -0.228 NA
HETATM    9  C   UNL     1       4.947  25.860  52.878  1.00  0.00     0.033 A 
HETATM   10  C   UNL     1       5.660  24.658  52.977  1.00  0.00     0.016 A 
ENDROOT
BRANCH   1  11
HETATM   11  C   UNL     1       7.144  23.024  54.133  1.00  0.00     0.069 C 
HETATM   12  C   UNL     1       7.664  22.466  55.452  1.00  0.00     0.045 C 
HETATM   13  C   UNL     1       8.994  23.142  55.786  1.00  0.00     0.017 C 
HETATM   14  C   UNL     1       7.803  20.955  55.355  1.00  0.00     0.115 C 
HETATM   15  C   UNL     1       8.430  20.530  54.058  1.00  0.00     0.238 C 
HETATM   16  N   UNL     1       8.146  21.321  52.978  1.00  0.00    -0.247 N 
HETATM   17  O   UNL     1       9.091  19.499  53.953  1.00  0.00    -0.272 OA
HETATM   18  N   UNL     1       7.424  22.472  52.989  1.00  0.00    -0.176 NA
HETATM   19  H   UNL     1       8.470  20.998  52.072  1.00  0.00     0.192 HD
ENDBRANCH   1  11
BRANCH   7  20
HETATM   20  C   UNL     1       4.328  29.555  56.149  1.00  0.00     0.010 A 
HETATM   21  C   UNL     1       4.751  29.865  57.447  1.00  0.00     0.018 A 
HETATM   22  C   UNL     1       4.325  31.038  58.076  1.00  0.00     0.037 A 
HETATM   23  C   UNL     1       3.481  31.932  57.418  1.00  0.00     0.068 A 
HETATM   24  C   UNL     1       3.064  31.641  56.119  1.00  0.00     0.037 A 
HETATM   25  C   UNL     1       3.485  30.460  55.490  1.00  0.00     0.018 A 
BRANCH  23  26
HETATM   26  O   UNL     1       3.139  33.040  58.143  1.00  0.00    -0.356 OA
HETATM   27  C   UNL     1       3.467  33.031  59.527  1.00  0.00     0.210 C 
ENDBRANCH  23  26
ENDBRANCH   7  20
TORSDOF 3
ENDMDL
MODEL 5
REMARK VINA RESULT:      -9.0     11.969     15.860
REMARK  3 active torsions:
REMARK  status: ('A' for Active; 'I' for Inactive)
REMARK    1  A    between atoms: C_3  and  C_4 
REMARK    2  A    between atoms: C_10  and  C_11 
REMARK    3  A    between atoms: C_14  and  O_15 
ROOT
HETATM    1  C   UNL     1       6.799  24.356  53.645  1.00  0.00    -0.007 A 
HETATM    2  C   UNL     1       6.177  25.081  54.670  1.00  0.00     0.047 A 
HETATM    3  C   UNL     1       5.653  26.350  54.372  1.00  0.00     0.086 A 
HETATM    4  C   UNL     1       5.759  26.850  53.083  1.00  0.00     0.063 A 
HETATM    5  N   UNL     1       5.162  28.083  53.152  1.00  0.00    -0.338 N 
HETATM    6  H   UNL     1       5.036  28.719  52.381  1.00  0.00     0.167 HD
HETATM    7  C   UNL     1       4.720  28.292  54.440  1.00  0.00     0.139 A 
HETATM    8  N   UNL     1       5.002  27.240  55.189  1.00  0.00    -0.228 NA
HETATM    9  C   UNL     1       6.352  26.153  52.034  1.00  0.00     0.033 A 
HETATM   10  C   UNL     1       6.870  24.888  52.345  1.00  0.00     0.016 A 
ENDROOT
BRANCH   1  11
HETATM   11  C   UNL     1       7.411  23.009  53.888  1.00  0.00     0.069 C 
HETATM   12  C   UNL     1       7.733  22.584  55.315  1.00  0.00     0.045 C 
HETATM   13  C   UNL     1       9.090  23.170  55.712  1.00  0.00     0.017 C 
HETATM   14  C   UNL     1       7.717  21.068  55.420  1.00  0.00     0.115 C 
HETATM   15  C   UNL     1       8.420  20.416  54.264  1.00  0.00     0.238 C 
HETATM   16  N   UNL     1       8.332  21.079  53.070  1.00  0.00    -0.247 N 
HETATM   17  O   UNL     1       8.972  19.323  54.361  1.00  0.00    -0.272 OA
HETATM   18  N   UNL     1       7.741  22.285  52.859  1.00  0.00    -0.176 NA
HETATM   19  H   UNL     1       8.708  20.609  52.253  1.00  0.00     0.192 HD
ENDBRANCH   1  11
BRANCH   7  20
HETATM   20  C   UNL     1       4.008  29.497  54.873  1.00  0.00     0.010 A 
HETATM   21  C   UNL     1       3.569  30.418  53.914  1.00  0.00     0.018 A 
HETATM   22  C   UNL     1       2.904  31.586  54.297  1.00  0.00     0.037 A 
HETATM   23  C   UNL     1       2.650  31.851  55.643  1.00  0.00     0.068 A 
HETATM   24  C   UNL     1       3.069  30.933  56.606  1.00  0.00     0.037 A 
HETATM   25  C   UNL     1       3.743  29.765  56.223  1.00  0.00     0.018 A 
BRANCH  23  26
HETATM   26  O   UNL     1       1.993  33.025  55.883  1.00  0.00    -0.356 OA
HETATM   27  C   UNL     1       0.955  33.380  54.979  1.00  0.00     0.210 C 
ENDBRANCH  23  26
ENDBRANCH   7  20
TORSDOF 3
ENDMDL
MODEL 6
REMARK VINA RESULT:      -8.9      3.636      5.922
REMARK  3 active torsions:
REMARK  status: ('A' for Active; 'I' for Inactive)
REMARK    1  A    between atoms: C_3  and  C_4 
REMARK    2  A    between atoms: C_10  and  C_11 
REMARK    3  A    between atoms: C_14  and  O_15 
ROOT
HETATM    1  C   UNL     1       6.732  33.211  63.144  1.00  0.00    -0.007 A 
HETATM    2  C   UNL     1       6.252  32.963  61.851  1.00  0.00     0.047 A 
HETATM    3  C   UNL     1       7.005  32.134  61.003  1.00  0.00     0.086 A 
HETATM    4  C   UNL     1       8.193  31.584  61.459  1.00  0.00     0.063 A 
HETATM    5  N   UNL     1       8.655  30.854  60.394  1.00  0.00    -0.338 N 
HETATM    6  H   UNL     1       9.493  30.294  60.385  1.00  0.00     0.167 HD
HETATM    7  C   UNL     1       7.763  30.974  59.352  1.00  0.00     0.139 A 
HETATM    8  N   UNL     1       6.748  31.741  59.714  1.00  0.00    -0.228 NA
HETATM    9  C   UNL     1       8.693  31.791  62.742  1.00  0.00     0.033 A 
HETATM   10  C   UNL     1       7.932  32.619  63.578  1.00  0.00     0.016 A 
ENDROOT
BRANCH   1  11
HETATM   11  C   UNL     1       6.004  34.109  64.099  1.00  0.00     0.069 C 
HETATM   12  C   UNL     1       5.001  35.117  63.555  1.00  0.00     0.045 C 
HETATM   13  C   UNL     1       5.754  36.368  63.097  1.00  0.00     0.017 C 
HETATM   14  C   UNL     1       3.961  35.438  64.617  1.00  0.00     0.115 C 
HETATM   15  C   UNL     1       4.583  35.649  65.968  1.00  0.00     0.238 C 
HETATM   16  N   UNL     1       5.703  34.904  66.224  1.00  0.00    -0.247 N 
HETATM   17  O   UNL     1       4.080  36.379  66.818  1.00  0.00    -0.272 OA
HETATM   18  N   UNL     1       6.330  34.066  65.358  1.00  0.00    -0.176 NA
HETATM   19  H   UNL     1       6.081  34.950  67.165  1.00  0.00     0.192 HD
ENDBRANCH   1  11
BRANCH   7  20
HETATM   20  C   UNL     1       7.923  30.303  58.059  1.00  0.00     0.010 A 
HETATM   21  C   UNL     1       6.796  30.068  57.263  1.00  0.00     0.018 A 
HETATM   22  C   UNL     1       6.913  29.412  56.034  1.00  0.00     0.037 A 
HETATM   23  C   UNL     1       8.159  28.992  55.569  1.00  0.00     0.068 A 
HETATM   24  C   UNL     1       9.291  29.234  56.346  1.00  0.00     0.037 A 
HETATM   25  C   UNL     1       9.173  29.885  57.583  1.00  0.00     0.018 A 
BRANCH  23  26
HETATM   26  O   UNL     1       8.136  28.364  54.354  1.00  0.00    -0.356 OA
HETATM   27  C   UNL     1       6.867  27.945  53.869  1.00  0.00     0.210 C 
ENDBRANCH  23  26
ENDBRANCH   7  20
TORSDOF 3
ENDMDL
MODEL 7
REMARK VINA RESULT:      -8.8     15.192     17.140
REMARK  3 active torsions:
REMARK  status: ('A' for Active; 'I' for Inactive)
REMARK    1  A    between atoms: C_3  and  C_4 
REMARK    2  A    between atoms: C_10  and  C_11 
REMARK    3  A    between atoms: C_14  and  O_15 
ROOT
HETATM    1  C   UNL     1       6.674  24.304  53.853  1.00  0.00    -0.007 A 
HETATM    2  C   UNL     1       6.668  24.519  52.468  1.00  0.00     0.047 A 
HETATM    3  C   UNL     1       5.870  25.554  51.953  1.00  0.00     0.086 A 
HETATM    4  C   UNL     1       5.116  26.333  52.816  1.00  0.00     0.063 A 
HETATM    5  N   UNL     1       4.470  27.218  51.992  1.00  0.00    -0.338 N 
HETATM    6  H   UNL     1       3.852  27.956  52.291  1.00  0.00     0.167 HD
HETATM    7  C   UNL     1       4.839  26.964  50.690  1.00  0.00     0.139 A 
HETATM    8  N   UNL     1       5.700  25.961  50.654  1.00  0.00    -0.228 NA
HETATM    9  C   UNL     1       5.110  26.162  54.199  1.00  0.00     0.033 A 
HETATM   10  C   UNL     1       5.911  25.128  54.699  1.00  0.00     0.016 A 
ENDROOT
BRANCH   1  11
HETATM   11  C   UNL     1       7.475  23.201  54.478  1.00  0.00     0.069 C 
HETATM   12  C   UNL     1       8.462  22.419  53.621  1.00  0.00     0.045 C 
HETATM   13  C   UNL     1       7.706  21.321  52.872  1.00  0.00     0.017 C 
HETATM   14  C   UNL     1       9.570  21.851  54.494  1.00  0.00     0.115 C 
HETATM   15  C   UNL     1       9.035  21.251  55.763  1.00  0.00     0.238 C 
HETATM   16  N   UNL     1       7.919  21.856  56.276  1.00  0.00    -0.247 N 
HETATM   17  O   UNL     1       9.601  20.330  56.346  1.00  0.00    -0.272 OA
HETATM   18  N   UNL     1       7.225  22.880  55.715  1.00  0.00    -0.176 NA
HETATM   19  H   UNL     1       7.599  21.537  57.186  1.00  0.00     0.192 HD
ENDBRANCH   1  11
BRANCH   7  20
HETATM   20  C   UNL     1       4.363  27.737  49.541  1.00  0.00     0.010 A 
HETATM   21  C   UNL     1       4.859  29.029  49.329  1.00  0.00     0.018 A 
HETATM   22  C   UNL     1       4.409  29.800  48.252  1.00  0.00     0.037 A 
HETATM   23  C   UNL     1       3.468  29.290  47.357  1.00  0.00     0.068 A 
HETATM   24  C   UNL     1       2.978  27.999  47.550  1.00  0.00     0.037 A 
HETATM   25  C   UNL     1       3.423  27.229  48.634  1.00  0.00     0.018 A 
BRANCH  23  26
HETATM   26  O   UNL     1       3.113  30.144  46.350  1.00  0.00    -0.356 OA
HETATM   27  C   UNL     1       4.010  31.208  46.061  1.00  0.00     0.210 C 
ENDBRANCH  23  26
ENDBRANCH   7  20
TORSDOF 3
ENDMDL
MODEL 8
REMARK VINA RESULT:      -8.8      8.290     14.701
REMARK  3 active torsions:
REMARK  status: ('A' for Active; 'I' for Inactive)
REMARK    1  A    between atoms: C_3  and  C_4 
REMARK    2  A    between atoms: C_10  and  C_11 
REMARK    3  A    between atoms: C_14  and  O_15 
ROOT
HETATM    1  C   UNL     1       7.499  25.293  54.528  1.00  0.00    -0.007 A 
HETATM    2  C   UNL     1       7.236  25.749  55.827  1.00  0.00     0.047 A 
HETATM    3  C   UNL     1       7.065  27.128  56.033  1.00  0.00     0.086 A 
HETATM    4  C   UNL     1       7.155  27.998  54.958  1.00  0.00     0.063 A 
HETATM    5  N   UNL     1       6.948  29.236  55.511  1.00  0.00    -0.338 N 
HETATM    6  H   UNL     1       6.919  30.108  55.006  1.00  0.00     0.167 HD
HETATM    7  C   UNL     1       6.741  29.090  56.865  1.00  0.00     0.139 A 
HETATM    8  N   UNL     1       6.797  27.810  57.193  1.00  0.00    -0.228 NA
HETATM    9  C   UNL     1       7.396  27.583  53.651  1.00  0.00     0.033 A 
HETATM   10  C   UNL     1       7.564  26.205  53.459  1.00  0.00     0.016 A 
ENDROOT
BRANCH   1  11
HETATM   11  C   UNL     1       7.725  23.842  54.229  1.00  0.00     0.069 C 
HETATM   12  C   UNL     1       8.009  22.881  55.377  1.00  0.00     0.045 C 
HETATM   13  C   UNL     1       9.498  22.947  55.721  1.00  0.00     0.017 C 
HETATM   14  C   UNL     1       7.577  21.474  54.994  1.00  0.00     0.115 C 
HETATM   15  C   UNL     1       7.992  21.119  53.595  1.00  0.00     0.238 C 
HETATM   16  N   UNL     1       8.014  22.159  52.705  1.00  0.00    -0.247 N 
HETATM   17  O   UNL     1       8.222  19.963  53.249  1.00  0.00    -0.272 OA
HETATM   18  N   UNL     1       7.771  23.466  52.984  1.00  0.00    -0.176 NA
HETATM   19  H   UNL     1       8.189  21.929  51.731  1.00  0.00     0.192 HD
ENDBRANCH   1  11
BRANCH   7  20
HETATM   20  C   UNL     1       6.459  30.204  57.772  1.00  0.00     0.010 A 
HETATM   21  C   UNL     1       5.189  30.794  57.764  1.00  0.00     0.018 A 
HETATM   22  C   UNL     1       4.896  31.872  58.604  1.00  0.00     0.037 A 
HETATM   23  C   UNL     1       5.858  32.373  59.480  1.00  0.00     0.068 A 
HETATM   24  C   UNL     1       7.122  31.784  59.508  1.00  0.00     0.037 A 
HETATM   25  C   UNL     1       7.420  30.708  58.660  1.00  0.00     0.018 A 
BRANCH  23  26
HETATM   26  O   UNL     1       5.444  33.427  60.246  1.00  0.00    -0.356 OA
HETATM   27  C   UNL     1       5.938  33.491  61.577  1.00  0.00     0.210 C 
ENDBRANCH  23  26
ENDBRANCH   7  20
TORSDOF 3
ENDMDL
MODEL 9
REMARK VINA RESULT:      -8.5      2.418      9.179
REMARK  3 active torsions:
REMARK  status: ('A' for Active; 'I' for Inactive)
REMARK    1  A    between atoms: C_3  and  C_4 
REMARK    2  A    between atoms: C_10  and  C_11 
REMARK    3  A    between atoms: C_14  and  O_15 
ROOT
HETATM    1  C   UNL     1       4.510  33.916  64.491  1.00  0.00    -0.007 A 
HETATM    2  C   UNL     1       5.710  33.751  65.197  1.00  0.00     0.047 A 
HETATM    3  C   UNL     1       5.787  34.241  66.511  1.00  0.00     0.086 A 
HETATM    4  C   UNL     1       4.687  34.867  67.076  1.00  0.00     0.063 A 
HETATM    5  N   UNL     1       5.108  35.217  68.333  1.00  0.00    -0.338 N 
HETATM    6  H   UNL     1       4.548  35.671  69.036  1.00  0.00     0.167 HD
HETATM    7  C   UNL     1       6.412  34.804  68.496  1.00  0.00     0.139 A 
HETATM    8  N   UNL     1       6.833  34.198  67.398  1.00  0.00    -0.228 NA
HETATM    9  C   UNL     1       3.473  35.033  66.414  1.00  0.00     0.033 A 
HETATM   10  C   UNL     1       3.409  34.540  65.104  1.00  0.00     0.016 A 
ENDROOT
BRANCH   1  11
HETATM   11  C   UNL     1       4.356  33.450  63.074  1.00  0.00     0.069 C 
HETATM   12  C   UNL     1       5.308  33.977  62.009  1.00  0.00     0.045 C 
HETATM   13  C   UNL     1       4.802  35.335  61.520  1.00  0.00     0.017 C 
HETATM   14  C   UNL     1       5.424  32.972  60.873  1.00  0.00     0.115 C 
HETATM   15  C   UNL     1       4.087  32.414  60.478  1.00  0.00     0.238 C 
HETATM   16  N   UNL     1       3.176  32.289  61.492  1.00  0.00    -0.247 N 
HETATM   17  O   UNL     1       3.848  32.022  59.338  1.00  0.00    -0.272 OA
HETATM   18  N   UNL     1       3.345  32.684  62.782  1.00  0.00    -0.176 NA
HETATM   19  H   UNL     1       2.304  31.818  61.273  1.00  0.00     0.192 HD
ENDBRANCH   1  11
BRANCH   7  20
HETATM   20  C   UNL     1       7.178  34.986  69.731  1.00  0.00     0.010 A 
HETATM   21  C   UNL     1       7.524  36.279  70.141  1.00  0.00     0.018 A 
HETATM   22  C   UNL     1       8.271  36.484  71.305  1.00  0.00     0.037 A 
HETATM   23  C   UNL     1       8.675  35.404  72.090  1.00  0.00     0.068 A 
HETATM   24  C   UNL     1       8.323  34.112  71.700  1.00  0.00     0.037 A 
HETATM   25  C   UNL     1       7.581  33.906  70.528  1.00  0.00     0.018 A 
BRANCH  23  26
HETATM   26  O   UNL     1       9.399  35.741  73.200  1.00  0.00    -0.356 OA
HETATM   27  C   UNL     1       9.542  37.127  73.480  1.00  0.00     0.210 C 
ENDBRANCH  23  26
ENDBRANCH   7  20
TORSDOF 3
ENDMDL
MODEL 10
REMARK VINA RESULT:      -8.5      6.307     10.304
REMARK  3 active torsions:
REMARK  status: ('A' for Active; 'I' for Inactive)
REMARK    1  A    between atoms: C_3  and  C_4 
REMARK    2  A    between atoms: C_10  and  C_11 
REMARK    3  A    between atoms: C_14  and  O_15 
ROOT
HETATM    1  C   UNL     1       8.311  30.616  58.943  1.00  0.00    -0.007 A 
HETATM    2  C   UNL     1       7.257  30.003  58.251  1.00  0.00     0.047 A 
HETATM    3  C   UNL     1       7.515  29.454  56.984  1.00  0.00     0.086 A 
HETATM    4  C   UNL     1       8.792  29.527  56.452  1.00  0.00     0.063 A 
HETATM    5  N   UNL     1       8.683  28.913  55.231  1.00  0.00    -0.338 N 
HETATM    6  H   UNL     1       9.436  28.763  54.579  1.00  0.00     0.167 HD
HETATM    7  C   UNL     1       7.382  28.493  55.059  1.00  0.00     0.139 A 
HETATM    8  N   UNL     1       6.664  28.806  56.125  1.00  0.00    -0.228 NA
HETATM    9  C   UNL     1       9.869  30.111  57.115  1.00  0.00     0.033 A 
HETATM   10  C   UNL     1       9.599  30.653  58.378  1.00  0.00     0.016 A 
ENDROOT
BRANCH   1  11
HETATM   11  C   UNL     1       8.112  31.252  60.285  1.00  0.00     0.069 C 
HETATM   12  C   UNL     1       9.297  31.373  61.235  1.00  0.00     0.045 C 
HETATM   13  C   UNL     1       9.465  30.052  61.988  1.00  0.00     0.017 C 
HETATM   14  C   UNL     1       9.084  32.544  62.182  1.00  0.00     0.115 C 
HETATM   15  C   UNL     1       7.682  32.585  62.719  1.00  0.00     0.238 C 
HETATM   16  N   UNL     1       6.711  32.131  61.868  1.00  0.00    -0.247 N 
HETATM   17  O   UNL     1       7.411  33.066  63.817  1.00  0.00    -0.272 OA
HETATM   18  N   UNL     1       6.905  31.590  60.637  1.00  0.00    -0.176 NA
HETATM   19  H   UNL     1       5.747  32.246  62.165  1.00  0.00     0.192 HD
ENDBRANCH   1  11
BRANCH   7  20
HETATM   20  C   UNL     1       6.907  27.771  53.877  1.00  0.00     0.010 A 
HETATM   21  C   UNL     1       5.892  28.331  53.091  1.00  0.00     0.018 A 
HETATM   22  C   UNL     1       5.404  27.657  51.968  1.00  0.00     0.037 A 
HETATM   23  C   UNL     1       5.929  26.419  51.598  1.00  0.00     0.068 A 
HETATM   24  C   UNL     1       6.950  25.858  52.364  1.00  0.00     0.037 A 
HETATM   25  C   UNL     1       7.435  26.530  53.495  1.00  0.00     0.018 A 
BRANCH  23  26
HETATM   26  O   UNL     1       5.364  25.867  50.482  1.00  0.00    -0.356 OA
HETATM   27  C   UNL     1       4.587  26.727  49.659  1.00  0.00     0.210 C 
ENDBRANCH  23  26
ENDBRANCH   7  20
TORSDOF 3
ENDMDL
