MODEL 1
REMARK VINA RESULT:      -9.3      0.000      0.000
REMARK  7 active torsions:
REMARK  status: ('A' for Active; 'I' for Inactive)
REMARK    1  A    between atoms: C_4  and  O_5 
REMARK    2  A    between atoms: O_5  and  C_6 
REMARK    3  A    between atoms: C_9  and  N_10 
REMARK       I    between atoms: N_10  and  C_11 
REMARK    4  A    between atoms: C_11  and  C_12 
REMARK    5  A    between atoms: C_12  and  C_13 
REMARK    6  A    between atoms: C_13  and  N_14 
REMARK       I    between atoms: N_14  and  C_15 
REMARK    7  A    between atoms: C_15  and  C_16 
ROOT
HETATM    1  N   UNL     1       6.653  28.462  56.453  1.00  0.00    -0.327 N 
HETATM    2  C   UNL     1       7.422  28.768  57.559  1.00  0.00     0.223 C 
HETATM    3  O   UNL     1       8.314  28.082  58.051  1.00  0.00    -0.273 OA
HETATM    4  H   UNL     1       6.036  29.204  56.122  1.00  0.00     0.169 HD
ENDROOT
BRANCH   1   5
HETATM    5  C   UNL     1       6.675  27.278  55.690  1.00  0.00     0.034 A 
HETATM    6  C   UNL     1       7.590  27.029  54.667  1.00  0.00     0.032 A 
HETATM    7  C   UNL     1       7.550  25.822  53.960  1.00  0.00     0.039 A 
HETATM    8  C   UNL     1       6.598  24.850  54.270  1.00  0.00     0.076 A 
HETATM    9  C   UNL     1       5.670  25.099  55.281  1.00  0.00     0.039 A 
HETATM   10  C   UNL     1       5.718  26.302  55.995  1.00  0.00     0.032 A 
BRANCH   8  11
HETATM   11  O   UNL     1       6.624  23.722  53.478  1.00  0.00    -0.311 OA
BRANCH  11  12
HETATM   12  C   UNL     1       7.377  22.652  53.891  1.00  0.00     0.076 A 
HETATM   13  C   UNL     1       7.526  22.457  55.265  1.00  0.00     0.037 A 
HETATM   14  C   UNL     1       8.244  21.357  55.734  1.00  0.00     0.003 A 
HETATM   15  C   UNL     1       8.795  20.448  54.830  1.00  0.00     0.000 A 
HETATM   16  C   UNL     1       8.622  20.631  53.456  1.00  0.00     0.003 A 
HETATM   17  C   UNL     1       7.902  21.731  52.984  1.00  0.00     0.037 A 
ENDBRANCH  11  12
ENDBRANCH   8  11
ENDBRANCH   1   5
BRANCH   2  18
HETATM   18  C   UNL     1       7.081  30.116  58.152  1.00  0.00     0.123 C 
BRANCH  18  19
HETATM   19  C   UNL     1       8.041  30.516  59.264  1.00  0.00     0.132 C 
BRANCH  19  20
HETATM   20  N   UNL     1       7.489  30.952  60.537  1.00  0.00    -0.355 N 
HETATM   21  C   UNL     1       8.185  31.074  61.721  1.00  0.00     0.275 C 
HETATM   22  O   UNL     1       9.271  30.533  61.910  1.00  0.00    -0.265 OA
HETATM   23  H   UNL     1       6.623  31.481  60.502  1.00  0.00     0.162 HD
BRANCH  21  24
HETATM   24  C   UNL     1       7.509  31.873  62.722  1.00  0.00     0.142 A 
HETATM   25  O   UNL     1       6.137  31.894  62.755  1.00  0.00    -0.317 OA
HETATM   26  C   UNL     1       5.773  32.723  63.768  1.00  0.00     0.143 A 
HETATM   27  C   UNL     1       6.885  33.242  64.389  1.00  0.00     0.027 A 
HETATM   28  C   UNL     1       8.004  32.696  63.715  1.00  0.00     0.045 A 
ENDBRANCH  21  24
ENDBRANCH  19  20
ENDBRANCH  18  19
ENDBRANCH   2  18
TORSDOF 7
ENDMDL
MODEL 2
REMARK VINA RESULT:      -9.1      2.049      2.837
REMARK  7 active torsions:
REMARK  status: ('A' for Active; 'I' for Inactive)
REMARK    1  A    between atoms: C_4  and  O_5 
REMARK    2  A    between atoms: O_5  and  C_6 
REMARK    3  A    between atoms: C_9  and  N_10 
REMARK       I    between atoms: N_10  and  C_11 
REMARK    4  A    between atoms: C_11  and  C_12 
REMARK    5  A    between atoms: C_12  and  C_13 
REMARK    6  A    between atoms: C_13  and  N_14 
REMARK       I    between atoms: N_14  and  C_15 
REMARK    7  A    between atoms: C_15  and  C_16 
ROOT
HETATM    1  N   UNL     1       5.624  28.008  57.362  1.00  0.00    -0.327 N 
HETATM    2  C   UNL     1       5.317  28.993  56.443  1.00  0.00     0.223 C 
HETATM    3  O   UNL     1       5.616  29.012  55.253  1.00  0.00    -0.273 OA
HETATM    4  H   UNL     1       5.194  28.108  58.282  1.00  0.00     0.169 HD
ENDROOT
BRANCH   1   5
HETATM    5  C   UNL     1       6.395  26.848  57.155  1.00  0.00     0.034 A 
HETATM    6  C   UNL     1       7.765  26.771  57.405  1.00  0.00     0.032 A 
HETATM    7  C   UNL     1       8.459  25.576  57.182  1.00  0.00     0.039 A 
HETATM    8  C   UNL     1       7.792  24.445  56.710  1.00  0.00     0.076 A 
HETATM    9  C   UNL     1       6.425  24.520  56.443  1.00  0.00     0.039 A 
HETATM   10  C   UNL     1       5.729  25.712  56.678  1.00  0.00     0.032 A 
BRANCH   8  11
HETATM   11  O   UNL     1       8.584  23.341  56.484  1.00  0.00    -0.311 OA
BRANCH  11  12
HETATM   12  C   UNL     1       8.308  22.552  55.396  1.00  0.00     0.076 A 
HETATM   13  C   UNL     1       8.289  23.162  54.141  1.00  0.00     0.037 A 
HETATM   14  C   UNL     1       8.059  22.392  53.000  1.00  0.00     0.003 A 
HETATM   15  C   UNL     1       7.866  21.015  53.117  1.00  0.00     0.000 A 
HETATM   16  C   UNL     1       7.912  20.403  54.371  1.00  0.00     0.003 A 
HETATM   17  C   UNL     1       8.144  21.170  55.514  1.00  0.00     0.037 A 
ENDBRANCH  11  12
ENDBRANCH   8  11
ENDBRANCH   1   5
BRANCH   2  18
HETATM   18  C   UNL     1       4.507  30.119  57.045  1.00  0.00     0.123 C 
BRANCH  18  19
HETATM   19  C   UNL     1       5.383  31.278  57.502  1.00  0.00     0.132 C 
BRANCH  19  20
HETATM   20  N   UNL     1       6.159  31.126  58.722  1.00  0.00    -0.355 N 
HETATM   21  C   UNL     1       7.489  30.773  58.796  1.00  0.00     0.275 C 
HETATM   22  O   UNL     1       8.087  30.244  57.863  1.00  0.00    -0.265 OA
HETATM   23  H   UNL     1       5.800  31.591  59.552  1.00  0.00     0.162 HD
BRANCH  21  24
HETATM   24  C   UNL     1       8.105  31.060  60.075  1.00  0.00     0.142 A 
HETATM   25  O   UNL     1       8.929  30.127  60.652  1.00  0.00    -0.317 OA
HETATM   26  C   UNL     1       9.351  30.642  61.836  1.00  0.00     0.143 A 
HETATM   27  C   UNL     1       8.813  31.891  62.038  1.00  0.00     0.027 A 
HETATM   28  C   UNL     1       8.009  32.162  60.905  1.00  0.00     0.045 A 
ENDBRANCH  21  24
ENDBRANCH  19  20
ENDBRANCH  18  19
ENDBRANCH   2  18
TORSDOF 7
ENDMDL
MODEL 3
REMARK VINA RESULT:      -9.0      2.277     10.046
REMARK  7 active torsions:
REMARK  status: ('A' for Active; 'I' for Inactive)
REMARK    1  A    between atoms: C_4  and  O_5 
REMARK    2  A    between atoms: O_5  and  C_6 
REMARK    3  A    between atoms: C_9  and  N_10 
REMARK       I    between atoms: N_10  and  C_11 
REMARK    4  A    between atoms: C_11  and  C_12 
REMARK    5  A    between atoms: C_12  and  C_13 
REMARK    6  A    between atoms: C_13  and  N_14 
REMARK       I    between atoms: N_14  and  C_15 
REMARK    7  A    between atoms: C_15  and  C_16 
ROOT
HETATM    1  N   UNL     1       7.410  27.762  55.030  1.00  0.00    -0.327 N 
HETATM    2  C   UNL     1       6.204  28.020  54.408  1.00  0.00     0.223 C 
HETATM    3  O   UNL     1       5.476  28.992  54.583  1.00  0.00    -0.273 OA
HETATM    4  H   UNL     1       7.931  26.960  54.675  1.00  0.00     0.169 HD
ENDROOT
BRANCH   1   5
HETATM    5  C   UNL     1       8.037  28.517  56.041  1.00  0.00     0.034 A 
HETATM    6  C   UNL     1       9.216  29.238  55.855  1.00  0.00     0.032 A 
HETATM    7  C   UNL     1       9.771  29.971  56.910  1.00  0.00     0.039 A 
HETATM    8  C   UNL     1       9.152  29.995  58.161  1.00  0.00     0.076 A 
HETATM    9  C   UNL     1       7.981  29.264  58.358  1.00  0.00     0.039 A 
HETATM   10  C   UNL     1       7.420  28.540  57.298  1.00  0.00     0.032 A 
BRANCH   8  11
HETATM   11  O   UNL     1       9.812  30.712  59.135  1.00  0.00    -0.311 OA
BRANCH  11  12
HETATM   12  C   UNL     1       9.094  31.160  60.214  1.00  0.00     0.076 A 
HETATM   13  C   UNL     1       9.214  30.453  61.411  1.00  0.00     0.037 A 
HETATM   14  C   UNL     1       8.540  30.898  62.549  1.00  0.00     0.003 A 
HETATM   15  C   UNL     1       7.762  32.055  62.489  1.00  0.00     0.000 A 
HETATM   16  C   UNL     1       7.665  32.775  61.297  1.00  0.00     0.003 A 
HETATM   17  C   UNL     1       8.340  32.334  60.157  1.00  0.00     0.037 A 
ENDBRANCH  11  12
ENDBRANCH   8  11
ENDBRANCH   1   5
BRANCH   2  18
HETATM   18  C   UNL     1       5.826  26.953  53.405  1.00  0.00     0.123 C 
BRANCH  18  19
HETATM   19  C   UNL     1       5.407  25.653  54.078  1.00  0.00     0.132 C 
BRANCH  19  20
HETATM   20  N   UNL     1       6.147  24.440  53.770  1.00  0.00    -0.355 N 
HETATM   21  C   UNL     1       7.279  23.996  54.419  1.00  0.00     0.275 C 
HETATM   22  O   UNL     1       7.970  24.729  55.122  1.00  0.00    -0.265 OA
HETATM   23  H   UNL     1       5.650  23.720  53.254  1.00  0.00     0.162 HD
BRANCH  21  24
HETATM   24  C   UNL     1       7.590  22.602  54.177  1.00  0.00     0.142 A 
HETATM   25  O   UNL     1       7.641  21.729  55.235  1.00  0.00    -0.317 OA
HETATM   26  C   UNL     1       7.963  20.509  54.731  1.00  0.00     0.143 A 
HETATM   27  C   UNL     1       8.124  20.577  53.368  1.00  0.00     0.027 A 
HETATM   28  C   UNL     1       7.884  21.925  53.009  1.00  0.00     0.045 A 
ENDBRANCH  21  24
ENDBRANCH  19  20
ENDBRANCH  18  19
ENDBRANCH   2  18
TORSDOF 7
ENDMDL
MODEL 4
REMARK VINA RESULT:      -8.9      2.269      3.104
REMARK  7 active torsions:
REMARK  status: ('A' for Active; 'I' for Inactive)
REMARK    1  A    between atoms: C_4  and  O_5 
REMARK    2  A    between atoms: O_5  and  C_6 
REMARK    3  A    between atoms: C_9  and  N_10 
REMARK       I    between atoms: N_10  and  C_11 
REMARK    4  A    between atoms: C_11  and  C_12 
REMARK    5  A    between atoms: C_12  and  C_13 
REMARK    6  A    between atoms: C_13  and  N_14 
REMARK       I    between atoms: N_14  and  C_15 
REMARK    7  A    between atoms: C_15  and  C_16 
ROOT
HETATM    1  N   UNL     1       4.855  28.293  57.341  1.00  0.00    -0.327 N 
HETATM    2  C   UNL     1       4.929  29.563  56.802  1.00  0.00     0.223 C 
HETATM    3  O   UNL     1       5.764  29.980  56.006  1.00  0.00    -0.273 OA
HETATM    4  H   UNL     1       4.025  28.094  57.899  1.00  0.00     0.169 HD
ENDROOT
BRANCH   1   5
HETATM    5  C   UNL     1       5.751  27.223  57.149  1.00  0.00     0.034 A 
HETATM    6  C   UNL     1       7.131  27.323  57.323  1.00  0.00     0.032 A 
HETATM    7  C   UNL     1       7.953  26.209  57.120  1.00  0.00     0.039 A 
HETATM    8  C   UNL     1       7.404  24.981  56.745  1.00  0.00     0.076 A 
HETATM    9  C   UNL     1       6.026  24.878  56.555  1.00  0.00     0.039 A 
HETATM   10  C   UNL     1       5.204  25.991  56.769  1.00  0.00     0.032 A 
BRANCH   8  11
HETATM   11  O   UNL     1       8.312  23.968  56.530  1.00  0.00    -0.311 OA
BRANCH  11  12
HETATM   12  C   UNL     1       8.205  23.230  55.378  1.00  0.00     0.076 A 
HETATM   13  C   UNL     1       8.036  21.851  55.506  1.00  0.00     0.037 A 
HETATM   14  C   UNL     1       7.876  21.064  54.365  1.00  0.00     0.003 A 
HETATM   15  C   UNL     1       7.868  21.661  53.103  1.00  0.00     0.000 A 
HETATM   16  C   UNL     1       8.011  23.044  52.980  1.00  0.00     0.003 A 
HETATM   17  C   UNL     1       8.170  23.834  54.120  1.00  0.00     0.037 A 
ENDBRANCH  11  12
ENDBRANCH   8  11
ENDBRANCH   1   5
BRANCH   2  18
HETATM   18  C   UNL     1       3.812  30.464  57.279  1.00  0.00     0.123 C 
BRANCH  18  19
HETATM   19  C   UNL     1       4.193  31.241  58.532  1.00  0.00     0.132 C 
BRANCH  19  20
HETATM   20  N   UNL     1       5.595  31.553  58.758  1.00  0.00    -0.355 N 
HETATM   21  C   UNL     1       6.092  32.366  59.754  1.00  0.00     0.275 C 
HETATM   22  O   UNL     1       5.391  33.167  60.367  1.00  0.00    -0.265 OA
HETATM   23  H   UNL     1       6.275  30.912  58.361  1.00  0.00     0.162 HD
BRANCH  21  24
HETATM   24  C   UNL     1       7.512  32.208  59.990  1.00  0.00     0.142 A 
HETATM   25  O   UNL     1       8.350  31.972  58.929  1.00  0.00    -0.317 OA
HETATM   26  C   UNL     1       9.607  31.851  59.431  1.00  0.00     0.143 A 
HETATM   27  C   UNL     1       9.597  32.003  60.798  1.00  0.00     0.027 A 
HETATM   28  C   UNL     1       8.248  32.232  61.159  1.00  0.00     0.045 A 
ENDBRANCH  21  24
ENDBRANCH  19  20
ENDBRANCH  18  19
ENDBRANCH   2  18
TORSDOF 7
ENDMDL
MODEL 5
REMARK VINA RESULT:      -8.8      3.009      3.955
REMARK  7 active torsions:
REMARK  status: ('A' for Active; 'I' for Inactive)
REMARK    1  A    between atoms: C_4  and  O_5 
REMARK    2  A    between atoms: O_5  and  C_6 
REMARK    3  A    between atoms: C_9  and  N_10 
REMARK       I    between atoms: N_10  and  C_11 
REMARK    4  A    between atoms: C_11  and  C_12 
REMARK    5  A    between atoms: C_12  and  C_13 
REMARK    6  A    between atoms: C_13  and  N_14 
REMARK       I    between atoms: N_14  and  C_15 
REMARK    7  A    between atoms: C_15  and  C_16 
ROOT
HETATM    1  N   UNL     1       5.659  27.825  55.522  1.00  0.00    -0.327 N 
HETATM    2  C   UNL     1       4.677  28.719  55.144  1.00  0.00     0.223 C 
HETATM    3  O   UNL     1       4.012  28.694  54.113  1.00  0.00    -0.273 OA
HETATM    4  H   UNL     1       6.026  27.940  56.467  1.00  0.00     0.169 HD
ENDROOT
BRANCH   1   5
HETATM    5  C   UNL     1       6.158  26.732  54.787  1.00  0.00     0.034 A 
HETATM    6  C   UNL     1       5.626  25.444  54.851  1.00  0.00     0.032 A 
HETATM    7  C   UNL     1       6.175  24.412  54.080  1.00  0.00     0.039 A 
HETATM    8  C   UNL     1       7.258  24.657  53.235  1.00  0.00     0.076 A 
HETATM    9  C   UNL     1       7.804  25.940  53.177  1.00  0.00     0.039 A 
HETATM   10  C   UNL     1       7.247  26.973  53.940  1.00  0.00     0.032 A 
BRANCH   8  11
HETATM   11  O   UNL     1       7.743  23.558  52.560  1.00  0.00    -0.311 OA
BRANCH  11  12
HETATM   12  C   UNL     1       8.134  22.465  53.291  1.00  0.00     0.076 A 
HETATM   13  C   UNL     1       7.890  21.202  52.748  1.00  0.00     0.037 A 
HETATM   14  C   UNL     1       8.311  20.062  53.432  1.00  0.00     0.003 A 
HETATM   15  C   UNL     1       8.988  20.188  54.646  1.00  0.00     0.000 A 
HETATM   16  C   UNL     1       9.254  21.453  55.174  1.00  0.00     0.003 A 
HETATM   17  C   UNL     1       8.836  22.597  54.490  1.00  0.00     0.037 A 
ENDBRANCH  11  12
ENDBRANCH   8  11
ENDBRANCH   1   5
BRANCH   2  18
HETATM   18  C   UNL     1       4.444  29.799  56.177  1.00  0.00     0.123 C 
BRANCH  18  19
HETATM   19  C   UNL     1       5.026  29.433  57.535  1.00  0.00     0.132 C 
BRANCH  19  20
HETATM   20  N   UNL     1       6.361  29.902  57.870  1.00  0.00    -0.355 N 
HETATM   21  C   UNL     1       7.490  29.119  57.978  1.00  0.00     0.275 C 
HETATM   22  O   UNL     1       7.441  27.899  58.110  1.00  0.00    -0.265 OA
HETATM   23  H   UNL     1       6.547  30.890  57.727  1.00  0.00     0.162 HD
BRANCH  21  24
HETATM   24  C   UNL     1       8.731  29.866  57.945  1.00  0.00     0.142 A 
HETATM   25  O   UNL     1       8.836  31.030  58.664  1.00  0.00    -0.317 OA
HETATM   26  C   UNL     1      10.083  31.524  58.444  1.00  0.00     0.143 A 
HETATM   27  C   UNL     1      10.784  30.703  57.593  1.00  0.00     0.027 A 
HETATM   28  C   UNL     1       9.914  29.635  57.270  1.00  0.00     0.045 A 
ENDBRANCH  21  24
ENDBRANCH  19  20
ENDBRANCH  18  19
ENDBRANCH   2  18
TORSDOF 7
ENDMDL
MODEL 6
REMARK VINA RESULT:      -8.7      1.452      2.118
REMARK  7 active torsions:
REMARK  status: ('A' for Active; 'I' for Inactive)
REMARK    1  A    between atoms: C_4  and  O_5 
REMARK    2  A    between atoms: O_5  and  C_6 
REMARK    3  A    between atoms: C_9  and  N_10 
REMARK       I    between atoms: N_10  and  C_11 
REMARK    4  A    between atoms: C_11  and  C_12 
REMARK    5  A    between atoms: C_12  and  C_13 
REMARK    6  A    between atoms: C_13  and  N_14 
REMARK       I    between atoms: N_14  and  C_15 
REMARK    7  A    between atoms: C_15  and  C_16 
ROOT
HETATM    1  N   UNL     1       6.578  29.446  57.707  1.00  0.00    -0.327 N 
HETATM    2  C   UNL     1       7.428  30.087  58.587  1.00  0.00     0.223 C 
HETATM    3  O   UNL     1       8.359  29.588  59.212  1.00  0.00    -0.273 OA
HETATM    4  H   UNL     1       5.933  30.047  57.194  1.00  0.00     0.169 HD
ENDROOT
BRANCH   1   5
HETATM    5  C   UNL     1       6.547  28.075  57.384  1.00  0.00     0.034 A 
HETATM    6  C   UNL     1       5.380  27.374  57.082  1.00  0.00     0.032 A 
HETATM    7  C   UNL     1       5.436  26.012  56.762  1.00  0.00     0.039 A 
HETATM    8  C   UNL     1       6.658  25.339  56.736  1.00  0.00     0.076 A 
HETATM    9  C   UNL     1       7.827  26.031  57.052  1.00  0.00     0.039 A 
HETATM   10  C   UNL     1       7.771  27.396  57.361  1.00  0.00     0.032 A 
BRANCH   8  11
HETATM   11  O   UNL     1       6.586  23.992  56.453  1.00  0.00    -0.311 OA
BRANCH  11  12
HETATM   12  C   UNL     1       7.154  23.539  55.289  1.00  0.00     0.076 A 
HETATM   13  C   UNL     1       8.037  22.463  55.376  1.00  0.00     0.037 A 
HETATM   14  C   UNL     1       8.604  21.937  54.215  1.00  0.00     0.003 A 
HETATM   15  C   UNL     1       8.272  22.477  52.972  1.00  0.00     0.000 A 
HETATM   16  C   UNL     1       7.367  23.537  52.885  1.00  0.00     0.003 A 
HETATM   17  C   UNL     1       6.797  24.064  54.046  1.00  0.00     0.037 A 
ENDBRANCH  11  12
ENDBRANCH   8  11
ENDBRANCH   1   5
BRANCH   2  18
HETATM   18  C   UNL     1       7.126  31.563  58.718  1.00  0.00     0.123 C 
BRANCH  18  19
HETATM   19  C   UNL     1       7.901  32.211  59.858  1.00  0.00     0.132 C 
BRANCH  19  20
HETATM   20  N   UNL     1       7.238  32.385  61.140  1.00  0.00    -0.355 N 
HETATM   21  C   UNL     1       7.764  32.064  62.373  1.00  0.00     0.275 C 
HETATM   22  O   UNL     1       8.723  31.308  62.508  1.00  0.00    -0.265 OA
HETATM   23  H   UNL     1       6.472  33.051  61.171  1.00  0.00     0.162 HD
BRANCH  21  24
HETATM   24  C   UNL     1       7.072  32.676  63.487  1.00  0.00     0.142 A 
HETATM   25  O   UNL     1       5.699  32.684  63.507  1.00  0.00    -0.317 OA
HETATM   26  C   UNL     1       5.319  33.326  64.643  1.00  0.00     0.143 A 
HETATM   27  C   UNL     1       6.420  33.737  65.356  1.00  0.00     0.027 A 
HETATM   28  C   UNL     1       7.550  33.320  64.613  1.00  0.00     0.045 A 
ENDBRANCH  21  24
ENDBRANCH  19  20
ENDBRANCH  18  19
ENDBRANCH   2  18
TORSDOF 7
ENDMDL
MODEL 7
REMARK VINA RESULT:      -8.5      1.712      2.803
REMARK  7 active torsions:
REMARK  status: ('A' for Active; 'I' for Inactive)
REMARK    1  A    between atoms: C_4  and  O_5 
REMARK    2  A    between atoms: O_5  and  C_6 
REMARK    3  A    between atoms: C_9  and  N_10 
REMARK       I    between atoms: N_10  and  C_11 
REMARK    4  A    between atoms: C_11  and  C_12 
REMARK    5  A    between atoms: C_12  and  C_13 
REMARK    6  A    between atoms: C_13  and  N_14 
REMARK       I    between atoms: N_14  and  C_15 
REMARK    7  A    between atoms: C_15  and  C_16 
ROOT
HETATM    1  N   UNL     1       6.295  28.477  55.450  1.00  0.00    -0.327 N 
HETATM    2  C   UNL     1       5.362  29.448  55.144  1.00  0.00     0.223 C 
HETATM    3  O   UNL     1       4.495  29.392  54.278  1.00  0.00    -0.273 OA
HETATM    4  H   UNL     1       6.865  28.652  56.278  1.00  0.00     0.169 HD
ENDROOT
BRANCH   1   5
HETATM    5  C   UNL     1       6.500  27.244  54.800  1.00  0.00     0.034 A 
HETATM    6  C   UNL     1       7.537  27.003  53.899  1.00  0.00     0.032 A 
HETATM    7  C   UNL     1       7.676  25.746  53.301  1.00  0.00     0.039 A 
HETATM    8  C   UNL     1       6.785  24.714  53.600  1.00  0.00     0.076 A 
HETATM    9  C   UNL     1       5.736  24.953  54.488  1.00  0.00     0.039 A 
HETATM   10  C   UNL     1       5.604  26.209  55.095  1.00  0.00     0.032 A 
BRANCH   8  11
HETATM   11  O   UNL     1       6.992  23.535  52.917  1.00  0.00    -0.311 OA
BRANCH  11  12
HETATM   12  C   UNL     1       7.523  22.471  53.601  1.00  0.00     0.076 A 
HETATM   13  C   UNL     1       7.949  21.370  52.857  1.00  0.00     0.037 A 
HETATM   14  C   UNL     1       8.538  20.283  53.503  1.00  0.00     0.003 A 
HETATM   15  C   UNL     1       8.713  20.308  54.887  1.00  0.00     0.000 A 
HETATM   16  C   UNL     1       8.309  21.422  55.627  1.00  0.00     0.003 A 
HETATM   17  C   UNL     1       7.722  22.512  54.982  1.00  0.00     0.037 A 
ENDBRANCH  11  12
ENDBRANCH   8  11
ENDBRANCH   1   5
BRANCH   2  18
HETATM   18  C   UNL     1       5.476  30.667  56.033  1.00  0.00     0.123 C 
BRANCH  18  19
HETATM   19  C   UNL     1       5.076  30.370  57.472  1.00  0.00     0.132 C 
BRANCH  19  20
HETATM   20  N   UNL     1       6.022  30.668  58.534  1.00  0.00    -0.355 N 
HETATM   21  C   UNL     1       7.316  30.200  58.619  1.00  0.00     0.275 C 
HETATM   22  O   UNL     1       7.715  29.232  57.976  1.00  0.00    -0.265 OA
HETATM   23  H   UNL     1       5.838  31.497  59.090  1.00  0.00     0.162 HD
BRANCH  21  24
HETATM   24  C   UNL     1       8.149  30.934  59.549  1.00  0.00     0.142 A 
HETATM   25  O   UNL     1       7.695  31.165  60.823  1.00  0.00    -0.317 OA
HETATM   26  C   UNL     1       8.656  31.879  61.467  1.00  0.00     0.143 A 
HETATM   27  C   UNL     1       9.721  32.116  60.632  1.00  0.00     0.027 A 
HETATM   28  C   UNL     1       9.396  31.509  59.395  1.00  0.00     0.045 A 
ENDBRANCH  21  24
ENDBRANCH  19  20
ENDBRANCH  18  19
ENDBRANCH   2  18
TORSDOF 7
ENDMDL
MODEL 8
REMARK VINA RESULT:      -8.3      5.345      9.216
REMARK  7 active torsions:
REMARK  status: ('A' for Active; 'I' for Inactive)
REMARK    1  A    between atoms: C_4  and  O_5 
REMARK    2  A    between atoms: O_5  and  C_6 
REMARK    3  A    between atoms: C_9  and  N_10 
REMARK       I    between atoms: N_10  and  C_11 
REMARK    4  A    between atoms: C_11  and  C_12 
REMARK    5  A    between atoms: C_12  and  C_13 
REMARK    6  A    between atoms: C_13  and  N_14 
REMARK       I    between atoms: N_14  and  C_15 
REMARK    7  A    between atoms: C_15  and  C_16 
ROOT
HETATM    1  N   UNL     1       5.018  26.490  54.488  1.00  0.00    -0.327 N 
HETATM    2  C   UNL     1       6.047  26.688  55.389  1.00  0.00     0.223 C 
HETATM    3  O   UNL     1       7.127  27.226  55.169  1.00  0.00    -0.273 OA
HETATM    4  H   UNL     1       4.148  26.126  54.879  1.00  0.00     0.169 HD
ENDROOT
BRANCH   1   5
HETATM    5  C   UNL     1       5.004  26.801  53.115  1.00  0.00     0.034 A 
HETATM    6  C   UNL     1       4.889  28.097  52.612  1.00  0.00     0.032 A 
HETATM    7  C   UNL     1       4.892  28.323  51.231  1.00  0.00     0.039 A 
HETATM    8  C   UNL     1       5.013  27.257  50.337  1.00  0.00     0.076 A 
HETATM    9  C   UNL     1       5.112  25.957  50.833  1.00  0.00     0.039 A 
HETATM   10  C   UNL     1       5.121  25.734  52.216  1.00  0.00     0.032 A 
BRANCH   8  11
HETATM   11  O   UNL     1       4.957  27.594  49.002  1.00  0.00    -0.311 OA
BRANCH  11  12
HETATM   12  C   UNL     1       3.785  27.378  48.323  1.00  0.00     0.076 A 
HETATM   13  C   UNL     1       3.693  26.228  47.538  1.00  0.00     0.037 A 
HETATM   14  C   UNL     1       2.505  25.941  46.866  1.00  0.00     0.003 A 
HETATM   15  C   UNL     1       1.409  26.796  46.995  1.00  0.00     0.000 A 
HETATM   16  C   UNL     1       1.495  27.932  47.803  1.00  0.00     0.003 A 
HETATM   17  C   UNL     1       2.682  28.220  48.478  1.00  0.00     0.037 A 
ENDBRANCH  11  12
ENDBRANCH   8  11
ENDBRANCH   1   5
BRANCH   2  18
HETATM   18  C   UNL     1       5.715  26.177  56.773  1.00  0.00     0.123 C 
BRANCH  18  19
HETATM   19  C   UNL     1       6.461  24.892  57.107  1.00  0.00     0.132 C 
BRANCH  19  20
HETATM   20  N   UNL     1       6.912  24.045  56.015  1.00  0.00    -0.355 N 
HETATM   21  C   UNL     1       8.105  23.358  55.965  1.00  0.00     0.275 C 
HETATM   22  O   UNL     1       9.058  23.629  56.691  1.00  0.00    -0.265 OA
HETATM   23  H   UNL     1       6.197  23.691  55.387  1.00  0.00     0.162 HD
BRANCH  21  24
HETATM   24  C   UNL     1       8.141  22.310  54.966  1.00  0.00     0.142 A 
HETATM   25  O   UNL     1       8.766  21.123  55.255  1.00  0.00    -0.317 OA
HETATM   26  C   UNL     1       8.664  20.337  54.151  1.00  0.00     0.143 A 
HETATM   27  C   UNL     1       7.986  20.995  53.152  1.00  0.00     0.027 A 
HETATM   28  C   UNL     1       7.649  22.267  53.675  1.00  0.00     0.045 A 
ENDBRANCH  21  24
ENDBRANCH  19  20
ENDBRANCH  18  19
ENDBRANCH   2  18
TORSDOF 7
ENDMDL
MODEL 9
REMARK VINA RESULT:      -8.3      2.917     10.690
REMARK  7 active torsions:
REMARK  status: ('A' for Active; 'I' for Inactive)
REMARK    1  A    between atoms: C_4  and  O_5 
REMARK    2  A    between atoms: O_5  and  C_6 
REMARK    3  A    between atoms: C_9  and  N_10 
REMARK       I    between atoms: N_10  and  C_11 
REMARK    4  A    between atoms: C_11  and  C_12 
REMARK    5  A    between atoms: C_12  and  C_13 
REMARK    6  A    between atoms: C_13  and  N_14 
REMARK       I    between atoms: N_14  and  C_15 
REMARK    7  A    between atoms: C_15  and  C_16 
ROOT
HETATM    1  N   UNL     1       9.123  30.551  59.562  1.00  0.00    -0.327 N 
HETATM    2  C   UNL     1       9.922  31.117  58.587  1.00  0.00     0.223 C 
HETATM    3  O   UNL     1      10.234  32.299  58.482  1.00  0.00    -0.273 OA
HETATM    4  H   UNL     1       9.066  29.533  59.554  1.00  0.00     0.169 HD
ENDROOT
BRANCH   1   5
HETATM    5  C   UNL     1       8.443  31.208  60.605  1.00  0.00     0.034 A 
HETATM    6  C   UNL     1       8.959  31.367  61.891  1.00  0.00     0.032 A 
HETATM    7  C   UNL     1       8.222  32.041  62.872  1.00  0.00     0.039 A 
HETATM    8  C   UNL     1       6.963  32.567  62.577  1.00  0.00     0.076 A 
HETATM    9  C   UNL     1       6.434  32.398  61.297  1.00  0.00     0.039 A 
HETATM   10  C   UNL     1       7.178  31.733  60.314  1.00  0.00     0.032 A 
BRANCH   8  11
HETATM   11  O   UNL     1       6.311  33.169  63.631  1.00  0.00    -0.311 OA
BRANCH  11  12
HETATM   12  C   UNL     1       5.418  34.174  63.357  1.00  0.00     0.076 A 
HETATM   13  C   UNL     1       5.932  35.400  62.936  1.00  0.00     0.037 A 
HETATM   14  C   UNL     1       5.062  36.438  62.601  1.00  0.00     0.003 A 
HETATM   15  C   UNL     1       3.682  36.239  62.673  1.00  0.00     0.000 A 
HETATM   16  C   UNL     1       3.170  35.002  63.069  1.00  0.00     0.003 A 
HETATM   17  C   UNL     1       4.039  33.962  63.403  1.00  0.00     0.037 A 
ENDBRANCH  11  12
ENDBRANCH   8  11
ENDBRANCH   1   5
BRANCH   2  18
HETATM   18  C   UNL     1      10.443  30.099  57.597  1.00  0.00     0.123 C 
BRANCH  18  19
HETATM   19  C   UNL     1       9.374  29.661  56.605  1.00  0.00     0.132 C 
BRANCH  19  20
HETATM   20  N   UNL     1       8.652  28.425  56.859  1.00  0.00    -0.355 N 
HETATM   21  C   UNL     1       7.360  28.325  57.330  1.00  0.00     0.275 C 
HETATM   22  O   UNL     1       6.782  29.257  57.883  1.00  0.00    -0.265 OA
HETATM   23  H   UNL     1       8.993  27.592  56.389  1.00  0.00     0.162 HD
BRANCH  21  24
HETATM   24  C   UNL     1       6.760  27.021  57.135  1.00  0.00     0.142 A 
HETATM   25  O   UNL     1       7.555  25.903  57.161  1.00  0.00    -0.317 OA
HETATM   26  C   UNL     1       6.747  24.833  56.939  1.00  0.00     0.143 A 
HETATM   27  C   UNL     1       5.445  25.239  56.767  1.00  0.00     0.027 A 
HETATM   28  C   UNL     1       5.452  26.649  56.892  1.00  0.00     0.045 A 
ENDBRANCH  21  24
ENDBRANCH  19  20
ENDBRANCH  18  19
ENDBRANCH   2  18
TORSDOF 7
ENDMDL
MODEL 10
REMARK VINA RESULT:      -8.1      3.829     11.503
REMARK  7 active torsions:
REMARK  status: ('A' for Active; 'I' for Inactive)
REMARK    1  A    between atoms: C_4  and  O_5 
REMARK    2  A    between atoms: O_5  and  C_6 
REMARK    3  A    between atoms: C_9  and  N_10 
REMARK       I    between atoms: N_10  and  C_11 
REMARK    4  A    between atoms: C_11  and  C_12 
REMARK    5  A    between atoms: C_12  and  C_13 
REMARK    6  A    between atoms: C_13  and  N_14 
REMARK       I    between atoms: N_14  and  C_15 
REMARK    7  A    between atoms: C_15  and  C_16 
ROOT
HETATM    1  N   UNL     1       8.672  32.232  60.396  1.00  0.00    -0.327 N 
HETATM    2  C   UNL     1       8.626  31.344  59.339  1.00  0.00     0.223 C 
HETATM    3  O   UNL     1       7.752  30.513  59.110  1.00  0.00    -0.273 OA
HETATM    4  H   UNL     1       9.418  32.927  60.361  1.00  0.00     0.169 HD
ENDROOT
BRANCH   1   5
HETATM    5  C   UNL     1       7.770  32.337  61.473  1.00  0.00     0.034 A 
HETATM    6  C   UNL     1       8.160  32.413  62.810  1.00  0.00     0.032 A 
HETATM    7  C   UNL     1       7.200  32.524  63.822  1.00  0.00     0.039 A 
HETATM    8  C   UNL     1       5.841  32.565  63.509  1.00  0.00     0.076 A 
HETATM    9  C   UNL     1       5.443  32.475  62.176  1.00  0.00     0.039 A 
HETATM   10  C   UNL     1       6.405  32.375  61.163  1.00  0.00     0.032 A 
BRANCH   8  11
HETATM   11  O   UNL     1       4.987  32.630  64.589  1.00  0.00    -0.311 OA
BRANCH  11  12
HETATM   12  C   UNL     1       4.845  33.831  65.237  1.00  0.00     0.076 A 
HETATM   13  C   UNL     1       4.164  34.850  64.571  1.00  0.00     0.037 A 
HETATM   14  C   UNL     1       3.954  36.074  65.208  1.00  0.00     0.003 A 
HETATM   15  C   UNL     1       4.410  36.267  66.513  1.00  0.00     0.000 A 
HETATM   16  C   UNL     1       5.068  35.236  67.187  1.00  0.00     0.003 A 
HETATM   17  C   UNL     1       5.278  34.010  66.552  1.00  0.00     0.037 A 
ENDBRANCH  11  12
ENDBRANCH   8  11
ENDBRANCH   1   5
BRANCH   2  18
HETATM   18  C   UNL     1       9.801  31.495  58.400  1.00  0.00     0.123 C 
BRANCH  18  19
HETATM   19  C   UNL     1      10.232  30.164  57.799  1.00  0.00     0.132 C 
BRANCH  19  20
HETATM   20  N   UNL     1       9.484  29.633  56.671  1.00  0.00    -0.355 N 
HETATM   21  C   UNL     1       8.660  28.528  56.694  1.00  0.00     0.275 C 
HETATM   22  O   UNL     1       8.708  27.685  57.586  1.00  0.00    -0.265 OA
HETATM   23  H   UNL     1       9.312  30.269  55.898  1.00  0.00     0.162 HD
BRANCH  21  24
HETATM   24  C   UNL     1       7.756  28.443  55.566  1.00  0.00     0.142 A 
HETATM   25  O   UNL     1       6.424  28.718  55.746  1.00  0.00    -0.317 OA
HETATM   26  C   UNL     1       5.814  28.548  54.543  1.00  0.00     0.143 A 
HETATM   27  C   UNL     1       6.727  28.165  53.589  1.00  0.00     0.027 A 
HETATM   28  C   UNL     1       7.979  28.096  54.247  1.00  0.00     0.045 A 
ENDBRANCH  21  24
ENDBRANCH  19  20
ENDBRANCH  18  19
ENDBRANCH   2  18
TORSDOF 7
ENDMDL
