MODEL 1
REMARK VINA RESULT:     -10.4      0.000      0.000
REMARK  6 active torsions:
REMARK  status: ('A' for Active; 'I' for Inactive)
REMARK       I    between atoms: C_2  and  N_3 
REMARK    1  A    between atoms: C_2  and  C_12 
REMARK    2  A    between atoms: N_3  and  C_4 
REMARK    3  A    between atoms: C_4  and  C_5 
REMARK    4  A    between atoms: C_5  and  C_6 
REMARK    5  A    between atoms: C_18  and  C_22 
REMARK    6  A    between atoms: C_28  and  C_34 
ROOT
HETATM    1  C   UNL     1       7.090  29.605  57.830  1.00  0.00     0.032 A 
HETATM    2  C   UNL     1       8.399  29.245  57.491  1.00  0.00     0.020 A 
HETATM    3  C   UNL     1       8.663  27.966  56.996  1.00  0.00     0.038 A 
HETATM    4  C   UNL     1       7.624  27.049  56.832  1.00  0.00     0.075 A 
HETATM    5  O   UNL     1       7.960  25.851  56.255  1.00  0.00    -0.350 OA
HETATM    6  C   UNL     1       6.963  24.825  56.350  1.00  0.00     0.188 C 
HETATM    7  C   UNL     1       5.575  25.330  55.964  1.00  0.00     0.082 C 
HETATM    8  C   UNL     1       5.177  26.437  56.939  1.00  0.00     0.056 C 
HETATM    9  C   UNL     1       6.307  27.403  57.140  1.00  0.00    -0.023 A 
HETATM   10  C   UNL     1       6.049  28.682  57.653  1.00  0.00     0.027 A 
ENDROOT
BRANCH   7  11
HETATM   11  C   UNL     1       5.495  25.823  54.549  1.00  0.00     0.091 A 
HETATM   12  N   UNL     1       4.588  26.755  54.274  1.00  0.00    -0.345 N 
HETATM   13  H   UNL     1       3.974  27.098  55.008  1.00  0.00     0.167 HD
HETATM   14  C   UNL     1       4.503  27.277  53.014  1.00  0.00     0.049 A 
HETATM   15  C   UNL     1       3.565  28.274  52.743  1.00  0.00     0.031 A 
HETATM   16  C   UNL     1       5.334  26.860  51.973  1.00  0.00     0.059 A 
HETATM   17  C   UNL     1       3.475  28.836  51.461  1.00  0.00     0.014 A 
HETATM   18  C   UNL     1       4.323  28.416  50.424  1.00  0.00    -0.022 A 
HETATM   19  C   UNL     1       5.258  27.410  50.689  1.00  0.00     0.031 A 
HETATM   20  C   UNL     1       6.306  25.816  52.289  1.00  0.00     0.259 A 
HETATM   21  O   UNL     1       7.096  25.321  51.513  1.00  0.00    -0.267 OA
HETATM   22  N   UNL     1       6.310  25.360  53.624  1.00  0.00    -0.312 N 
HETATM   23  H   UNL     1       7.009  24.657  53.862  1.00  0.00     0.170 HD
BRANCH  18  24
HETATM   24  C   UNL     1       4.221  29.019  49.108  1.00  0.00     0.010 A 
HETATM   25  C   UNL     1       4.960  30.066  48.509  1.00  0.00     0.152 A 
HETATM   26  N   UNL     1       4.572  30.322  47.258  1.00  0.00    -0.187 NA
HETATM   27  N   UNL     1       3.584  29.441  47.044  1.00  0.00    -0.289 N 
HETATM   28  H   UNL     1       3.127  29.440  46.136  1.00  0.00     0.188 HD
HETATM   29  C   UNL     1       3.335  28.636  48.121  1.00  0.00     0.123 A 
ENDBRANCH  18  24
ENDBRANCH   7  11
BRANCH   1  30
HETATM   30  C   UNL     1       6.740  30.968  58.313  1.00  0.00     0.251 C 
HETATM   31  O   UNL     1       6.262  31.778  57.528  1.00  0.00    -0.268 OA
HETATM   32  N   UNL     1       6.957  31.223  59.649  1.00  0.00    -0.357 N 
HETATM   33  H   UNL     1       7.123  30.449  60.278  1.00  0.00     0.162 HD
BRANCH  32  34
HETATM   34  C   UNL     1       6.581  32.506  60.223  1.00  0.00     0.129 C 
BRANCH  34  35
HETATM   35  C   UNL     1       5.515  32.359  61.303  1.00  0.00     0.079 C 
BRANCH  35  36
HETATM   36  C   UNL     1       6.040  32.772  62.650  1.00  0.00     0.035 A 
HETATM   37  C   UNL     1       7.407  32.753  62.918  1.00  0.00     0.027 A 
HETATM   38  C   UNL     1       7.847  33.129  64.184  1.00  0.00     0.003 A 
HETATM   39  C   UNL     1       6.918  33.508  65.144  1.00  0.00     0.019 A 
HETATM   40  C   UNL     1       5.578  33.493  64.798  1.00  0.00     0.117 A 
HETATM   41  N   UNL     1       5.121  33.132  63.578  1.00  0.00    -0.266 NA
ENDBRANCH  35  36
ENDBRANCH  34  35
ENDBRANCH  32  34
ENDBRANCH   1  30
TORSDOF 6
ENDMDL
MODEL 2
REMARK VINA RESULT:     -10.1      1.220      1.753
REMARK  6 active torsions:
REMARK  status: ('A' for Active; 'I' for Inactive)
REMARK       I    between atoms: C_2  and  N_3 
REMARK    1  A    between atoms: C_2  and  C_12 
REMARK    2  A    between atoms: N_3  and  C_4 
REMARK    3  A    between atoms: C_4  and  C_5 
REMARK    4  A    between atoms: C_5  and  C_6 
REMARK    5  A    between atoms: C_18  and  C_22 
REMARK    6  A    between atoms: C_28  and  C_34 
ROOT
HETATM    1  C   UNL     1       7.491  29.857  57.967  1.00  0.00     0.032 A 
HETATM    2  C   UNL     1       8.666  29.697  57.225  1.00  0.00     0.020 A 
HETATM    3  C   UNL     1       8.822  28.579  56.402  1.00  0.00     0.038 A 
HETATM    4  C   UNL     1       7.807  27.626  56.314  1.00  0.00     0.075 A 
HETATM    5  O   UNL     1       8.006  26.610  55.414  1.00  0.00    -0.350 OA
HETATM    6  C   UNL     1       7.106  25.501  55.533  1.00  0.00     0.188 C 
HETATM    7  C   UNL     1       5.651  25.947  55.649  1.00  0.00     0.082 C 
HETATM    8  C   UNL     1       5.504  26.785  56.919  1.00  0.00     0.056 C 
HETATM    9  C   UNL     1       6.616  27.787  57.029  1.00  0.00    -0.023 A 
HETATM   10  C   UNL     1       6.471  28.901  57.866  1.00  0.00     0.027 A 
ENDROOT
BRANCH   7  11
HETATM   11  C   UNL     1       5.168  26.715  54.454  1.00  0.00     0.091 A 
HETATM   12  N   UNL     1       5.435  26.214  53.253  1.00  0.00    -0.345 N 
HETATM   13  H   UNL     1       5.959  25.347  53.168  1.00  0.00     0.167 HD
HETATM   14  C   UNL     1       4.977  26.845  52.130  1.00  0.00     0.049 A 
HETATM   15  C   UNL     1       5.241  26.297  50.874  1.00  0.00     0.031 A 
HETATM   16  C   UNL     1       4.236  28.026  52.186  1.00  0.00     0.059 A 
HETATM   17  C   UNL     1       4.764  26.919  49.712  1.00  0.00     0.014 A 
HETATM   18  C   UNL     1       4.009  28.101  49.780  1.00  0.00    -0.022 A 
HETATM   19  C   UNL     1       3.751  28.660  51.036  1.00  0.00     0.031 A 
HETATM   20  C   UNL     1       3.975  28.574  53.514  1.00  0.00     0.259 A 
HETATM   21  O   UNL     1       3.364  29.595  53.757  1.00  0.00    -0.267 OA
HETATM   22  N   UNL     1       4.488  27.833  54.600  1.00  0.00    -0.312 N 
HETATM   23  H   UNL     1       4.280  28.190  55.532  1.00  0.00     0.170 HD
BRANCH  18  24
HETATM   24  C   UNL     1       3.515  28.723  48.565  1.00  0.00     0.010 A 
HETATM   25  C   UNL     1       3.790  29.987  47.994  1.00  0.00     0.152 A 
HETATM   26  N   UNL     1       3.144  30.186  46.844  1.00  0.00    -0.187 NA
HETATM   27  N   UNL     1       2.454  29.049  46.665  1.00  0.00    -0.289 N 
HETATM   28  H   UNL     1       1.878  28.961  45.832  1.00  0.00     0.188 HD
HETATM   29  C   UNL     1       2.642  28.140  47.669  1.00  0.00     0.123 A 
ENDBRANCH  18  24
ENDBRANCH   7  11
BRANCH   1  30
HETATM   30  C   UNL     1       7.248  31.051  58.820  1.00  0.00     0.251 C 
HETATM   31  O   UNL     1       6.751  32.054  58.320  1.00  0.00    -0.268 OA
HETATM   32  N   UNL     1       7.579  30.937  60.152  1.00  0.00    -0.357 N 
HETATM   33  H   UNL     1       7.755  30.019  60.539  1.00  0.00     0.162 HD
BRANCH  32  34
HETATM   34  C   UNL     1       7.312  32.031  61.074  1.00  0.00     0.129 C 
BRANCH  34  35
HETATM   35  C   UNL     1       6.108  31.747  61.965  1.00  0.00     0.079 C 
BRANCH  35  36
HETATM   36  C   UNL     1       6.163  32.553  63.233  1.00  0.00     0.035 A 
HETATM   37  C   UNL     1       7.374  33.056  63.705  1.00  0.00     0.027 A 
HETATM   38  C   UNL     1       7.381  33.784  64.891  1.00  0.00     0.003 A 
HETATM   39  C   UNL     1       6.188  33.987  65.573  1.00  0.00     0.019 A 
HETATM   40  C   UNL     1       5.031  33.448  65.039  1.00  0.00     0.117 A 
HETATM   41  N   UNL     1       4.994  32.736  63.890  1.00  0.00    -0.266 NA
ENDBRANCH  35  36
ENDBRANCH  34  35
ENDBRANCH  32  34
ENDBRANCH   1  30
TORSDOF 6
ENDMDL
MODEL 3
REMARK VINA RESULT:     -10.0      3.823      6.421
REMARK  6 active torsions:
REMARK  status: ('A' for Active; 'I' for Inactive)
REMARK       I    between atoms: C_2  and  N_3 
REMARK    1  A    between atoms: C_2  and  C_12 
REMARK    2  A    between atoms: N_3  and  C_4 
REMARK    3  A    between atoms: C_4  and  C_5 
REMARK    4  A    between atoms: C_5  and  C_6 
REMARK    5  A    between atoms: C_18  and  C_22 
REMARK    6  A    between atoms: C_28  and  C_34 
ROOT
HETATM    1  C   UNL     1       4.481  32.015  61.170  1.00  0.00     0.032 A 
HETATM    2  C   UNL     1       3.268  31.334  61.020  1.00  0.00     0.020 A 
HETATM    3  C   UNL     1       2.818  30.986  59.744  1.00  0.00     0.038 A 
HETATM    4  C   UNL     1       3.578  31.311  58.620  1.00  0.00     0.075 A 
HETATM    5  O   UNL     1       3.105  30.851  57.417  1.00  0.00    -0.350 OA
HETATM    6  C   UNL     1       3.727  31.421  56.257  1.00  0.00     0.188 C 
HETATM    7  C   UNL     1       5.249  31.428  56.361  1.00  0.00     0.082 C 
HETATM    8  C   UNL     1       5.646  32.294  57.557  1.00  0.00     0.056 C 
HETATM    9  C   UNL     1       4.805  31.967  58.755  1.00  0.00    -0.023 A 
HETATM   10  C   UNL     1       5.244  32.329  60.036  1.00  0.00     0.027 A 
ENDROOT
BRANCH   7  11
HETATM   11  C   UNL     1       5.842  30.055  56.488  1.00  0.00     0.091 A 
HETATM   12  N   UNL     1       5.285  29.078  55.779  1.00  0.00    -0.345 N 
HETATM   13  H   UNL     1       4.481  29.273  55.189  1.00  0.00     0.167 HD
HETATM   14  C   UNL     1       5.814  27.818  55.817  1.00  0.00     0.049 A 
HETATM   15  C   UNL     1       5.238  26.805  55.050  1.00  0.00     0.031 A 
HETATM   16  C   UNL     1       6.930  27.498  56.593  1.00  0.00     0.059 A 
HETATM   17  C   UNL     1       5.777  25.511  55.060  1.00  0.00     0.014 A 
HETATM   18  C   UNL     1       6.907  25.202  55.835  1.00  0.00    -0.022 A 
HETATM   19  C   UNL     1       7.481  26.211  56.614  1.00  0.00     0.031 A 
HETATM   20  C   UNL     1       7.510  28.580  57.384  1.00  0.00     0.259 A 
HETATM   21  O   UNL     1       8.468  28.486  58.124  1.00  0.00    -0.267 OA
HETATM   22  N   UNL     1       6.888  29.840  57.258  1.00  0.00    -0.312 N 
HETATM   23  H   UNL     1       7.308  30.608  57.779  1.00  0.00     0.170 HD
BRANCH  18  24
HETATM   24  C   UNL     1       7.456  23.859  55.823  1.00  0.00     0.010 A 
HETATM   25  C   UNL     1       7.369  22.832  54.853  1.00  0.00     0.152 A 
HETATM   26  N   UNL     1       8.035  21.731  55.207  1.00  0.00    -0.187 NA
HETATM   27  N   UNL     1       8.557  22.044  56.402  1.00  0.00    -0.289 N 
HETATM   28  H   UNL     1       9.125  21.348  56.877  1.00  0.00     0.188 HD
HETATM   29  C   UNL     1       8.239  23.308  56.816  1.00  0.00     0.123 A 
ENDBRANCH  18  24
ENDBRANCH   7  11
BRANCH   1  30
HETATM   30  C   UNL     1       5.036  32.366  62.505  1.00  0.00     0.251 C 
HETATM   31  O   UNL     1       4.681  31.726  63.488  1.00  0.00    -0.268 OA
HETATM   32  N   UNL     1       5.954  33.391  62.541  1.00  0.00    -0.357 N 
HETATM   33  H   UNL     1       6.374  33.708  61.678  1.00  0.00     0.162 HD
BRANCH  32  34
HETATM   34  C   UNL     1       6.599  33.758  63.794  1.00  0.00     0.129 C 
BRANCH  34  35
HETATM   35  C   UNL     1       7.939  33.053  63.974  1.00  0.00     0.079 C 
BRANCH  35  36
HETATM   36  C   UNL     1       8.340  32.313  62.728  1.00  0.00     0.035 A 
HETATM   37  C   UNL     1       8.493  30.928  62.740  1.00  0.00     0.027 A 
HETATM   38  C   UNL     1       8.880  30.286  61.568  1.00  0.00     0.003 A 
HETATM   39  C   UNL     1       9.107  31.037  60.422  1.00  0.00     0.019 A 
HETATM   40  C   UNL     1       8.938  32.409  60.497  1.00  0.00     0.117 A 
HETATM   41  N   UNL     1       8.564  33.060  61.621  1.00  0.00    -0.266 NA
ENDBRANCH  35  36
ENDBRANCH  34  35
ENDBRANCH  32  34
ENDBRANCH   1  30
TORSDOF 6
ENDMDL
MODEL 4
REMARK VINA RESULT:      -9.8      2.262      3.702
REMARK  6 active torsions:
REMARK  status: ('A' for Active; 'I' for Inactive)
REMARK       I    between atoms: C_2  and  N_3 
REMARK    1  A    between atoms: C_2  and  C_12 
REMARK    2  A    between atoms: N_3  and  C_4 
REMARK    3  A    between atoms: C_4  and  C_5 
REMARK    4  A    between atoms: C_5  and  C_6 
REMARK    5  A    between atoms: C_18  and  C_22 
REMARK    6  A    between atoms: C_28  and  C_34 
ROOT
HETATM    1  C   UNL     1       7.245  29.471  57.870  1.00  0.00     0.032 A 
HETATM    2  C   UNL     1       8.544  29.080  57.529  1.00  0.00     0.020 A 
HETATM    3  C   UNL     1       8.775  27.798  57.025  1.00  0.00     0.038 A 
HETATM    4  C   UNL     1       7.714  26.910  56.854  1.00  0.00     0.075 A 
HETATM    5  O   UNL     1       8.019  25.708  56.269  1.00  0.00    -0.350 OA
HETATM    6  C   UNL     1       6.996  24.707  56.355  1.00  0.00     0.188 C 
HETATM    7  C   UNL     1       5.622  25.249  55.973  1.00  0.00     0.082 C 
HETATM    8  C   UNL     1       5.252  26.360  56.956  1.00  0.00     0.056 C 
HETATM    9  C   UNL     1       6.406  27.295  57.165  1.00  0.00    -0.023 A 
HETATM   10  C   UNL     1       6.181  28.576  57.687  1.00  0.00     0.027 A 
ENDROOT
BRANCH   7  11
HETATM   11  C   UNL     1       5.555  25.755  54.562  1.00  0.00     0.091 A 
HETATM   12  N   UNL     1       4.672  26.712  54.294  1.00  0.00    -0.345 N 
HETATM   13  H   UNL     1       4.067  27.066  55.030  1.00  0.00     0.167 HD
HETATM   14  C   UNL     1       4.601  27.246  53.037  1.00  0.00     0.049 A 
HETATM   15  C   UNL     1       3.689  28.268  52.773  1.00  0.00     0.031 A 
HETATM   16  C   UNL     1       5.421  26.814  51.994  1.00  0.00     0.059 A 
HETATM   17  C   UNL     1       3.613  28.841  51.495  1.00  0.00     0.014 A 
HETATM   18  C   UNL     1       4.451  28.407  50.455  1.00  0.00    -0.022 A 
HETATM   19  C   UNL     1       5.359  27.376  50.713  1.00  0.00     0.031 A 
HETATM   20  C   UNL     1       6.366  25.744  52.302  1.00  0.00     0.259 A 
HETATM   21  O   UNL     1       7.144  25.234  51.522  1.00  0.00    -0.267 OA
HETATM   22  N   UNL     1       6.358  25.278  53.634  1.00  0.00    -0.312 N 
HETATM   23  H   UNL     1       7.038  24.556  53.866  1.00  0.00     0.170 HD
BRANCH  18  24
HETATM   24  C   UNL     1       4.365  29.022  49.144  1.00  0.00     0.010 A 
HETATM   25  C   UNL     1       4.773  30.299  48.691  1.00  0.00     0.152 A 
HETATM   26  N   UNL     1       4.536  30.485  47.391  1.00  0.00    -0.187 NA
HETATM   27  N   UNL     1       3.978  29.330  46.999  1.00  0.00    -0.289 N 
HETATM   28  H   UNL     1       3.712  29.230  46.024  1.00  0.00     0.188 HD
HETATM   29  C   UNL     1       3.854  28.420  48.012  1.00  0.00     0.123 A 
ENDBRANCH  18  24
ENDBRANCH   7  11
BRANCH   1  30
HETATM   30  C   UNL     1       6.930  30.839  58.363  1.00  0.00     0.251 C 
HETATM   31  O   UNL     1       7.839  31.649  58.503  1.00  0.00    -0.268 OA
HETATM   32  N   UNL     1       5.604  31.117  58.608  1.00  0.00    -0.357 N 
HETATM   33  H   UNL     1       4.895  30.492  58.248  1.00  0.00     0.162 HD
BRANCH  32  34
HETATM   34  C   UNL     1       5.196  32.449  59.029  1.00  0.00     0.129 C 
BRANCH  34  35
HETATM   35  C   UNL     1       4.948  33.372  57.840  1.00  0.00     0.079 C 
BRANCH  35  36
HETATM   36  C   UNL     1       4.323  32.630  56.692  1.00  0.00     0.035 A 
HETATM   37  C   UNL     1       4.841  32.743  55.404  1.00  0.00     0.027 A 
HETATM   38  C   UNL     1       4.221  32.050  54.368  1.00  0.00     0.003 A 
HETATM   39  C   UNL     1       3.105  31.271  54.642  1.00  0.00     0.019 A 
HETATM   40  C   UNL     1       2.651  31.217  55.949  1.00  0.00     0.117 A 
HETATM   41  N   UNL     1       3.231  31.880  56.974  1.00  0.00    -0.266 NA
ENDBRANCH  35  36
ENDBRANCH  34  35
ENDBRANCH  32  34
ENDBRANCH   1  30
TORSDOF 6
ENDMDL
MODEL 5
REMARK VINA RESULT:      -9.6      5.834      9.053
REMARK  6 active torsions:
REMARK  status: ('A' for Active; 'I' for Inactive)
REMARK       I    between atoms: C_2  and  N_3 
REMARK    1  A    between atoms: C_2  and  C_12 
REMARK    2  A    between atoms: N_3  and  C_4 
REMARK    3  A    between atoms: C_4  and  C_5 
REMARK    4  A    between atoms: C_5  and  C_6 
REMARK    5  A    between atoms: C_18  and  C_22 
REMARK    6  A    between atoms: C_28  and  C_34 
ROOT
HETATM    1  C   UNL     1       5.480  26.743  52.587  1.00  0.00     0.032 A 
HETATM    2  C   UNL     1       5.763  26.062  51.398  1.00  0.00     0.020 A 
HETATM    3  C   UNL     1       5.042  26.356  50.239  1.00  0.00     0.038 A 
HETATM    4  C   UNL     1       4.044  27.330  50.262  1.00  0.00     0.075 A 
HETATM    5  O   UNL     1       3.450  27.617  49.059  1.00  0.00    -0.350 OA
HETATM    6  C   UNL     1       2.251  28.400  49.139  1.00  0.00     0.188 C 
HETATM    7  C   UNL     1       2.411  29.611  50.054  1.00  0.00     0.082 C 
HETATM    8  C   UNL     1       2.719  29.110  51.465  1.00  0.00     0.056 C 
HETATM    9  C   UNL     1       3.768  28.039  51.436  1.00  0.00    -0.023 A 
HETATM   10  C   UNL     1       4.483  27.729  52.600  1.00  0.00     0.027 A 
ENDROOT
BRANCH   7  11
HETATM   11  C   UNL     1       3.472  30.567  49.594  1.00  0.00     0.091 A 
HETATM   12  N   UNL     1       3.667  30.683  48.284  1.00  0.00    -0.345 N 
HETATM   13  H   UNL     1       3.116  30.127  47.636  1.00  0.00     0.167 HD
HETATM   14  C   UNL     1       4.586  31.575  47.805  1.00  0.00     0.049 A 
HETATM   15  C   UNL     1       4.765  31.708  46.428  1.00  0.00     0.031 A 
HETATM   16  C   UNL     1       5.356  32.380  48.647  1.00  0.00     0.059 A 
HETATM   17  C   UNL     1       5.689  32.632  45.917  1.00  0.00     0.014 A 
HETATM   18  C   UNL     1       6.451  33.444  46.771  1.00  0.00    -0.022 A 
HETATM   19  C   UNL     1       6.283  33.306  48.153  1.00  0.00     0.031 A 
HETATM   20  C   UNL     1       5.145  32.217  50.082  1.00  0.00     0.259 A 
HETATM   21  O   UNL     1       5.731  32.817  50.961  1.00  0.00    -0.267 OA
HETATM   22  N   UNL     1       4.166  31.276  50.461  1.00  0.00    -0.312 N 
HETATM   23  H   UNL     1       3.987  31.182  51.459  1.00  0.00     0.170 HD
BRANCH  18  24
HETATM   24  C   UNL     1       7.393  34.401  46.221  1.00  0.00     0.010 A 
HETATM   25  C   UNL     1       7.544  34.900  44.906  1.00  0.00     0.152 A 
HETATM   26  N   UNL     1       8.529  35.794  44.804  1.00  0.00    -0.187 NA
HETATM   27  N   UNL     1       9.015  35.879  46.052  1.00  0.00    -0.289 N 
HETATM   28  H   UNL     1       9.785  36.518  46.227  1.00  0.00     0.188 HD
HETATM   29  C   UNL     1       8.368  35.063  46.939  1.00  0.00     0.123 A 
ENDBRANCH  18  24
ENDBRANCH   7  11
BRANCH   1  30
HETATM   30  C   UNL     1       6.249  26.510  53.839  1.00  0.00     0.251 C 
HETATM   31  O   UNL     1       7.009  27.381  54.246  1.00  0.00    -0.268 OA
HETATM   32  N   UNL     1       6.027  25.315  54.486  1.00  0.00    -0.357 N 
HETATM   33  H   UNL     1       5.223  24.758  54.230  1.00  0.00     0.162 HD
BRANCH  32  34
HETATM   34  C   UNL     1       6.685  25.030  55.752  1.00  0.00     0.129 C 
BRANCH  34  35
HETATM   35  C   UNL     1       8.067  24.417  55.554  1.00  0.00     0.079 C 
BRANCH  35  36
HETATM   36  C   UNL     1       7.976  23.059  54.913  1.00  0.00     0.035 A 
HETATM   37  C   UNL     1       7.928  21.906  55.693  1.00  0.00     0.027 A 
HETATM   38  C   UNL     1       7.859  20.669  55.058  1.00  0.00     0.003 A 
HETATM   39  C   UNL     1       7.844  20.616  53.670  1.00  0.00     0.019 A 
HETATM   40  C   UNL     1       7.901  21.809  52.970  1.00  0.00     0.117 A 
HETATM   41  N   UNL     1       7.969  23.023  53.560  1.00  0.00    -0.266 NA
ENDBRANCH  35  36
ENDBRANCH  34  35
ENDBRANCH  32  34
ENDBRANCH   1  30
TORSDOF 6
ENDMDL
MODEL 6
REMARK VINA RESULT:      -9.6      2.266     11.398
REMARK  6 active torsions:
REMARK  status: ('A' for Active; 'I' for Inactive)
REMARK       I    between atoms: C_2  and  N_3 
REMARK    1  A    between atoms: C_2  and  C_12 
REMARK    2  A    between atoms: N_3  and  C_4 
REMARK    3  A    between atoms: C_4  and  C_5 
REMARK    4  A    between atoms: C_5  and  C_6 
REMARK    5  A    between atoms: C_18  and  C_22 
REMARK    6  A    between atoms: C_28  and  C_34 
ROOT
HETATM    1  C   UNL     1       4.692  28.712  54.466  1.00  0.00     0.032 A 
HETATM    2  C   UNL     1       4.207  27.732  55.340  1.00  0.00     0.020 A 
HETATM    3  C   UNL     1       5.033  27.229  56.348  1.00  0.00     0.038 A 
HETATM    4  C   UNL     1       6.337  27.703  56.488  1.00  0.00     0.075 A 
HETATM    5  O   UNL     1       7.045  27.220  57.559  1.00  0.00    -0.350 OA
HETATM    6  C   UNL     1       8.453  27.489  57.534  1.00  0.00     0.188 C 
HETATM    7  C   UNL     1       8.757  28.946  57.199  1.00  0.00     0.082 C 
HETATM    8  C   UNL     1       8.217  29.242  55.800  1.00  0.00     0.056 C 
HETATM    9  C   UNL     1       6.827  28.701  55.640  1.00  0.00    -0.023 A 
HETATM   10  C   UNL     1       6.000  29.191  54.620  1.00  0.00     0.027 A 
ENDROOT
BRANCH   7  11
HETATM   11  C   UNL     1       8.192  29.915  58.196  1.00  0.00     0.091 A 
HETATM   12  N   UNL     1       8.651  29.852  59.442  1.00  0.00    -0.345 N 
HETATM   13  H   UNL     1       9.349  29.157  59.692  1.00  0.00     0.167 HD
HETATM   14  C   UNL     1       8.208  30.743  60.380  1.00  0.00     0.049 A 
HETATM   15  C   UNL     1       8.715  30.684  61.679  1.00  0.00     0.031 A 
HETATM   16  C   UNL     1       7.266  31.730  60.088  1.00  0.00     0.059 A 
HETATM   17  C   UNL     1       8.288  31.601  62.651  1.00  0.00     0.014 A 
HETATM   18  C   UNL     1       7.348  32.597  62.344  1.00  0.00    -0.022 A 
HETATM   19  C   UNL     1       6.829  32.653  61.046  1.00  0.00     0.031 A 
HETATM   20  C   UNL     1       6.756  31.766  58.721  1.00  0.00     0.259 A 
HETATM   21  O   UNL     1       5.926  32.540  58.290  1.00  0.00    -0.267 OA
HETATM   22  N   UNL     1       7.291  30.806  57.836  1.00  0.00    -0.312 N 
HETATM   23  H   UNL     1       6.967  30.846  56.871  1.00  0.00     0.170 HD
BRANCH  18  24
HETATM   24  C   UNL     1       6.928  33.543  63.362  1.00  0.00     0.010 A 
HETATM   25  C   UNL     1       6.084  34.675  63.282  1.00  0.00     0.152 A 
HETATM   26  N   UNL     1       5.925  35.285  64.458  1.00  0.00    -0.187 NA
HETATM   27  N   UNL     1       6.661  34.547  65.302  1.00  0.00    -0.289 N 
HETATM   28  H   UNL     1       6.690  34.819  66.280  1.00  0.00     0.188 HD
HETATM   29  C   UNL     1       7.283  33.491  64.694  1.00  0.00     0.123 A 
ENDBRANCH  18  24
ENDBRANCH   7  11
BRANCH   1  30
HETATM   30  C   UNL     1       3.843  29.322  53.408  1.00  0.00     0.251 C 
HETATM   31  O   UNL     1       3.743  30.542  53.349  1.00  0.00    -0.268 OA
HETATM   32  N   UNL     1       3.237  28.455  52.526  1.00  0.00    -0.357 N 
HETATM   33  H   UNL     1       3.551  27.494  52.485  1.00  0.00     0.162 HD
BRANCH  32  34
HETATM   34  C   UNL     1       2.443  28.967  51.419  1.00  0.00     0.129 C 
BRANCH  34  35
HETATM   35  C   UNL     1       3.288  29.198  50.170  1.00  0.00     0.079 C 
BRANCH  35  36
HETATM   36  C   UNL     1       3.215  28.023  49.235  1.00  0.00     0.035 A 
HETATM   37  C   UNL     1       4.348  27.262  48.957  1.00  0.00     0.027 A 
HETATM   38  C   UNL     1       4.237  26.192  48.073  1.00  0.00     0.003 A 
HETATM   39  C   UNL     1       3.008  25.914  47.490  1.00  0.00     0.019 A 
HETATM   40  C   UNL     1       1.933  26.724  47.816  1.00  0.00     0.117 A 
HETATM   41  N   UNL     1       2.011  27.769  48.669  1.00  0.00    -0.266 NA
ENDBRANCH  35  36
ENDBRANCH  34  35
ENDBRANCH  32  34
ENDBRANCH   1  30
TORSDOF 6
ENDMDL
MODEL 7
REMARK VINA RESULT:      -9.6      7.154     10.164
REMARK  6 active torsions:
REMARK  status: ('A' for Active; 'I' for Inactive)
REMARK       I    between atoms: C_2  and  N_3 
REMARK    1  A    between atoms: C_2  and  C_12 
REMARK    2  A    between atoms: N_3  and  C_4 
REMARK    3  A    between atoms: C_4  and  C_5 
REMARK    4  A    between atoms: C_5  and  C_6 
REMARK    5  A    between atoms: C_18  and  C_22 
REMARK    6  A    between atoms: C_28  and  C_34 
ROOT
HETATM    1  C   UNL     1       4.464  26.720  50.058  1.00  0.00     0.032 A 
HETATM    2  C   UNL     1       4.603  26.007  48.862  1.00  0.00     0.020 A 
HETATM    3  C   UNL     1       3.773  26.299  47.777  1.00  0.00     0.038 A 
HETATM    4  C   UNL     1       2.810  27.303  47.881  1.00  0.00     0.075 A 
HETATM    5  O   UNL     1       2.103  27.583  46.740  1.00  0.00    -0.350 OA
HETATM    6  C   UNL     1       0.940  28.402  46.926  1.00  0.00     0.188 C 
HETATM    7  C   UNL     1       1.228  29.625  47.791  1.00  0.00     0.082 C 
HETATM    8  C   UNL     1       1.667  29.145  49.174  1.00  0.00     0.056 C 
HETATM    9  C   UNL     1       2.677  28.042  49.060  1.00  0.00    -0.023 A 
HETATM   10  C   UNL     1       3.501  27.734  50.152  1.00  0.00     0.027 A 
ENDROOT
BRANCH   7  11
HETATM   11  C   UNL     1       2.261  30.541  47.202  1.00  0.00     0.091 A 
HETATM   12  N   UNL     1       3.020  31.233  48.045  1.00  0.00    -0.345 N 
HETATM   13  H   UNL     1       2.881  31.140  49.048  1.00  0.00     0.167 HD
HETATM   14  C   UNL     1       4.010  32.045  47.566  1.00  0.00     0.049 A 
HETATM   15  C   UNL     1       4.818  32.748  48.461  1.00  0.00     0.031 A 
HETATM   16  C   UNL     1       4.259  32.195  46.201  1.00  0.00     0.059 A 
HETATM   17  C   UNL     1       5.851  33.571  47.990  1.00  0.00     0.014 A 
HETATM   18  C   UNL     1       6.101  33.706  46.615  1.00  0.00    -0.022 A 
HETATM   19  C   UNL     1       5.287  33.012  45.714  1.00  0.00     0.031 A 
HETATM   20  C   UNL     1       3.397  31.446  45.291  1.00  0.00     0.259 A 
HETATM   21  O   UNL     1       3.456  31.463  44.079  1.00  0.00    -0.267 OA
HETATM   22  N   UNL     1       2.417  30.633  45.897  1.00  0.00    -0.312 N 
HETATM   23  H   UNL     1       1.834  30.080  45.271  1.00  0.00     0.170 HD
BRANCH  18  24
HETATM   24  C   UNL     1       7.183  34.554  46.149  1.00  0.00     0.010 A 
HETATM   25  C   UNL     1       7.411  35.157  44.890  1.00  0.00     0.152 A 
HETATM   26  N   UNL     1       8.525  35.890  44.862  1.00  0.00    -0.187 NA
HETATM   27  N   UNL     1       9.018  35.767  46.104  1.00  0.00    -0.289 N 
HETATM   28  H   UNL     1       9.880  36.255  46.330  1.00  0.00     0.188 HD
HETATM   29  C   UNL     1       8.251  34.977  46.914  1.00  0.00     0.123 A 
ENDBRANCH  18  24
ENDBRANCH   7  11
BRANCH   1  30
HETATM   30  C   UNL     1       5.352  26.489  51.228  1.00  0.00     0.251 C 
HETATM   31  O   UNL     1       6.060  27.404  51.634  1.00  0.00    -0.268 OA
HETATM   32  N   UNL     1       5.297  25.242  51.809  1.00  0.00    -0.357 N 
HETATM   33  H   UNL     1       4.530  24.624  51.578  1.00  0.00     0.162 HD
BRANCH  32  34
HETATM   34  C   UNL     1       6.081  24.948  52.999  1.00  0.00     0.129 C 
BRANCH  34  35
HETATM   35  C   UNL     1       7.398  24.259  52.660  1.00  0.00     0.079 C 
BRANCH  35  36
HETATM   36  C   UNL     1       7.593  23.016  53.484  1.00  0.00     0.035 A 
HETATM   37  C   UNL     1       7.892  21.798  52.876  1.00  0.00     0.027 A 
HETATM   38  C   UNL     1       8.049  20.670  53.676  1.00  0.00     0.003 A 
HETATM   39  C   UNL     1       7.900  20.784  55.052  1.00  0.00     0.019 A 
HETATM   40  C   UNL     1       7.597  22.030  55.575  1.00  0.00     0.117 A 
HETATM   41  N   UNL     1       7.438  23.142  54.823  1.00  0.00    -0.266 NA
ENDBRANCH  35  36
ENDBRANCH  34  35
ENDBRANCH  32  34
ENDBRANCH   1  30
TORSDOF 6
ENDMDL
MODEL 8
REMARK VINA RESULT:      -9.5      5.362     11.008
REMARK  6 active torsions:
REMARK  status: ('A' for Active; 'I' for Inactive)
REMARK       I    between atoms: C_2  and  N_3 
REMARK    1  A    between atoms: C_2  and  C_12 
REMARK    2  A    between atoms: N_3  and  C_4 
REMARK    3  A    between atoms: C_4  and  C_5 
REMARK    4  A    between atoms: C_5  and  C_6 
REMARK    5  A    between atoms: C_18  and  C_22 
REMARK    6  A    between atoms: C_28  and  C_34 
ROOT
HETATM    1  C   UNL     1       4.788  32.036  49.451  1.00  0.00     0.032 A 
HETATM    2  C   UNL     1       3.460  31.993  49.890  1.00  0.00     0.020 A 
HETATM    3  C   UNL     1       2.748  30.792  49.835  1.00  0.00     0.038 A 
HETATM    4  C   UNL     1       3.359  29.636  49.349  1.00  0.00     0.075 A 
HETATM    5  O   UNL     1       2.616  28.485  49.417  1.00  0.00    -0.350 OA
HETATM    6  C   UNL     1       3.134  27.377  48.667  1.00  0.00     0.188 C 
HETATM    7  C   UNL     1       4.626  27.165  48.905  1.00  0.00     0.082 C 
HETATM    8  C   UNL     1       5.371  28.415  48.436  1.00  0.00     0.056 C 
HETATM    9  C   UNL     1       4.693  29.658  48.932  1.00  0.00    -0.023 A 
HETATM   10  C   UNL     1       5.398  30.868  48.973  1.00  0.00     0.027 A 
ENDROOT
BRANCH   7  11
HETATM   11  C   UNL     1       4.962  26.860  50.336  1.00  0.00     0.091 A 
HETATM   12  N   UNL     1       6.013  26.079  50.566  1.00  0.00    -0.345 N 
HETATM   13  H   UNL     1       6.548  25.703  49.788  1.00  0.00     0.167 HD
HETATM   14  C   UNL     1       6.395  25.807  51.850  1.00  0.00     0.049 A 
HETATM   15  C   UNL     1       7.515  25.007  52.081  1.00  0.00     0.031 A 
HETATM   16  C   UNL     1       5.712  26.313  52.957  1.00  0.00     0.059 A 
HETATM   17  C   UNL     1       7.935  24.733  53.391  1.00  0.00     0.014 A 
HETATM   18  C   UNL     1       7.247  25.255  54.497  1.00  0.00    -0.022 A 
HETATM   19  C   UNL     1       6.118  26.049  54.271  1.00  0.00     0.031 A 
HETATM   20  C   UNL     1       4.545  27.147  52.682  1.00  0.00     0.259 A 
HETATM   21  O   UNL     1       3.823  27.658  53.513  1.00  0.00    -0.267 OA
HETATM   22  N   UNL     1       4.250  27.368  51.320  1.00  0.00    -0.312 N 
HETATM   23  H   UNL     1       3.459  27.977  51.120  1.00  0.00     0.170 HD
BRANCH  18  24
HETATM   24  C   UNL     1       7.705  24.969  55.844  1.00  0.00     0.010 A 
HETATM   25  C   UNL     1       8.663  24.042  56.319  1.00  0.00     0.152 A 
HETATM   26  N   UNL     1       8.819  24.094  57.643  1.00  0.00    -0.187 NA
HETATM   27  N   UNL     1       7.967  25.055  58.027  1.00  0.00    -0.289 N 
HETATM   28  H   UNL     1       7.913  25.284  59.016  1.00  0.00     0.188 HD
HETATM   29  C   UNL     1       7.275  25.611  56.987  1.00  0.00     0.123 A 
ENDBRANCH  18  24
ENDBRANCH   7  11
BRANCH   1  30
HETATM   30  C   UNL     1       5.611  33.272  49.532  1.00  0.00     0.251 C 
HETATM   31  O   UNL     1       5.672  33.883  50.593  1.00  0.00    -0.268 OA
HETATM   32  N   UNL     1       6.288  33.640  48.391  1.00  0.00    -0.357 N 
HETATM   33  H   UNL     1       6.384  32.971  47.638  1.00  0.00     0.162 HD
BRANCH  32  34
HETATM   34  C   UNL     1       7.170  34.797  48.398  1.00  0.00     0.129 C 
BRANCH  34  35
HETATM   35  C   UNL     1       8.376  34.602  47.485  1.00  0.00     0.079 C 
BRANCH  35  36
HETATM   36  C   UNL     1       8.080  35.055  46.083  1.00  0.00     0.035 A 
HETATM   37  C   UNL     1       7.537  34.174  45.150  1.00  0.00     0.027 A 
HETATM   38  C   UNL     1       7.293  34.632  43.858  1.00  0.00     0.003 A 
HETATM   39  C   UNL     1       7.598  35.947  43.532  1.00  0.00     0.019 A 
HETATM   40  C   UNL     1       8.140  36.755  44.517  1.00  0.00     0.117 A 
HETATM   41  N   UNL     1       8.389  36.338  45.778  1.00  0.00    -0.266 NA
ENDBRANCH  35  36
ENDBRANCH  34  35
ENDBRANCH  32  34
ENDBRANCH   1  30
TORSDOF 6
ENDMDL
MODEL 9
REMARK VINA RESULT:      -9.2      6.831     10.765
REMARK  6 active torsions:
REMARK  status: ('A' for Active; 'I' for Inactive)
REMARK       I    between atoms: C_2  and  N_3 
REMARK    1  A    between atoms: C_2  and  C_12 
REMARK    2  A    between atoms: N_3  and  C_4 
REMARK    3  A    between atoms: C_4  and  C_5 
REMARK    4  A    between atoms: C_5  and  C_6 
REMARK    5  A    between atoms: C_18  and  C_22 
REMARK    6  A    between atoms: C_28  and  C_34 
ROOT
HETATM    1  C   UNL     1       4.558  38.688  62.213  1.00  0.00     0.032 A 
HETATM    2  C   UNL     1       5.496  38.863  63.236  1.00  0.00     0.020 A 
HETATM    3  C   UNL     1       5.634  37.889  64.228  1.00  0.00     0.038 A 
HETATM    4  C   UNL     1       4.842  36.740  64.198  1.00  0.00     0.075 A 
HETATM    5  O   UNL     1       5.108  35.797  65.157  1.00  0.00    -0.350 OA
HETATM    6  C   UNL     1       4.120  34.767  65.293  1.00  0.00     0.188 C 
HETATM    7  C   UNL     1       3.708  34.180  63.947  1.00  0.00     0.082 C 
HETATM    8  C   UNL     1       3.085  35.294  63.106  1.00  0.00     0.056 C 
HETATM    9  C   UNL     1       3.920  36.539  63.166  1.00  0.00    -0.023 A 
HETATM   10  C   UNL     1       3.773  37.526  62.183  1.00  0.00     0.027 A 
ENDROOT
BRANCH   7  11
HETATM   11  C   UNL     1       4.844  33.536  63.207  1.00  0.00     0.091 A 
HETATM   12  N   UNL     1       4.646  33.224  61.930  1.00  0.00    -0.345 N 
HETATM   13  H   UNL     1       3.747  33.412  61.494  1.00  0.00     0.167 HD
HETATM   14  C   UNL     1       5.661  32.681  61.192  1.00  0.00     0.049 A 
HETATM   15  C   UNL     1       5.451  32.381  59.846  1.00  0.00     0.031 A 
HETATM   16  C   UNL     1       6.921  32.421  61.733  1.00  0.00     0.059 A 
HETATM   17  C   UNL     1       6.485  31.842  59.068  1.00  0.00     0.014 A 
HETATM   18  C   UNL     1       7.753  31.594  59.618  1.00  0.00    -0.022 A 
HETATM   19  C   UNL     1       7.965  31.883  60.970  1.00  0.00     0.031 A 
HETATM   20  C   UNL     1       7.110  32.747  63.143  1.00  0.00     0.259 A 
HETATM   21  O   UNL     1       8.127  32.577  63.784  1.00  0.00    -0.267 OA
HETATM   22  N   UNL     1       5.997  33.311  63.801  1.00  0.00    -0.312 N 
HETATM   23  H   UNL     1       6.130  33.574  64.777  1.00  0.00     0.170 HD
BRANCH  18  24
HETATM   24  C   UNL     1       8.813  31.046  58.792  1.00  0.00     0.010 A 
HETATM   25  C   UNL     1       8.885  29.838  58.059  1.00  0.00     0.152 A 
HETATM   26  N   UNL     1      10.038  29.702  57.401  1.00  0.00    -0.187 NA
HETATM   27  N   UNL     1      10.712  30.821  57.704  1.00  0.00    -0.289 N 
HETATM   28  H   UNL     1      11.637  30.949  57.304  1.00  0.00     0.188 HD
HETATM   29  C   UNL     1      10.022  31.660  58.534  1.00  0.00     0.123 A 
ENDBRANCH  18  24
ENDBRANCH   7  11
BRANCH   1  30
HETATM   30  C   UNL     1       4.403  39.665  61.102  1.00  0.00     0.251 C 
HETATM   31  O   UNL     1       5.388  40.266  60.690  1.00  0.00    -0.268 OA
HETATM   32  N   UNL     1       3.136  39.811  60.581  1.00  0.00    -0.357 N 
HETATM   33  H   UNL     1       2.430  39.121  60.801  1.00  0.00     0.162 HD
BRANCH  32  34
HETATM   34  C   UNL     1       2.904  40.695  59.448  1.00  0.00     0.129 C 
BRANCH  34  35
HETATM   35  C   UNL     1       2.348  39.944  58.243  1.00  0.00     0.079 C 
BRANCH  35  36
HETATM   36  C   UNL     1       2.512  38.458  58.401  1.00  0.00     0.035 A 
HETATM   37  C   UNL     1       3.560  37.786  57.775  1.00  0.00     0.027 A 
HETATM   38  C   UNL     1       3.664  36.408  57.936  1.00  0.00     0.003 A 
HETATM   39  C   UNL     1       2.724  35.739  58.709  1.00  0.00     0.019 A 
HETATM   40  C   UNL     1       1.710  36.480  59.291  1.00  0.00     0.117 A 
HETATM   41  N   UNL     1       1.583  37.819  59.151  1.00  0.00    -0.266 NA
ENDBRANCH  35  36
ENDBRANCH  34  35
ENDBRANCH  32  34
ENDBRANCH   1  30
TORSDOF 6
ENDMDL
MODEL 10
REMARK VINA RESULT:      -9.0      3.603      9.699
REMARK  6 active torsions:
REMARK  status: ('A' for Active; 'I' for Inactive)
REMARK       I    between atoms: C_2  and  N_3 
REMARK    1  A    between atoms: C_2  and  C_12 
REMARK    2  A    between atoms: N_3  and  C_4 
REMARK    3  A    between atoms: C_4  and  C_5 
REMARK    4  A    between atoms: C_5  and  C_6 
REMARK    5  A    between atoms: C_18  and  C_22 
REMARK    6  A    between atoms: C_28  and  C_34 
ROOT
HETATM    1  C   UNL     1       3.119  32.278  53.347  1.00  0.00     0.032 A 
HETATM    2  C   UNL     1       4.272  33.071  53.327  1.00  0.00     0.020 A 
HETATM    3  C   UNL     1       5.043  33.205  54.484  1.00  0.00     0.038 A 
HETATM    4  C   UNL     1       4.671  32.547  55.656  1.00  0.00     0.075 A 
HETATM    5  O   UNL     1       5.535  32.662  56.715  1.00  0.00    -0.350 OA
HETATM    6  C   UNL     1       5.015  32.227  57.979  1.00  0.00     0.188 C 
HETATM    7  C   UNL     1       4.329  30.868  57.886  1.00  0.00     0.082 C 
HETATM    8  C   UNL     1       3.143  30.991  56.929  1.00  0.00     0.056 C 
HETATM    9  C   UNL     1       3.537  31.729  55.683  1.00  0.00    -0.023 A 
HETATM   10  C   UNL     1       2.756  31.611  54.526  1.00  0.00     0.027 A 
ENDROOT
BRANCH   7  11
HETATM   11  C   UNL     1       5.248  29.767  57.443  1.00  0.00     0.091 A 
HETATM   12  N   UNL     1       4.740  28.542  57.353  1.00  0.00    -0.345 N 
HETATM   13  H   UNL     1       3.766  28.376  57.593  1.00  0.00     0.167 HD
HETATM   14  C   UNL     1       5.518  27.510  56.908  1.00  0.00     0.049 A 
HETATM   15  C   UNL     1       4.968  26.232  56.793  1.00  0.00     0.031 A 
HETATM   16  C   UNL     1       6.854  27.682  56.545  1.00  0.00     0.059 A 
HETATM   17  C   UNL     1       5.743  25.164  56.320  1.00  0.00     0.014 A 
HETATM   18  C   UNL     1       7.084  25.351  55.947  1.00  0.00    -0.022 A 
HETATM   19  C   UNL     1       7.642  26.627  56.071  1.00  0.00     0.031 A 
HETATM   20  C   UNL     1       7.400  29.031  56.675  1.00  0.00     0.259 A 
HETATM   21  O   UNL     1       8.539  29.366  56.423  1.00  0.00    -0.267 OA
HETATM   22  N   UNL     1       6.504  30.018  57.135  1.00  0.00    -0.312 N 
HETATM   23  H   UNL     1       6.866  30.968  57.195  1.00  0.00     0.170 HD
BRANCH  18  24
HETATM   24  C   UNL     1       7.866  24.234  55.449  1.00  0.00     0.010 A 
HETATM   25  C   UNL     1       7.867  23.594  54.187  1.00  0.00     0.152 A 
HETATM   26  N   UNL     1       8.757  22.603  54.112  1.00  0.00    -0.187 NA
HETATM   27  N   UNL     1       9.336  22.602  55.321  1.00  0.00    -0.289 N 
HETATM   28  H   UNL     1      10.069  21.922  55.504  1.00  0.00     0.188 HD
HETATM   29  C   UNL     1       8.838  23.561  56.160  1.00  0.00     0.123 A 
ENDBRANCH  18  24
ENDBRANCH   7  11
BRANCH   1  30
HETATM   30  C   UNL     1       2.287  32.057  52.134  1.00  0.00     0.251 C 
HETATM   31  O   UNL     1       1.553  32.955  51.738  1.00  0.00    -0.268 OA
HETATM   32  N   UNL     1       2.421  30.838  51.507  1.00  0.00    -0.357 N 
HETATM   33  H   UNL     1       3.207  30.247  51.743  1.00  0.00     0.162 HD
BRANCH  32  34
HETATM   34  C   UNL     1       1.697  30.559  50.276  1.00  0.00     0.129 C 
BRANCH  34  35
HETATM   35  C   UNL     1       1.308  29.089  50.162  1.00  0.00     0.079 C 
BRANCH  35  36
HETATM   36  C   UNL     1       2.255  28.341  49.265  1.00  0.00     0.035 A 
HETATM   37  C   UNL     1       1.778  27.599  48.187  1.00  0.00     0.027 A 
HETATM   38  C   UNL     1       2.689  26.910  47.392  1.00  0.00     0.003 A 
HETATM   39  C   UNL     1       4.043  26.976  47.693  1.00  0.00     0.019 A 
HETATM   40  C   UNL     1       4.433  27.731  48.786  1.00  0.00     0.117 A 
HETATM   41  N   UNL     1       3.571  28.409  49.576  1.00  0.00    -0.266 NA
ENDBRANCH  35  36
ENDBRANCH  34  35
ENDBRANCH  32  34
ENDBRANCH   1  30
TORSDOF 6
ENDMDL
