MODEL 1
REMARK VINA RESULT:      -9.2      0.000      0.000
REMARK  7 active torsions:
REMARK  status: ('A' for Active; 'I' for Inactive)
REMARK    1  A    between atoms: S_2  and  C_3 
REMARK    2  A    between atoms: C_6  and  C_7 
REMARK    3  A    between atoms: N_8  and  C_9 
REMARK    4  A    between atoms: C_9  and  C_10 
REMARK    5  A    between atoms: C_10  and  C_11 
REMARK    6  A    between atoms: C_24  and  C_25 
REMARK    7  A    between atoms: C_26  and  O_27 
ROOT
HETATM    1  C   UNL     1       6.020  25.423  56.174  1.00  0.00     0.159 A 
HETATM    2  N   UNL     1       6.069  26.676  56.966  1.00  0.00    -0.333 N 
HETATM    3  C   UNL     1       7.294  26.884  57.628  1.00  0.00     0.275 A 
HETATM    4  O   UNL     1       7.615  27.843  58.311  1.00  0.00    -0.266 OA
HETATM    5  C   UNL     1       8.088  25.726  57.279  1.00  0.00     0.155 A 
HETATM    6  C   UNL     1       7.377  24.883  56.423  1.00  0.00     0.034 A 
HETATM    7  N   UNL     1       9.330  25.312  57.513  1.00  0.00    -0.168 NA
HETATM    8  N   UNL     1       9.390  24.160  56.797  1.00  0.00    -0.276 N 
HETATM    9  H   UNL     1      10.253  23.625  56.812  1.00  0.00     0.189 HD
HETATM   10  C   UNL     1       8.244  23.880  56.070  1.00  0.00     0.074 A 
ENDROOT
BRANCH   1  11
HETATM   11  C   UNL     1       5.884  25.589  54.680  1.00  0.00    -0.031 A 
HETATM   12  C   UNL     1       4.907  24.922  53.923  1.00  0.00     0.011 A 
HETATM   13  C   UNL     1       4.789  25.153  52.549  1.00  0.00     0.019 A 
HETATM   14  C   UNL     1       5.639  26.057  51.909  1.00  0.00    -0.000 A 
HETATM   15  C   UNL     1       6.630  26.705  52.645  1.00  0.00     0.019 A 
HETATM   16  C   UNL     1       6.751  26.476  54.017  1.00  0.00     0.011 A 
BRANCH  14  17
HETATM   17  S   UNL     1       5.451  26.367  50.165  1.00  0.00    -0.134 SA
HETATM   18  C   UNL     1       5.378  28.177  50.207  1.00  0.00     0.095 C 
ENDBRANCH  14  17
ENDBRANCH   1  11
BRANCH   2  19
HETATM   19  C   UNL     1       5.029  27.695  56.946  1.00  0.00     0.132 C 
BRANCH  19  20
HETATM   20  C   UNL     1       5.421  29.057  56.361  1.00  0.00     0.058 C 
BRANCH  20  21
HETATM   21  C   UNL     1       4.661  29.537  55.145  1.00  0.00    -0.057 A 
HETATM   22  C   UNL     1       4.581  30.889  54.785  1.00  0.00     0.007 A 
HETATM   23  C   UNL     1       3.882  31.279  53.640  1.00  0.00     0.001 A 
HETATM   24  C   UNL     1       3.267  30.322  52.834  1.00  0.00     0.000 A 
HETATM   25  C   UNL     1       3.356  28.975  53.167  1.00  0.00     0.001 A 
HETATM   26  C   UNL     1       4.051  28.584  54.312  1.00  0.00     0.007 A 
ENDBRANCH  20  21
ENDBRANCH  19  20
ENDBRANCH   2  19
BRANCH  10  27
HETATM   27  C   UNL     1       8.133  22.759  55.149  1.00  0.00     0.026 A 
HETATM   28  C   UNL     1       8.127  21.430  55.601  1.00  0.00     0.078 A 
HETATM   29  C   UNL     1       7.971  20.368  54.715  1.00  0.00     0.037 A 
HETATM   30  C   UNL     1       7.851  20.619  53.350  1.00  0.00     0.003 A 
HETATM   31  C   UNL     1       7.881  21.931  52.879  1.00  0.00     0.001 A 
HETATM   32  C   UNL     1       8.017  22.997  53.773  1.00  0.00     0.016 A 
BRANCH  28  33
HETATM   33  O   UNL     1       8.302  21.107  56.920  1.00  0.00    -0.360 OA
HETATM   34  H   UNL     1       8.214  21.930  57.436  1.00  0.00     0.217 HD
ENDBRANCH  28  33
ENDBRANCH  10  27
TORSDOF 7
ENDMDL
MODEL 2
REMARK VINA RESULT:      -9.1      3.343      8.251
REMARK  7 active torsions:
REMARK  status: ('A' for Active; 'I' for Inactive)
REMARK    1  A    between atoms: S_2  and  C_3 
REMARK    2  A    between atoms: C_6  and  C_7 
REMARK    3  A    between atoms: N_8  and  C_9 
REMARK    4  A    between atoms: C_9  and  C_10 
REMARK    5  A    between atoms: C_10  and  C_11 
REMARK    6  A    between atoms: C_24  and  C_25 
REMARK    7  A    between atoms: C_26  and  O_27 
ROOT
HETATM    1  C   UNL     1       5.394  27.468  55.866  1.00  0.00     0.159 A 
HETATM    2  N   UNL     1       5.468  26.266  54.999  1.00  0.00    -0.333 N 
HETATM    3  C   UNL     1       4.875  26.439  53.735  1.00  0.00     0.275 A 
HETATM    4  O   UNL     1       4.827  25.632  52.821  1.00  0.00    -0.266 OA
HETATM    5  C   UNL     1       4.375  27.797  53.758  1.00  0.00     0.155 A 
HETATM    6  C   UNL     1       4.686  28.413  54.972  1.00  0.00     0.034 A 
HETATM    7  N   UNL     1       3.768  28.608  52.897  1.00  0.00    -0.168 NA
HETATM    8  N   UNL     1       3.675  29.763  53.604  1.00  0.00    -0.276 N 
HETATM    9  H   UNL     1       3.231  30.564  53.166  1.00  0.00     0.189 HD
HETATM   10  C   UNL     1       4.268  29.715  54.855  1.00  0.00     0.074 A 
ENDROOT
BRANCH   1  11
HETATM   11  C   UNL     1       6.714  28.109  56.220  1.00  0.00    -0.031 A 
HETATM   12  C   UNL     1       7.667  28.480  55.257  1.00  0.00     0.011 A 
HETATM   13  C   UNL     1       8.851  29.119  55.634  1.00  0.00     0.019 A 
HETATM   14  C   UNL     1       9.102  29.406  56.978  1.00  0.00    -0.000 A 
HETATM   15  C   UNL     1       8.176  29.019  57.946  1.00  0.00     0.019 A 
HETATM   16  C   UNL     1       6.993  28.379  57.572  1.00  0.00     0.011 A 
BRANCH  14  17
HETATM   17  S   UNL     1      10.599  30.255  57.437  1.00  0.00    -0.134 SA
HETATM   18  C   UNL     1       9.891  31.480  58.569  1.00  0.00     0.095 C 
ENDBRANCH  14  17
ENDBRANCH   1  11
BRANCH   2  19
HETATM   19  C   UNL     1       6.221  25.065  55.333  1.00  0.00     0.132 C 
BRANCH  19  20
HETATM   20  C   UNL     1       7.292  24.632  54.325  1.00  0.00     0.058 C 
BRANCH  20  21
HETATM   21  C   UNL     1       7.570  23.151  54.200  1.00  0.00    -0.057 A 
HETATM   22  C   UNL     1       7.872  22.535  52.978  1.00  0.00     0.007 A 
HETATM   23  C   UNL     1       8.140  21.166  52.918  1.00  0.00     0.001 A 
HETATM   24  C   UNL     1       8.124  20.397  54.080  1.00  0.00     0.000 A 
HETATM   25  C   UNL     1       7.846  20.997  55.304  1.00  0.00     0.001 A 
HETATM   26  C   UNL     1       7.575  22.365  55.365  1.00  0.00     0.007 A 
ENDBRANCH  20  21
ENDBRANCH  19  20
ENDBRANCH   2  19
BRANCH  10  27
HETATM   27  C   UNL     1       4.384  30.869  55.732  1.00  0.00     0.026 A 
HETATM   28  C   UNL     1       4.714  32.141  55.239  1.00  0.00     0.078 A 
HETATM   29  C   UNL     1       4.774  33.249  56.081  1.00  0.00     0.037 A 
HETATM   30  C   UNL     1       4.536  33.092  57.445  1.00  0.00     0.003 A 
HETATM   31  C   UNL     1       4.233  31.832  57.958  1.00  0.00     0.001 A 
HETATM   32  C   UNL     1       4.153  30.726  57.107  1.00  0.00     0.016 A 
BRANCH  28  33
HETATM   33  O   UNL     1       5.020  32.356  53.922  1.00  0.00    -0.360 OA
HETATM   34  H   UNL     1       5.160  31.485  53.509  1.00  0.00     0.217 HD
ENDBRANCH  28  33
ENDBRANCH  10  27
TORSDOF 7
ENDMDL
MODEL 3
REMARK VINA RESULT:      -8.9      1.449      2.196
REMARK  7 active torsions:
REMARK  status: ('A' for Active; 'I' for Inactive)
REMARK    1  A    between atoms: S_2  and  C_3 
REMARK    2  A    between atoms: C_6  and  C_7 
REMARK    3  A    between atoms: N_8  and  C_9 
REMARK    4  A    between atoms: C_9  and  C_10 
REMARK    5  A    between atoms: C_10  and  C_11 
REMARK    6  A    between atoms: C_24  and  C_25 
REMARK    7  A    between atoms: C_26  and  O_27 
ROOT
HETATM    1  C   UNL     1       6.040  25.427  56.206  1.00  0.00     0.159 A 
HETATM    2  N   UNL     1       6.099  26.665  57.021  1.00  0.00    -0.333 N 
HETATM    3  C   UNL     1       7.334  26.862  57.667  1.00  0.00     0.275 A 
HETATM    4  O   UNL     1       7.664  27.808  58.364  1.00  0.00    -0.266 OA
HETATM    5  C   UNL     1       8.125  25.713  57.283  1.00  0.00     0.155 A 
HETATM    6  C   UNL     1       7.402  24.886  56.422  1.00  0.00     0.034 A 
HETATM    7  N   UNL     1       9.371  25.297  57.489  1.00  0.00    -0.168 NA
HETATM    8  N   UNL     1       9.421  24.160  56.750  1.00  0.00    -0.276 N 
HETATM    9  H   UNL     1      10.286  23.627  56.740  1.00  0.00     0.189 HD
HETATM   10  C   UNL     1       8.265  23.892  56.036  1.00  0.00     0.074 A 
ENDROOT
BRANCH   1  11
HETATM   11  C   UNL     1       5.880  25.623  54.718  1.00  0.00    -0.031 A 
HETATM   12  C   UNL     1       4.976  24.879  53.942  1.00  0.00     0.011 A 
HETATM   13  C   UNL     1       4.827  25.136  52.576  1.00  0.00     0.019 A 
HETATM   14  C   UNL     1       5.573  26.145  51.962  1.00  0.00    -0.000 A 
HETATM   15  C   UNL     1       6.493  26.873  52.716  1.00  0.00     0.019 A 
HETATM   16  C   UNL     1       6.644  26.616  54.081  1.00  0.00     0.011 A 
BRANCH  14  17
HETATM   17  S   UNL     1       5.344  26.484  50.228  1.00  0.00    -0.134 SA
HETATM   18  C   UNL     1       5.263  28.293  50.305  1.00  0.00     0.095 C 
ENDBRANCH  14  17
ENDBRANCH   1  11
BRANCH   2  19
HETATM   19  C   UNL     1       5.056  27.681  57.038  1.00  0.00     0.132 C 
BRANCH  19  20
HETATM   20  C   UNL     1       5.452  29.071  56.522  1.00  0.00     0.058 C 
BRANCH  20  21
HETATM   21  C   UNL     1       5.282  30.237  57.468  1.00  0.00    -0.057 A 
HETATM   22  C   UNL     1       6.363  30.987  57.951  1.00  0.00     0.007 A 
HETATM   23  C   UNL     1       6.151  32.069  58.809  1.00  0.00     0.001 A 
HETATM   24  C   UNL     1       4.856  32.424  59.183  1.00  0.00     0.000 A 
HETATM   25  C   UNL     1       3.772  31.702  58.695  1.00  0.00     0.001 A 
HETATM   26  C   UNL     1       3.982  30.619  57.840  1.00  0.00     0.007 A 
ENDBRANCH  20  21
ENDBRANCH  19  20
ENDBRANCH   2  19
BRANCH  10  27
HETATM   27  C   UNL     1       8.141  22.789  55.095  1.00  0.00     0.026 A 
HETATM   28  C   UNL     1       8.112  21.453  55.523  1.00  0.00     0.078 A 
HETATM   29  C   UNL     1       7.944  20.409  54.618  1.00  0.00     0.037 A 
HETATM   30  C   UNL     1       7.836  20.686  53.257  1.00  0.00     0.003 A 
HETATM   31  C   UNL     1       7.889  22.005  52.809  1.00  0.00     0.001 A 
HETATM   32  C   UNL     1       8.037  23.053  53.723  1.00  0.00     0.016 A 
BRANCH  28  33
HETATM   33  O   UNL     1       8.274  21.104  56.837  1.00  0.00    -0.360 OA
HETATM   34  H   UNL     1       7.505  20.563  57.092  1.00  0.00     0.217 HD
ENDBRANCH  28  33
ENDBRANCH  10  27
TORSDOF 7
ENDMDL
MODEL 4
REMARK VINA RESULT:      -8.7      5.142      7.195
REMARK  7 active torsions:
REMARK  status: ('A' for Active; 'I' for Inactive)
REMARK    1  A    between atoms: S_2  and  C_3 
REMARK    2  A    between atoms: C_6  and  C_7 
REMARK    3  A    between atoms: N_8  and  C_9 
REMARK    4  A    between atoms: C_9  and  C_10 
REMARK    5  A    between atoms: C_10  and  C_11 
REMARK    6  A    between atoms: C_24  and  C_25 
REMARK    7  A    between atoms: C_26  and  O_27 
ROOT
HETATM    1  C   UNL     1       7.584  30.038  58.803  1.00  0.00     0.159 A 
HETATM    2  N   UNL     1       8.164  31.123  59.632  1.00  0.00    -0.333 N 
HETATM    3  C   UNL     1       9.468  31.492  59.254  1.00  0.00     0.275 A 
HETATM    4  O   UNL     1      10.160  32.373  59.739  1.00  0.00    -0.266 OA
HETATM    5  C   UNL     1       9.779  30.618  58.144  1.00  0.00     0.155 A 
HETATM    6  C   UNL     1       8.694  29.788  57.855  1.00  0.00     0.034 A 
HETATM    7  N   UNL     1      10.798  30.465  57.302  1.00  0.00    -0.168 NA
HETATM    8  N   UNL     1      10.344  29.490  56.475  1.00  0.00    -0.276 N 
HETATM    9  H   UNL     1      10.949  29.171  55.725  1.00  0.00     0.189 HD
HETATM   10  C   UNL     1       9.046  29.080  56.733  1.00  0.00     0.074 A 
ENDROOT
BRANCH   1  11
HETATM   11  C   UNL     1       6.379  30.412  57.974  1.00  0.00    -0.031 A 
HETATM   12  C   UNL     1       6.087  31.735  57.604  1.00  0.00     0.011 A 
HETATM   13  C   UNL     1       4.988  32.023  56.790  1.00  0.00     0.019 A 
HETATM   14  C   UNL     1       4.165  30.994  56.325  1.00  0.00    -0.000 A 
HETATM   15  C   UNL     1       4.429  29.679  56.708  1.00  0.00     0.019 A 
HETATM   16  C   UNL     1       5.526  29.390  57.522  1.00  0.00     0.011 A 
BRANCH  14  17
HETATM   17  S   UNL     1       2.790  31.374  55.258  1.00  0.00    -0.134 SA
HETATM   18  C   UNL     1       3.408  30.626  53.728  1.00  0.00     0.095 C 
ENDBRANCH  14  17
ENDBRANCH   1  11
BRANCH   2  19
HETATM   19  C   UNL     1       7.419  31.867  60.638  1.00  0.00     0.132 C 
BRANCH  19  20
HETATM   20  C   UNL     1       7.698  31.501  62.101  1.00  0.00     0.058 C 
BRANCH  20  21
HETATM   21  C   UNL     1       7.014  32.327  63.166  1.00  0.00    -0.057 A 
HETATM   22  C   UNL     1       5.620  32.412  63.283  1.00  0.00     0.007 A 
HETATM   23  C   UNL     1       5.036  33.174  64.297  1.00  0.00     0.001 A 
HETATM   24  C   UNL     1       5.837  33.849  65.216  1.00  0.00     0.000 A 
HETATM   25  C   UNL     1       7.222  33.757  65.127  1.00  0.00     0.001 A 
HETATM   26  C   UNL     1       7.807  32.999  64.112  1.00  0.00     0.007 A 
ENDBRANCH  20  21
ENDBRANCH  19  20
ENDBRANCH   2  19
BRANCH  10  27
HETATM   27  C   UNL     1       8.324  28.130  55.901  1.00  0.00     0.026 A 
HETATM   28  C   UNL     1       7.928  26.874  56.387  1.00  0.00     0.078 A 
HETATM   29  C   UNL     1       7.195  25.993  55.597  1.00  0.00     0.037 A 
HETATM   30  C   UNL     1       6.874  26.344  54.288  1.00  0.00     0.003 A 
HETATM   31  C   UNL     1       7.280  27.576  53.778  1.00  0.00     0.001 A 
HETATM   32  C   UNL     1       7.998  28.467  54.581  1.00  0.00     0.016 A 
BRANCH  28  33
HETATM   33  O   UNL     1       8.262  26.439  57.642  1.00  0.00    -0.360 OA
HETATM   34  H   UNL     1       9.058  25.883  57.556  1.00  0.00     0.217 HD
ENDBRANCH  28  33
ENDBRANCH  10  27
TORSDOF 7
ENDMDL
MODEL 5
REMARK VINA RESULT:      -8.6      3.595      8.171
REMARK  7 active torsions:
REMARK  status: ('A' for Active; 'I' for Inactive)
REMARK    1  A    between atoms: S_2  and  C_3 
REMARK    2  A    between atoms: C_6  and  C_7 
REMARK    3  A    between atoms: N_8  and  C_9 
REMARK    4  A    between atoms: C_9  and  C_10 
REMARK    5  A    between atoms: C_10  and  C_11 
REMARK    6  A    between atoms: C_24  and  C_25 
REMARK    7  A    between atoms: C_26  and  O_27 
ROOT
HETATM    1  C   UNL     1       4.569  27.391  53.320  1.00  0.00     0.159 A 
HETATM    2  N   UNL     1       4.851  26.491  52.175  1.00  0.00    -0.333 N 
HETATM    3  C   UNL     1       4.723  27.111  50.919  1.00  0.00     0.275 A 
HETATM    4  O   UNL     1       4.932  26.617  49.822  1.00  0.00    -0.266 OA
HETATM    5  C   UNL     1       4.330  28.469  51.229  1.00  0.00     0.155 A 
HETATM    6  C   UNL     1       4.258  28.654  52.611  1.00  0.00     0.034 A 
HETATM    7  N   UNL     1       4.094  29.579  50.536  1.00  0.00    -0.168 NA
HETATM    8  N   UNL     1       3.844  30.483  51.516  1.00  0.00    -0.276 N 
HETATM    9  H   UNL     1       3.621  31.437  51.250  1.00  0.00     0.189 HD
HETATM   10  C   UNL     1       3.984  29.985  52.802  1.00  0.00     0.074 A 
ENDROOT
BRANCH   1  11
HETATM   11  C   UNL     1       5.733  27.681  54.236  1.00  0.00    -0.031 A 
HETATM   12  C   UNL     1       6.966  28.169  53.774  1.00  0.00     0.011 A 
HETATM   13  C   UNL     1       7.995  28.473  54.670  1.00  0.00     0.019 A 
HETATM   14  C   UNL     1       7.809  28.300  56.043  1.00  0.00    -0.000 A 
HETATM   15  C   UNL     1       6.598  27.791  56.512  1.00  0.00     0.019 A 
HETATM   16  C   UNL     1       5.570  27.486  55.619  1.00  0.00     0.011 A 
BRANCH  14  17
HETATM   17  S   UNL     1       9.118  28.727  57.174  1.00  0.00    -0.134 SA
HETATM   18  C   UNL     1      10.165  29.681  56.044  1.00  0.00     0.095 C 
ENDBRANCH  14  17
ENDBRANCH   1  11
BRANCH   2  19
HETATM   19  C   UNL     1       5.374  25.139  52.311  1.00  0.00     0.132 C 
BRANCH  19  20
HETATM   20  C   UNL     1       6.894  24.980  52.175  1.00  0.00     0.058 C 
BRANCH  20  21
HETATM   21  C   UNL     1       7.596  24.117  53.198  1.00  0.00    -0.057 A 
HETATM   22  C   UNL     1       8.127  22.857  52.892  1.00  0.00     0.007 A 
HETATM   23  C   UNL     1       8.785  22.106  53.869  1.00  0.00     0.001 A 
HETATM   24  C   UNL     1       8.933  22.610  55.159  1.00  0.00     0.000 A 
HETATM   25  C   UNL     1       8.430  23.868  55.473  1.00  0.00     0.001 A 
HETATM   26  C   UNL     1       7.770  24.618  54.499  1.00  0.00     0.007 A 
ENDBRANCH  20  21
ENDBRANCH  19  20
ENDBRANCH   2  19
BRANCH  10  27
HETATM   27  C   UNL     1       3.873  30.807  53.997  1.00  0.00     0.026 A 
HETATM   28  C   UNL     1       4.313  32.140  54.019  1.00  0.00     0.078 A 
HETATM   29  C   UNL     1       4.158  32.932  55.154  1.00  0.00     0.037 A 
HETATM   30  C   UNL     1       3.585  32.388  56.302  1.00  0.00     0.003 A 
HETATM   31  C   UNL     1       3.165  31.058  56.308  1.00  0.00     0.001 A 
HETATM   32  C   UNL     1       3.305  30.272  55.160  1.00  0.00     0.016 A 
BRANCH  28  33
HETATM   33  O   UNL     1       4.939  32.720  52.949  1.00  0.00    -0.360 OA
HETATM   34  H   UNL     1       5.649  33.289  53.299  1.00  0.00     0.217 HD
ENDBRANCH  28  33
ENDBRANCH  10  27
TORSDOF 7
ENDMDL
MODEL 6
REMARK VINA RESULT:      -8.4      3.431      8.245
REMARK  7 active torsions:
REMARK  status: ('A' for Active; 'I' for Inactive)
REMARK    1  A    between atoms: S_2  and  C_3 
REMARK    2  A    between atoms: C_6  and  C_7 
REMARK    3  A    between atoms: N_8  and  C_9 
REMARK    4  A    between atoms: C_9  and  C_10 
REMARK    5  A    between atoms: C_10  and  C_11 
REMARK    6  A    between atoms: C_24  and  C_25 
REMARK    7  A    between atoms: C_26  and  O_27 
ROOT
HETATM    1  C   UNL     1       4.881  27.419  54.821  1.00  0.00     0.159 A 
HETATM    2  N   UNL     1       5.256  26.182  54.093  1.00  0.00    -0.333 N 
HETATM    3  C   UNL     1       5.178  26.300  52.693  1.00  0.00     0.275 A 
HETATM    4  O   UNL     1       5.463  25.455  51.860  1.00  0.00    -0.266 OA
HETATM    5  C   UNL     1       4.722  27.656  52.474  1.00  0.00     0.155 A 
HETATM    6  C   UNL     1       4.568  28.324  53.691  1.00  0.00     0.034 A 
HETATM    7  N   UNL     1       4.489  28.429  51.417  1.00  0.00    -0.168 NA
HETATM    8  N   UNL     1       4.154  29.611  51.992  1.00  0.00    -0.276 N 
HETATM    9  H   UNL     1       3.914  30.392  51.389  1.00  0.00     0.189 HD
HETATM   10  C   UNL     1       4.240  29.618  53.375  1.00  0.00     0.074 A 
ENDROOT
BRANCH   1  11
HETATM   11  C   UNL     1       5.983  28.079  55.615  1.00  0.00    -0.031 A 
HETATM   12  C   UNL     1       5.870  28.369  56.985  1.00  0.00     0.011 A 
HETATM   13  C   UNL     1       6.940  28.932  57.686  1.00  0.00     0.019 A 
HETATM   14  C   UNL     1       8.143  29.210  57.033  1.00  0.00    -0.000 A 
HETATM   15  C   UNL     1       8.258  28.952  55.668  1.00  0.00     0.019 A 
HETATM   16  C   UNL     1       7.190  28.391  54.965  1.00  0.00     0.011 A 
BRANCH  14  17
HETATM   17  S   UNL     1       9.509  29.894  57.950  1.00  0.00    -0.134 SA
HETATM   18  C   UNL     1      10.816  29.669  56.715  1.00  0.00     0.095 C 
ENDBRANCH  14  17
ENDBRANCH   1  11
BRANCH   2  19
HETATM   19  C   UNL     1       5.816  24.999  54.731  1.00  0.00     0.132 C 
BRANCH  19  20
HETATM   20  C   UNL     1       7.240  24.610  54.313  1.00  0.00     0.058 C 
BRANCH  20  21
HETATM   21  C   UNL     1       7.580  23.137  54.297  1.00  0.00    -0.057 A 
HETATM   22  C   UNL     1       7.605  22.350  55.456  1.00  0.00     0.007 A 
HETATM   23  C   UNL     1       7.907  20.989  55.386  1.00  0.00     0.001 A 
HETATM   24  C   UNL     1       8.173  20.392  54.155  1.00  0.00     0.000 A 
HETATM   25  C   UNL     1       8.131  21.155  52.992  1.00  0.00     0.001 A 
HETATM   26  C   UNL     1       7.833  22.517  53.061  1.00  0.00     0.007 A 
ENDBRANCH  20  21
ENDBRANCH  19  20
ENDBRANCH   2  19
BRANCH  10  27
HETATM   27  C   UNL     1       4.036  30.809  54.185  1.00  0.00     0.026 A 
HETATM   28  C   UNL     1       2.988  31.706  53.928  1.00  0.00     0.078 A 
HETATM   29  C   UNL     1       2.773  32.817  54.739  1.00  0.00     0.037 A 
HETATM   30  C   UNL     1       3.630  33.066  55.809  1.00  0.00     0.003 A 
HETATM   31  C   UNL     1       4.693  32.200  56.065  1.00  0.00     0.001 A 
HETATM   32  C   UNL     1       4.893  31.075  55.260  1.00  0.00     0.016 A 
BRANCH  28  33
HETATM   33  O   UNL     1       2.145  31.557  52.859  1.00  0.00    -0.360 OA
HETATM   34  H   UNL     1       2.696  31.363  52.078  1.00  0.00     0.217 HD
ENDBRANCH  28  33
ENDBRANCH  10  27
TORSDOF 7
ENDMDL
MODEL 7
REMARK VINA RESULT:      -8.3      9.487     12.239
REMARK  7 active torsions:
REMARK  status: ('A' for Active; 'I' for Inactive)
REMARK    1  A    between atoms: S_2  and  C_3 
REMARK    2  A    between atoms: C_6  and  C_7 
REMARK    3  A    between atoms: N_8  and  C_9 
REMARK    4  A    between atoms: C_9  and  C_10 
REMARK    5  A    between atoms: C_10  and  C_11 
REMARK    6  A    between atoms: C_24  and  C_25 
REMARK    7  A    between atoms: C_26  and  O_27 
ROOT
HETATM    1  C   UNL     1       4.692  34.943  60.835  1.00  0.00     0.159 A 
HETATM    2  N   UNL     1       3.322  35.363  60.451  1.00  0.00    -0.333 N 
HETATM    3  C   UNL     1       2.617  34.397  59.710  1.00  0.00     0.275 A 
HETATM    4  O   UNL     1       1.469  34.466  59.302  1.00  0.00    -0.266 OA
HETATM    5  C   UNL     1       3.549  33.297  59.581  1.00  0.00     0.155 A 
HETATM    6  C   UNL     1       4.743  33.586  60.244  1.00  0.00     0.034 A 
HETATM    7  N   UNL     1       3.520  32.074  59.058  1.00  0.00    -0.168 NA
HETATM    8  N   UNL     1       4.746  31.592  59.384  1.00  0.00    -0.276 N 
HETATM    9  H   UNL     1       4.991  30.653  59.087  1.00  0.00     0.189 HD
HETATM   10  C   UNL     1       5.512  32.452  60.154  1.00  0.00     0.074 A 
ENDROOT
BRANCH   1  11
HETATM   11  C   UNL     1       4.945  34.784  62.315  1.00  0.00    -0.031 A 
HETATM   12  C   UNL     1       3.957  34.355  63.217  1.00  0.00     0.011 A 
HETATM   13  C   UNL     1       4.256  34.172  64.570  1.00  0.00     0.019 A 
HETATM   14  C   UNL     1       5.548  34.407  65.045  1.00  0.00    -0.000 A 
HETATM   15  C   UNL     1       6.531  34.858  64.164  1.00  0.00     0.019 A 
HETATM   16  C   UNL     1       6.234  35.043  62.813  1.00  0.00     0.011 A 
BRANCH  14  17
HETATM   17  S   UNL     1       5.922  34.133  66.765  1.00  0.00    -0.134 SA
HETATM   18  C   UNL     1       4.239  34.202  67.432  1.00  0.00     0.095 C 
ENDBRANCH  14  17
ENDBRANCH   1  11
BRANCH   2  19
HETATM   19  C   UNL     1       2.681  36.583  60.923  1.00  0.00     0.132 C 
BRANCH  19  20
HETATM   20  C   UNL     1       3.389  37.900  60.581  1.00  0.00     0.058 C 
BRANCH  20  21
HETATM   21  C   UNL     1       4.609  38.265  61.395  1.00  0.00    -0.057 A 
HETATM   22  C   UNL     1       5.829  38.631  60.812  1.00  0.00     0.007 A 
HETATM   23  C   UNL     1       6.922  38.979  61.609  1.00  0.00     0.001 A 
HETATM   24  C   UNL     1       6.805  38.980  62.998  1.00  0.00     0.000 A 
HETATM   25  C   UNL     1       5.594  38.639  63.591  1.00  0.00     0.001 A 
HETATM   26  C   UNL     1       4.502  38.288  62.796  1.00  0.00     0.007 A 
ENDBRANCH  20  21
ENDBRANCH  19  20
ENDBRANCH   2  19
BRANCH  10  27
HETATM   27  C   UNL     1       6.808  32.094  60.708  1.00  0.00     0.026 A 
HETATM   28  C   UNL     1       6.931  31.506  61.977  1.00  0.00     0.078 A 
HETATM   29  C   UNL     1       8.173  31.123  62.477  1.00  0.00     0.037 A 
HETATM   30  C   UNL     1       9.322  31.354  61.723  1.00  0.00     0.003 A 
HETATM   31  C   UNL     1       9.223  31.961  60.471  1.00  0.00     0.001 A 
HETATM   32  C   UNL     1       7.972  32.326  59.964  1.00  0.00     0.016 A 
BRANCH  28  33
HETATM   33  O   UNL     1       5.853  31.306  62.796  1.00  0.00    -0.360 OA
HETATM   34  H   UNL     1       5.353  32.142  62.831  1.00  0.00     0.217 HD
ENDBRANCH  28  33
ENDBRANCH  10  27
TORSDOF 7
ENDMDL
MODEL 8
REMARK VINA RESULT:      -8.1      1.889      7.247
REMARK  7 active torsions:
REMARK  status: ('A' for Active; 'I' for Inactive)
REMARK    1  A    between atoms: S_2  and  C_3 
REMARK    2  A    between atoms: C_6  and  C_7 
REMARK    3  A    between atoms: N_8  and  C_9 
REMARK    4  A    between atoms: C_9  and  C_10 
REMARK    5  A    between atoms: C_10  and  C_11 
REMARK    6  A    between atoms: C_24  and  C_25 
REMARK    7  A    between atoms: C_26  and  O_27 
ROOT
HETATM    1  C   UNL     1       6.575  27.172  53.576  1.00  0.00     0.159 A 
HETATM    2  N   UNL     1       7.062  25.965  54.288  1.00  0.00    -0.333 N 
HETATM    3  C   UNL     1       6.400  25.716  55.505  1.00  0.00     0.275 A 
HETATM    4  O   UNL     1       6.575  24.779  56.266  1.00  0.00    -0.266 OA
HETATM    5  C   UNL     1       5.447  26.799  55.620  1.00  0.00     0.155 A 
HETATM    6  C   UNL     1       5.518  27.636  54.505  1.00  0.00     0.034 A 
HETATM    7  N   UNL     1       4.490  27.144  56.477  1.00  0.00    -0.168 NA
HETATM    8  N   UNL     1       3.961  28.247  55.890  1.00  0.00    -0.276 N 
HETATM    9  H   UNL     1       3.196  28.725  56.357  1.00  0.00     0.189 HD
HETATM   10  C   UNL     1       4.515  28.559  54.659  1.00  0.00     0.074 A 
ENDROOT
BRANCH   1  11
HETATM   11  C   UNL     1       5.908  26.930  52.244  1.00  0.00    -0.031 A 
HETATM   12  C   UNL     1       5.162  25.774  51.961  1.00  0.00     0.011 A 
HETATM   13  C   UNL     1       4.519  25.622  50.729  1.00  0.00     0.019 A 
HETATM   14  C   UNL     1       4.603  26.625  49.761  1.00  0.00    -0.000 A 
HETATM   15  C   UNL     1       5.363  27.766  50.019  1.00  0.00     0.019 A 
HETATM   16  C   UNL     1       6.007  27.919  51.249  1.00  0.00     0.011 A 
BRANCH  14  17
HETATM   17  S   UNL     1       3.747  26.432  48.210  1.00  0.00    -0.134 SA
HETATM   18  C   UNL     1       2.334  27.520  48.533  1.00  0.00     0.095 C 
ENDBRANCH  14  17
ENDBRANCH   1  11
BRANCH   2  19
HETATM   19  C   UNL     1       8.014  25.017  53.727  1.00  0.00     0.132 C 
BRANCH  19  20
HETATM   20  C   UNL     1       7.425  23.728  53.140  1.00  0.00     0.058 C 
BRANCH  20  21
HETATM   21  C   UNL     1       7.944  22.417  53.685  1.00  0.00    -0.057 A 
HETATM   22  C   UNL     1       7.979  21.239  52.925  1.00  0.00     0.007 A 
HETATM   23  C   UNL     1       8.487  20.057  53.468  1.00  0.00     0.001 A 
HETATM   24  C   UNL     1       8.980  20.040  54.772  1.00  0.00     0.000 A 
HETATM   25  C   UNL     1       8.971  21.205  55.531  1.00  0.00     0.001 A 
HETATM   26  C   UNL     1       8.461  22.386  54.991  1.00  0.00     0.007 A 
ENDBRANCH  20  21
ENDBRANCH  19  20
ENDBRANCH   2  19
BRANCH  10  27
HETATM   27  C   UNL     1       4.022  29.631  53.807  1.00  0.00     0.026 A 
HETATM   28  C   UNL     1       4.317  30.977  54.070  1.00  0.00     0.078 A 
HETATM   29  C   UNL     1       3.881  31.991  53.220  1.00  0.00     0.037 A 
HETATM   30  C   UNL     1       3.110  31.672  52.104  1.00  0.00     0.003 A 
HETATM   31  C   UNL     1       2.786  30.342  51.840  1.00  0.00     0.001 A 
HETATM   32  C   UNL     1       3.242  29.325  52.684  1.00  0.00     0.016 A 
BRANCH  28  33
HETATM   33  O   UNL     1       5.016  31.368  55.180  1.00  0.00    -0.360 OA
HETATM   34  H   UNL     1       5.838  31.793  54.873  1.00  0.00     0.217 HD
ENDBRANCH  28  33
ENDBRANCH  10  27
TORSDOF 7
ENDMDL
MODEL 9
REMARK VINA RESULT:      -8.0      1.532      2.207
REMARK  7 active torsions:
REMARK  status: ('A' for Active; 'I' for Inactive)
REMARK    1  A    between atoms: S_2  and  C_3 
REMARK    2  A    between atoms: C_6  and  C_7 
REMARK    3  A    between atoms: N_8  and  C_9 
REMARK    4  A    between atoms: C_9  and  C_10 
REMARK    5  A    between atoms: C_10  and  C_11 
REMARK    6  A    between atoms: C_24  and  C_25 
REMARK    7  A    between atoms: C_26  and  O_27 
ROOT
HETATM    1  C   UNL     1       5.214  27.274  55.856  1.00  0.00     0.159 A 
HETATM    2  N   UNL     1       5.047  28.566  56.567  1.00  0.00    -0.333 N 
HETATM    3  C   UNL     1       6.142  28.914  57.379  1.00  0.00     0.275 A 
HETATM    4  O   UNL     1       6.283  29.930  58.040  1.00  0.00    -0.266 OA
HETATM    5  C   UNL     1       7.069  27.814  57.219  1.00  0.00     0.155 A 
HETATM    6  C   UNL     1       6.560  26.870  56.325  1.00  0.00     0.034 A 
HETATM    7  N   UNL     1       8.294  27.524  57.649  1.00  0.00    -0.168 NA
HETATM    8  N   UNL     1       8.548  26.348  57.023  1.00  0.00    -0.276 N 
HETATM    9  H   UNL     1       9.440  25.892  57.191  1.00  0.00     0.189 HD
HETATM   10  C   UNL     1       7.547  25.931  56.161  1.00  0.00     0.074 A 
ENDROOT
BRANCH   1  11
HETATM   11  C   UNL     1       5.283  27.353  54.350  1.00  0.00    -0.031 A 
HETATM   12  C   UNL     1       4.490  26.558  53.506  1.00  0.00     0.011 A 
HETATM   13  C   UNL     1       4.554  26.708  52.118  1.00  0.00     0.019 A 
HETATM   14  C   UNL     1       5.405  27.658  51.548  1.00  0.00    -0.000 A 
HETATM   15  C   UNL     1       6.217  28.434  52.374  1.00  0.00     0.019 A 
HETATM   16  C   UNL     1       6.156  28.285  53.761  1.00  0.00     0.011 A 
BRANCH  14  17
HETATM   17  S   UNL     1       5.446  27.861  49.779  1.00  0.00    -0.134 SA
HETATM   18  C   UNL     1       4.418  26.445  49.310  1.00  0.00     0.095 C 
ENDBRANCH  14  17
ENDBRANCH   1  11
BRANCH   2  19
HETATM   19  C   UNL     1       3.942  29.486  56.337  1.00  0.00     0.132 C 
BRANCH  19  20
HETATM   20  C   UNL     1       4.313  30.876  55.806  1.00  0.00     0.058 C 
BRANCH  20  21
HETATM   21  C   UNL     1       3.978  31.180  54.363  1.00  0.00    -0.057 A 
HETATM   22  C   UNL     1       3.347  30.256  53.520  1.00  0.00     0.007 A 
HETATM   23  C   UNL     1       3.041  30.593  52.199  1.00  0.00     0.001 A 
HETATM   24  C   UNL     1       3.349  31.861  51.709  1.00  0.00     0.000 A 
HETATM   25  C   UNL     1       3.957  32.796  52.541  1.00  0.00     0.001 A 
HETATM   26  C   UNL     1       4.266  32.460  53.859  1.00  0.00     0.007 A 
ENDBRANCH  20  21
ENDBRANCH  19  20
ENDBRANCH   2  19
BRANCH  10  27
HETATM   27  C   UNL     1       7.660  24.760  55.305  1.00  0.00     0.026 A 
HETATM   28  C   UNL     1       7.769  23.466  55.836  1.00  0.00     0.078 A 
HETATM   29  C   UNL     1       7.828  22.348  55.008  1.00  0.00     0.037 A 
HETATM   30  C   UNL     1       7.813  22.514  53.624  1.00  0.00     0.003 A 
HETATM   31  C   UNL     1       7.732  23.794  53.077  1.00  0.00     0.001 A 
HETATM   32  C   UNL     1       7.652  24.911  53.912  1.00  0.00     0.016 A 
BRANCH  28  33
HETATM   33  O   UNL     1       7.850  23.234  57.183  1.00  0.00    -0.360 OA
HETATM   34  H   UNL     1       7.474  22.350  57.351  1.00  0.00     0.217 HD
ENDBRANCH  28  33
ENDBRANCH  10  27
TORSDOF 7
ENDMDL
MODEL 10
REMARK VINA RESULT:      -7.8      8.584     11.328
REMARK  7 active torsions:
REMARK  status: ('A' for Active; 'I' for Inactive)
REMARK    1  A    between atoms: S_2  and  C_3 
REMARK    2  A    between atoms: C_6  and  C_7 
REMARK    3  A    between atoms: N_8  and  C_9 
REMARK    4  A    between atoms: C_9  and  C_10 
REMARK    5  A    between atoms: C_10  and  C_11 
REMARK    6  A    between atoms: C_24  and  C_25 
REMARK    7  A    between atoms: C_26  and  O_27 
ROOT
HETATM    1  C   UNL     1       4.629  34.412  59.162  1.00  0.00     0.159 A 
HETATM    2  N   UNL     1       3.495  34.509  58.209  1.00  0.00    -0.333 N 
HETATM    3  C   UNL     1       3.293  33.344  57.446  1.00  0.00     0.275 A 
HETATM    4  O   UNL     1       2.416  33.139  56.622  1.00  0.00    -0.266 OA
HETATM    5  C   UNL     1       4.331  32.440  57.892  1.00  0.00     0.155 A 
HETATM    6  C   UNL     1       5.098  33.032  58.897  1.00  0.00     0.034 A 
HETATM    7  N   UNL     1       4.683  31.184  57.633  1.00  0.00    -0.168 NA
HETATM    8  N   UNL     1       5.718  30.992  58.489  1.00  0.00    -0.276 N 
HETATM    9  H   UNL     1       6.186  30.091  58.489  1.00  0.00     0.189 HD
HETATM   10  C   UNL     1       5.978  32.069  59.321  1.00  0.00     0.074 A 
ENDROOT
BRANCH   1  11
HETATM   11  C   UNL     1       4.269  34.478  60.626  1.00  0.00    -0.031 A 
HETATM   12  C   UNL     1       3.187  33.773  61.179  1.00  0.00     0.011 A 
HETATM   13  C   UNL     1       2.928  33.825  62.552  1.00  0.00     0.019 A 
HETATM   14  C   UNL     1       3.749  34.576  63.397  1.00  0.00    -0.000 A 
HETATM   15  C   UNL     1       4.810  35.301  62.856  1.00  0.00     0.019 A 
HETATM   16  C   UNL     1       5.069  35.251  61.485  1.00  0.00     0.011 A 
BRANCH  14  17
HETATM   17  S   UNL     1       3.427  34.601  65.149  1.00  0.00    -0.134 SA
HETATM   18  C   UNL     1       4.934  33.774  65.723  1.00  0.00     0.095 C 
ENDBRANCH  14  17
ENDBRANCH   1  11
BRANCH   2  19
HETATM   19  C   UNL     1       2.562  35.625  58.164  1.00  0.00     0.132 C 
BRANCH  19  20
HETATM   20  C   UNL     1       3.175  37.018  57.973  1.00  0.00     0.058 C 
BRANCH  20  21
HETATM   21  C   UNL     1       3.606  37.763  59.215  1.00  0.00    -0.057 A 
HETATM   22  C   UNL     1       2.788  37.893  60.346  1.00  0.00     0.007 A 
HETATM   23  C   UNL     1       3.241  38.575  61.477  1.00  0.00     0.001 A 
HETATM   24  C   UNL     1       4.521  39.123  61.499  1.00  0.00     0.000 A 
HETATM   25  C   UNL     1       5.354  38.985  60.393  1.00  0.00     0.001 A 
HETATM   26  C   UNL     1       4.901  38.306  59.261  1.00  0.00     0.007 A 
ENDBRANCH  20  21
ENDBRANCH  19  20
ENDBRANCH   2  19
BRANCH  10  27
HETATM   27  C   UNL     1       6.967  32.038  60.388  1.00  0.00     0.026 A 
HETATM   28  C   UNL     1       8.344  32.050  60.118  1.00  0.00     0.078 A 
HETATM   29  C   UNL     1       9.281  32.069  61.148  1.00  0.00     0.037 A 
HETATM   30  C   UNL     1       8.850  32.042  62.473  1.00  0.00     0.003 A 
HETATM   31  C   UNL     1       7.487  32.004  62.761  1.00  0.00     0.001 A 
HETATM   32  C   UNL     1       6.549  32.005  61.725  1.00  0.00     0.016 A 
BRANCH  28  33
HETATM   33  O   UNL     1       8.838  32.015  58.842  1.00  0.00    -0.360 OA
HETATM   34  H   UNL     1       8.122  32.299  58.244  1.00  0.00     0.217 HD
ENDBRANCH  28  33
ENDBRANCH  10  27
TORSDOF 7
ENDMDL
