MODEL 1
REMARK VINA RESULT:     -10.8      0.000      0.000
REMARK  12 active torsions:
REMARK  status: ('A' for Active; 'I' for Inactive)
REMARK    1  A    between atoms: C_9  and  S_10 
REMARK    2  A    between atoms: S_10  and  C_11 
REMARK    3  A    between atoms: C_11  and  C_12 
REMARK       I    between atoms: C_12  and  N_13 
REMARK    4  A    between atoms: N_13  and  C_14 
REMARK    5  A    between atoms: C_14  and  C_15 
REMARK    6  A    between atoms: C_15  and  C_16 
REMARK    7  A    between atoms: C_19  and  S_20 
REMARK    8  A    between atoms: S_20  and  N_21 
REMARK    9  A    between atoms: N_27  and  C_28 
REMARK   10  A    between atoms: C_31  and  O_32 
REMARK   11  A    between atoms: O_32  and  C_33 
REMARK   12  A    between atoms: C_41  and  N_42 
ROOT
HETATM    1  C   UNL     1       2.258  31.712  55.225  1.00  0.00     0.073 C 
HETATM    2  C   UNL     1       3.342  31.534  56.227  1.00  0.00     0.068 A 
HETATM    3  N   UNL     1       3.358  32.319  57.312  1.00  0.00    -0.177 NA
HETATM    4  N   UNL     1       4.423  31.899  58.008  1.00  0.00    -0.260 N 
HETATM    5  H   UNL     1       4.637  32.344  58.896  1.00  0.00     0.191 HD
HETATM    6  C   UNL     1       5.097  30.885  57.391  1.00  0.00     0.162 A 
HETATM    7  C   UNL     1       4.425  30.603  56.223  1.00  0.00     0.081 A 
HETATM    8  N   UNL     1       6.197  30.288  57.840  1.00  0.00    -0.204 NA
HETATM    9  C   UNL     1       6.607  29.285  57.032  1.00  0.00     0.177 A 
HETATM   10  N   UNL     1       5.991  28.913  55.871  1.00  0.00    -0.276 N 
HETATM   11  C   UNL     1       4.906  29.587  55.380  1.00  0.00     0.124 A 
ENDROOT
BRANCH   9  12
HETATM   12  S   UNL     1       8.044  28.436  57.687  1.00  0.00    -0.082 SA
BRANCH  12  13
HETATM   13  C   UNL     1       9.345  29.423  56.873  1.00  0.00     0.185 C 
BRANCH  13  14
HETATM   14  C   UNL     1       9.910  30.499  57.786  1.00  0.00     0.227 C 
HETATM   15  N   UNL     1       9.036  30.846  58.802  1.00  0.00    -0.360 N 
HETATM   16  H   UNL     1       8.257  30.231  59.003  1.00  0.00     0.162 HD
HETATM   17  O   UNL     1      10.986  31.054  57.602  1.00  0.00    -0.273 OA
BRANCH  15  18
HETATM   18  C   UNL     1       9.417  31.771  59.860  1.00  0.00     0.127 C 
BRANCH  18  19
HETATM   19  C   UNL     1       9.127  31.187  61.245  1.00  0.00     0.058 C 
BRANCH  19  20
HETATM   20  C   UNL     1       8.022  31.935  61.946  1.00  0.00    -0.057 A 
HETATM   21  C   UNL     1       8.146  32.294  63.296  1.00  0.00     0.009 A 
HETATM   22  C   UNL     1       7.100  32.945  63.954  1.00  0.00     0.025 A 
HETATM   23  C   UNL     1       5.926  33.242  63.257  1.00  0.00     0.074 A 
HETATM   24  C   UNL     1       5.786  32.886  61.914  1.00  0.00     0.025 A 
HETATM   25  C   UNL     1       6.834  32.236  61.262  1.00  0.00     0.009 A 
BRANCH  23  26
HETATM   26  S   UNL     1       4.571  34.003  64.103  1.00  0.00     0.239 S 
HETATM   27  O   UNL     1       4.853  35.410  64.272  1.00  0.00    -0.206 OA
HETATM   28  O   UNL     1       3.332  33.524  63.541  1.00  0.00    -0.206 OA
BRANCH  26  29
HETATM   29  N   UNL     1       4.684  33.320  65.632  1.00  0.00    -0.225 NA
HETATM   30  H   UNL     1       5.498  32.705  65.676  1.00  0.00     0.136 HD
HETATM   31  H   UNL     1       4.693  34.058  66.338  1.00  0.00     0.136 HD
ENDBRANCH  26  29
ENDBRANCH  23  26
ENDBRANCH  19  20
ENDBRANCH  18  19
ENDBRANCH  15  18
ENDBRANCH  13  14
ENDBRANCH  12  13
ENDBRANCH   9  12
BRANCH  10  32
HETATM   32  C   UNL     1       6.438  27.739  55.157  1.00  0.00     0.043 A 
HETATM   33  C   UNL     1       7.357  27.907  54.117  1.00  0.00     0.033 A 
HETATM   34  C   UNL     1       7.880  26.778  53.489  1.00  0.00     0.039 A 
HETATM   35  C   UNL     1       7.485  25.493  53.881  1.00  0.00     0.076 A 
HETATM   36  C   UNL     1       6.548  25.343  54.910  1.00  0.00     0.039 A 
HETATM   37  C   UNL     1       6.035  26.467  55.570  1.00  0.00     0.033 A 
BRANCH  35  38
HETATM   38  O   UNL     1       8.093  24.479  53.174  1.00  0.00    -0.311 OA
BRANCH  38  39
HETATM   39  C   UNL     1       8.187  23.231  53.734  1.00  0.00     0.076 A 
HETATM   40  C   UNL     1       7.793  22.139  52.961  1.00  0.00     0.037 A 
HETATM   41  C   UNL     1       7.949  20.847  53.461  1.00  0.00     0.003 A 
HETATM   42  C   UNL     1       8.503  20.651  54.726  1.00  0.00     0.000 A 
HETATM   43  C   UNL     1       8.919  21.746  55.487  1.00  0.00     0.003 A 
HETATM   44  C   UNL     1       8.776  23.039  54.985  1.00  0.00     0.037 A 
ENDBRANCH  38  39
ENDBRANCH  35  38
ENDBRANCH  10  32
BRANCH  11  45
HETATM   45  N   UNL     1       4.322  29.298  54.151  1.00  0.00    -0.384 N 
HETATM   46  H   UNL     1       3.452  28.779  54.095  1.00  0.00     0.157 HD
HETATM   47  H   UNL     1       4.931  29.167  53.348  1.00  0.00     0.157 HD
ENDBRANCH  11  45
TORSDOF 12
ENDMDL
MODEL 2
REMARK VINA RESULT:     -10.5      2.198      2.854
REMARK  12 active torsions:
REMARK  status: ('A' for Active; 'I' for Inactive)
REMARK    1  A    between atoms: C_9  and  S_10 
REMARK    2  A    between atoms: S_10  and  C_11 
REMARK    3  A    between atoms: C_11  and  C_12 
REMARK       I    between atoms: C_12  and  N_13 
REMARK    4  A    between atoms: N_13  and  C_14 
REMARK    5  A    between atoms: C_14  and  C_15 
REMARK    6  A    between atoms: C_15  and  C_16 
REMARK    7  A    between atoms: C_19  and  S_20 
REMARK    8  A    between atoms: S_20  and  N_21 
REMARK    9  A    between atoms: N_27  and  C_28 
REMARK   10  A    between atoms: C_31  and  O_32 
REMARK   11  A    between atoms: O_32  and  C_33 
REMARK   12  A    between atoms: C_41  and  N_42 
ROOT
HETATM    1  C   UNL     1       2.793  30.470  50.056  1.00  0.00     0.073 C 
HETATM    2  C   UNL     1       3.037  30.541  51.521  1.00  0.00     0.068 A 
HETATM    3  N   UNL     1       2.476  31.531  52.227  1.00  0.00    -0.177 NA
HETATM    4  N   UNL     1       2.865  31.301  53.488  1.00  0.00    -0.260 N 
HETATM    5  H   UNL     1       2.546  31.926  54.222  1.00  0.00     0.191 HD
HETATM    6  C   UNL     1       3.672  30.207  53.606  1.00  0.00     0.162 A 
HETATM    7  C   UNL     1       3.810  29.667  52.346  1.00  0.00     0.081 A 
HETATM    8  N   UNL     1       4.219  29.753  54.729  1.00  0.00    -0.204 NA
HETATM    9  C   UNL     1       4.932  28.621  54.537  1.00  0.00     0.177 A 
HETATM   10  N   UNL     1       5.101  27.997  53.334  1.00  0.00    -0.276 N 
HETATM   11  C   UNL     1       4.599  28.518  52.172  1.00  0.00     0.124 A 
ENDROOT
BRANCH   9  12
HETATM   12  S   UNL     1       5.600  27.977  56.071  1.00  0.00    -0.082 SA
BRANCH  12  13
HETATM   13  C   UNL     1       6.931  29.197  56.330  1.00  0.00     0.185 C 
BRANCH  13  14
HETATM   14  C   UNL     1       7.547  29.092  57.716  1.00  0.00     0.227 C 
HETATM   15  N   UNL     1       7.712  30.327  58.319  1.00  0.00    -0.360 N 
HETATM   16  H   UNL     1       7.217  31.123  57.937  1.00  0.00     0.162 HD
HETATM   17  O   UNL     1       7.928  28.040  58.215  1.00  0.00    -0.273 OA
BRANCH  15  18
HETATM   18  C   UNL     1       8.176  30.454  59.693  1.00  0.00     0.127 C 
BRANCH  18  19
HETATM   19  C   UNL     1       8.622  31.885  60.003  1.00  0.00     0.058 C 
BRANCH  19  20
HETATM   20  C   UNL     1       7.986  32.408  61.265  1.00  0.00    -0.057 A 
HETATM   21  C   UNL     1       8.605  32.218  62.509  1.00  0.00     0.009 A 
HETATM   22  C   UNL     1       7.989  32.663  63.682  1.00  0.00     0.025 A 
HETATM   23  C   UNL     1       6.749  33.305  63.608  1.00  0.00     0.074 A 
HETATM   24  C   UNL     1       6.118  33.495  62.377  1.00  0.00     0.025 A 
HETATM   25  C   UNL     1       6.739  33.050  61.210  1.00  0.00     0.009 A 
BRANCH  23  26
HETATM   26  S   UNL     1       5.931  33.808  65.094  1.00  0.00     0.239 S 
HETATM   27  O   UNL     1       4.645  33.152  65.167  1.00  0.00    -0.206 OA
HETATM   28  O   UNL     1       6.874  33.788  66.184  1.00  0.00    -0.206 OA
BRANCH  26  29
HETATM   29  N   UNL     1       5.608  35.426  64.786  1.00  0.00    -0.225 NA
HETATM   30  H   UNL     1       6.311  36.011  65.241  1.00  0.00     0.136 HD
HETATM   31  H   UNL     1       5.545  35.577  63.778  1.00  0.00     0.136 HD
ENDBRANCH  26  29
ENDBRANCH  23  26
ENDBRANCH  19  20
ENDBRANCH  18  19
ENDBRANCH  15  18
ENDBRANCH  13  14
ENDBRANCH  12  13
ENDBRANCH   9  12
BRANCH  10  32
HETATM   32  C   UNL     1       5.771  26.718  53.269  1.00  0.00     0.043 A 
HETATM   33  C   UNL     1       4.989  25.568  53.126  1.00  0.00     0.033 A 
HETATM   34  C   UNL     1       5.622  24.338  52.954  1.00  0.00     0.039 A 
HETATM   35  C   UNL     1       7.020  24.249  52.936  1.00  0.00     0.076 A 
HETATM   36  C   UNL     1       7.788  25.408  53.102  1.00  0.00     0.039 A 
HETATM   37  C   UNL     1       7.166  26.654  53.246  1.00  0.00     0.033 A 
BRANCH  35  38
HETATM   38  O   UNL     1       7.498  22.971  52.750  1.00  0.00    -0.311 OA
BRANCH  38  39
HETATM   39  C   UNL     1       7.797  22.199  53.842  1.00  0.00     0.076 A 
HETATM   40  C   UNL     1       8.196  20.881  53.619  1.00  0.00     0.037 A 
HETATM   41  C   UNL     1       8.588  20.086  54.695  1.00  0.00     0.003 A 
HETATM   42  C   UNL     1       8.586  20.612  55.987  1.00  0.00     0.000 A 
HETATM   43  C   UNL     1       8.209  21.939  56.204  1.00  0.00     0.003 A 
HETATM   44  C   UNL     1       7.829  22.741  55.128  1.00  0.00     0.037 A 
ENDBRANCH  38  39
ENDBRANCH  35  38
ENDBRANCH  10  32
BRANCH  11  45
HETATM   45  N   UNL     1       4.843  27.962  50.921  1.00  0.00    -0.384 N 
HETATM   46  H   UNL     1       4.768  26.961  50.770  1.00  0.00     0.157 HD
HETATM   47  H   UNL     1       5.519  28.418  50.315  1.00  0.00     0.157 HD
ENDBRANCH  11  45
TORSDOF 12
ENDMDL
MODEL 3
REMARK VINA RESULT:     -10.5      1.864      2.426
REMARK  12 active torsions:
REMARK  status: ('A' for Active; 'I' for Inactive)
REMARK    1  A    between atoms: C_9  and  S_10 
REMARK    2  A    between atoms: S_10  and  C_11 
REMARK    3  A    between atoms: C_11  and  C_12 
REMARK       I    between atoms: C_12  and  N_13 
REMARK    4  A    between atoms: N_13  and  C_14 
REMARK    5  A    between atoms: C_14  and  C_15 
REMARK    6  A    between atoms: C_15  and  C_16 
REMARK    7  A    between atoms: C_19  and  S_20 
REMARK    8  A    between atoms: S_20  and  N_21 
REMARK    9  A    between atoms: N_27  and  C_28 
REMARK   10  A    between atoms: C_31  and  O_32 
REMARK   11  A    between atoms: O_32  and  C_33 
REMARK   12  A    between atoms: C_41  and  N_42 
ROOT
HETATM    1  C   UNL     1       3.181  30.457  52.487  1.00  0.00     0.073 C 
HETATM    2  C   UNL     1       3.869  30.869  53.740  1.00  0.00     0.068 A 
HETATM    3  N   UNL     1       3.715  32.123  54.184  1.00  0.00    -0.177 NA
HETATM    4  N   UNL     1       4.428  32.164  55.317  1.00  0.00    -0.260 N 
HETATM    5  H   UNL     1       4.452  33.026  55.852  1.00  0.00     0.191 HD
HETATM    6  C   UNL     1       5.050  30.981  55.598  1.00  0.00     0.162 A 
HETATM    7  C   UNL     1       4.710  30.096  54.598  1.00  0.00     0.081 A 
HETATM    8  N   UNL     1       5.836  30.737  56.642  1.00  0.00    -0.204 NA
HETATM    9  C   UNL     1       6.268  29.456  56.676  1.00  0.00     0.177 A 
HETATM   10  N   UNL     1       5.961  28.502  55.749  1.00  0.00    -0.276 N 
HETATM   11  C   UNL     1       5.216  28.787  54.636  1.00  0.00     0.124 A 
ENDROOT
BRANCH   9  12
HETATM   12  S   UNL     1       7.262  29.119  58.129  1.00  0.00    -0.082 SA
BRANCH  12  13
HETATM   13  C   UNL     1       8.450  30.496  57.980  1.00  0.00     0.185 C 
BRANCH  13  14
HETATM   14  C   UNL     1       8.229  31.566  59.037  1.00  0.00     0.227 C 
HETATM   15  N   UNL     1       7.007  31.438  59.675  1.00  0.00    -0.360 N 
HETATM   16  H   UNL     1       6.500  30.566  59.583  1.00  0.00     0.162 HD
HETATM   17  O   UNL     1       9.010  32.485  59.251  1.00  0.00    -0.273 OA
BRANCH  15  18
HETATM   18  C   UNL     1       6.636  32.284  60.801  1.00  0.00     0.127 C 
BRANCH  18  19
HETATM   19  C   UNL     1       7.303  31.814  62.096  1.00  0.00     0.058 C 
BRANCH  19  20
HETATM   20  C   UNL     1       6.798  32.579  63.293  1.00  0.00    -0.057 A 
HETATM   21  C   UNL     1       7.693  33.107  64.233  1.00  0.00     0.009 A 
HETATM   22  C   UNL     1       7.218  33.774  65.366  1.00  0.00     0.025 A 
HETATM   23  C   UNL     1       5.841  33.916  65.555  1.00  0.00     0.074 A 
HETATM   24  C   UNL     1       4.937  33.389  64.630  1.00  0.00     0.025 A 
HETATM   25  C   UNL     1       5.417  32.726  63.501  1.00  0.00     0.009 A 
BRANCH  23  26
HETATM   26  S   UNL     1       5.231  34.697  67.021  1.00  0.00     0.239 S 
HETATM   27  O   UNL     1       4.757  36.020  66.686  1.00  0.00    -0.206 OA
HETATM   28  O   UNL     1       4.434  33.753  67.764  1.00  0.00    -0.206 OA
BRANCH  26  29
HETATM   29  N   UNL     1       6.638  34.920  67.910  1.00  0.00    -0.225 NA
HETATM   30  H   UNL     1       6.498  35.661  68.598  1.00  0.00     0.136 HD
HETATM   31  H   UNL     1       6.928  34.032  68.322  1.00  0.00     0.136 HD
ENDBRANCH  26  29
ENDBRANCH  23  26
ENDBRANCH  19  20
ENDBRANCH  18  19
ENDBRANCH  15  18
ENDBRANCH  13  14
ENDBRANCH  12  13
ENDBRANCH   9  12
BRANCH  10  32
HETATM   32  C   UNL     1       6.368  27.131  55.958  1.00  0.00     0.043 A 
HETATM   33  C   UNL     1       5.442  26.242  56.511  1.00  0.00     0.033 A 
HETATM   34  C   UNL     1       5.781  24.894  56.620  1.00  0.00     0.039 A 
HETATM   35  C   UNL     1       7.034  24.435  56.195  1.00  0.00     0.076 A 
HETATM   36  C   UNL     1       7.958  25.343  55.663  1.00  0.00     0.039 A 
HETATM   37  C   UNL     1       7.621  26.695  55.521  1.00  0.00     0.033 A 
BRANCH  35  38
HETATM   38  O   UNL     1       7.220  23.081  56.359  1.00  0.00    -0.311 OA
BRANCH  38  39
HETATM   39  C   UNL     1       7.625  22.322  55.291  1.00  0.00     0.076 A 
HETATM   40  C   UNL     1       8.049  21.018  55.542  1.00  0.00     0.037 A 
HETATM   41  C   UNL     1       8.391  20.185  54.477  1.00  0.00     0.003 A 
HETATM   42  C   UNL     1       8.300  20.657  53.167  1.00  0.00     0.000 A 
HETATM   43  C   UNL     1       7.852  21.956  52.919  1.00  0.00     0.003 A 
HETATM   44  C   UNL     1       7.497  22.787  53.981  1.00  0.00     0.037 A 
ENDBRANCH  38  39
ENDBRANCH  35  38
ENDBRANCH  10  32
BRANCH  11  45
HETATM   45  N   UNL     1       4.976  27.863  53.624  1.00  0.00    -0.384 N 
HETATM   46  H   UNL     1       4.202  27.209  53.687  1.00  0.00     0.157 HD
HETATM   47  H   UNL     1       5.768  27.511  53.096  1.00  0.00     0.157 HD
ENDBRANCH  11  45
TORSDOF 12
ENDMDL
MODEL 4
REMARK VINA RESULT:     -10.3      1.723      2.373
REMARK  12 active torsions:
REMARK  status: ('A' for Active; 'I' for Inactive)
REMARK    1  A    between atoms: C_9  and  S_10 
REMARK    2  A    between atoms: S_10  and  C_11 
REMARK    3  A    between atoms: C_11  and  C_12 
REMARK       I    between atoms: C_12  and  N_13 
REMARK    4  A    between atoms: N_13  and  C_14 
REMARK    5  A    between atoms: C_14  and  C_15 
REMARK    6  A    between atoms: C_15  and  C_16 
REMARK    7  A    between atoms: C_19  and  S_20 
REMARK    8  A    between atoms: S_20  and  N_21 
REMARK    9  A    between atoms: N_27  and  C_28 
REMARK   10  A    between atoms: C_31  and  O_32 
REMARK   11  A    between atoms: O_32  and  C_33 
REMARK   12  A    between atoms: C_41  and  N_42 
ROOT
HETATM    1  C   UNL     1       2.028  31.932  55.178  1.00  0.00     0.073 C 
HETATM    2  C   UNL     1       3.083  31.821  56.219  1.00  0.00     0.068 A 
HETATM    3  N   UNL     1       3.098  32.704  57.225  1.00  0.00    -0.177 NA
HETATM    4  N   UNL     1       4.134  32.324  57.985  1.00  0.00    -0.260 N 
HETATM    5  H   UNL     1       4.341  32.845  58.831  1.00  0.00     0.191 HD
HETATM    6  C   UNL     1       4.792  31.238  57.483  1.00  0.00     0.162 A 
HETATM    7  C   UNL     1       4.139  30.864  56.330  1.00  0.00     0.081 A 
HETATM    8  N   UNL     1       5.864  30.656  58.014  1.00  0.00    -0.204 NA
HETATM    9  C   UNL     1       6.262  29.570  57.314  1.00  0.00     0.177 A 
HETATM   10  N   UNL     1       5.662  29.107  56.179  1.00  0.00    -0.276 N 
HETATM   11  C   UNL     1       4.609  29.761  55.598  1.00  0.00     0.124 A 
ENDROOT
BRANCH   9  12
HETATM   12  S   UNL     1       7.659  28.749  58.082  1.00  0.00    -0.082 SA
BRANCH  12  13
HETATM   13  C   UNL     1       8.608  30.225  58.585  1.00  0.00     0.185 C 
BRANCH  13  14
HETATM   14  C   UNL     1       8.510  30.491  60.079  1.00  0.00     0.227 C 
HETATM   15  N   UNL     1       7.432  31.293  60.407  1.00  0.00    -0.360 N 
HETATM   16  H   UNL     1       6.698  31.424  59.722  1.00  0.00     0.162 HD
HETATM   17  O   UNL     1       9.337  30.102  60.895  1.00  0.00    -0.273 OA
BRANCH  15  18
HETATM   18  C   UNL     1       7.081  31.579  61.791  1.00  0.00     0.127 C 
BRANCH  18  19
HETATM   19  C   UNL     1       6.962  33.085  62.038  1.00  0.00     0.058 C 
BRANCH  19  20
HETATM   20  C   UNL     1       6.494  33.386  63.439  1.00  0.00    -0.057 A 
HETATM   21  C   UNL     1       5.131  33.572  63.712  1.00  0.00     0.009 A 
HETATM   22  C   UNL     1       4.706  33.897  65.003  1.00  0.00     0.025 A 
HETATM   23  C   UNL     1       5.650  34.032  66.026  1.00  0.00     0.074 A 
HETATM   24  C   UNL     1       7.010  33.856  65.767  1.00  0.00     0.025 A 
HETATM   25  C   UNL     1       7.428  33.530  64.477  1.00  0.00     0.009 A 
BRANCH  23  26
HETATM   26  S   UNL     1       5.126  34.512  67.646  1.00  0.00     0.239 S 
HETATM   27  O   UNL     1       4.303  33.464  68.204  1.00  0.00    -0.206 OA
HETATM   28  O   UNL     1       6.246  35.079  68.357  1.00  0.00    -0.206 OA
BRANCH  26  29
HETATM   29  N   UNL     1       4.089  35.790  67.315  1.00  0.00    -0.225 NA
HETATM   30  H   UNL     1       3.130  35.524  67.543  1.00  0.00     0.136 HD
HETATM   31  H   UNL     1       4.407  36.627  67.807  1.00  0.00     0.136 HD
ENDBRANCH  26  29
ENDBRANCH  23  26
ENDBRANCH  19  20
ENDBRANCH  18  19
ENDBRANCH  15  18
ENDBRANCH  13  14
ENDBRANCH  12  13
ENDBRANCH   9  12
BRANCH  10  32
HETATM   32  C   UNL     1       6.091  27.859  55.590  1.00  0.00     0.043 A 
HETATM   33  C   UNL     1       7.145  27.888  54.673  1.00  0.00     0.033 A 
HETATM   34  C   UNL     1       7.642  26.684  54.176  1.00  0.00     0.039 A 
HETATM   35  C   UNL     1       7.089  25.461  54.578  1.00  0.00     0.076 A 
HETATM   36  C   UNL     1       6.018  25.451  55.481  1.00  0.00     0.039 A 
HETATM   37  C   UNL     1       5.528  26.652  56.010  1.00  0.00     0.033 A 
BRANCH  35  38
HETATM   38  O   UNL     1       7.689  24.360  54.009  1.00  0.00    -0.311 OA
BRANCH  38  39
HETATM   39  C   UNL     1       7.929  23.251  54.779  1.00  0.00     0.076 A 
HETATM   40  C   UNL     1       8.257  23.448  56.120  1.00  0.00     0.037 A 
HETATM   41  C   UNL     1       8.430  22.347  56.958  1.00  0.00     0.003 A 
HETATM   42  C   UNL     1       8.265  21.056  56.455  1.00  0.00     0.000 A 
HETATM   43  C   UNL     1       7.912  20.864  55.118  1.00  0.00     0.003 A 
HETATM   44  C   UNL     1       7.727  21.963  54.280  1.00  0.00     0.037 A 
ENDBRANCH  38  39
ENDBRANCH  35  38
ENDBRANCH  10  32
BRANCH  11  45
HETATM   45  N   UNL     1       4.045  29.372  54.388  1.00  0.00    -0.384 N 
HETATM   46  H   UNL     1       3.513  30.028  53.825  1.00  0.00     0.157 HD
HETATM   47  H   UNL     1       3.747  28.407  54.284  1.00  0.00     0.157 HD
ENDBRANCH  11  45
TORSDOF 12
ENDMDL
MODEL 5
REMARK VINA RESULT:     -10.2      3.707      6.350
REMARK  12 active torsions:
REMARK  status: ('A' for Active; 'I' for Inactive)
REMARK    1  A    between atoms: C_9  and  S_10 
REMARK    2  A    between atoms: S_10  and  C_11 
REMARK    3  A    between atoms: C_11  and  C_12 
REMARK       I    between atoms: C_12  and  N_13 
REMARK    4  A    between atoms: N_13  and  C_14 
REMARK    5  A    between atoms: C_14  and  C_15 
REMARK    6  A    between atoms: C_15  and  C_16 
REMARK    7  A    between atoms: C_19  and  S_20 
REMARK    8  A    between atoms: S_20  and  N_21 
REMARK    9  A    between atoms: N_27  and  C_28 
REMARK   10  A    between atoms: C_31  and  O_32 
REMARK   11  A    between atoms: O_32  and  C_33 
REMARK   12  A    between atoms: C_41  and  N_42 
ROOT
HETATM    1  C   UNL     1       8.659  20.366  53.186  1.00  0.00     0.073 C 
HETATM    2  C   UNL     1       8.550  21.064  54.495  1.00  0.00     0.068 A 
HETATM    3  N   UNL     1       9.052  20.476  55.588  1.00  0.00    -0.177 NA
HETATM    4  N   UNL     1       8.818  21.353  56.573  1.00  0.00    -0.260 N 
HETATM    5  H   UNL     1       9.127  21.130  57.514  1.00  0.00     0.191 HD
HETATM    6  C   UNL     1       8.164  22.473  56.145  1.00  0.00     0.162 A 
HETATM    7  C   UNL     1       7.971  22.337  54.788  1.00  0.00     0.081 A 
HETATM    8  N   UNL     1       7.786  23.498  56.903  1.00  0.00    -0.204 NA
HETATM    9  C   UNL     1       7.200  24.483  56.186  1.00  0.00     0.177 A 
HETATM   10  N   UNL     1       6.993  24.451  54.837  1.00  0.00    -0.276 N 
HETATM   11  C   UNL     1       7.314  23.357  54.080  1.00  0.00     0.124 A 
ENDROOT
BRANCH   9  12
HETATM   12  S   UNL     1       6.766  25.892  57.206  1.00  0.00    -0.082 SA
BRANCH  12  13
HETATM   13  C   UNL     1       8.384  26.735  57.221  1.00  0.00     0.185 C 
BRANCH  13  14
HETATM   14  C   UNL     1       8.246  28.248  57.158  1.00  0.00     0.227 C 
HETATM   15  N   UNL     1       7.777  28.788  58.342  1.00  0.00    -0.360 N 
HETATM   16  H   UNL     1       7.801  28.219  59.179  1.00  0.00     0.162 HD
HETATM   17  O   UNL     1       8.453  28.909  56.148  1.00  0.00    -0.273 OA
BRANCH  15  18
HETATM   18  C   UNL     1       7.680  30.227  58.544  1.00  0.00     0.127 C 
BRANCH  18  19
HETATM   19  C   UNL     1       8.771  30.734  59.490  1.00  0.00     0.058 C 
BRANCH  19  20
HETATM   20  C   UNL     1       8.191  31.502  60.650  1.00  0.00    -0.057 A 
HETATM   21  C   UNL     1       8.839  31.514  61.894  1.00  0.00     0.009 A 
HETATM   22  C   UNL     1       8.273  32.188  62.980  1.00  0.00     0.025 A 
HETATM   23  C   UNL     1       7.056  32.856  62.818  1.00  0.00     0.074 A 
HETATM   24  C   UNL     1       6.397  32.847  61.588  1.00  0.00     0.025 A 
HETATM   25  C   UNL     1       6.967  32.174  60.507  1.00  0.00     0.009 A 
BRANCH  23  26
HETATM   26  S   UNL     1       6.300  33.652  64.206  1.00  0.00     0.239 S 
HETATM   27  O   UNL     1       7.099  33.400  65.384  1.00  0.00    -0.206 OA
HETATM   28  O   UNL     1       5.882  34.977  63.822  1.00  0.00    -0.206 OA
BRANCH  26  29
HETATM   29  N   UNL     1       4.894  32.757  64.400  1.00  0.00    -0.225 NA
HETATM   30  H   UNL     1       4.507  32.918  65.331  1.00  0.00     0.136 HD
HETATM   31  H   UNL     1       4.241  32.976  63.645  1.00  0.00     0.136 HD
ENDBRANCH  26  29
ENDBRANCH  23  26
ENDBRANCH  19  20
ENDBRANCH  18  19
ENDBRANCH  15  18
ENDBRANCH  13  14
ENDBRANCH  12  13
ENDBRANCH   9  12
BRANCH  10  32
HETATM   32  C   UNL     1       6.480  25.618  54.155  1.00  0.00     0.043 A 
HETATM   33  C   UNL     1       7.393  26.564  53.683  1.00  0.00     0.033 A 
HETATM   34  C   UNL     1       6.924  27.640  52.931  1.00  0.00     0.039 A 
HETATM   35  C   UNL     1       5.557  27.782  52.660  1.00  0.00     0.076 A 
HETATM   36  C   UNL     1       4.653  26.836  53.158  1.00  0.00     0.039 A 
HETATM   37  C   UNL     1       5.113  25.734  53.891  1.00  0.00     0.033 A 
BRANCH  35  38
HETATM   38  O   UNL     1       5.247  28.888  51.900  1.00  0.00    -0.311 OA
BRANCH  38  39
HETATM   39  C   UNL     1       4.616  28.721  50.695  1.00  0.00     0.076 A 
HETATM   40  C   UNL     1       5.347  28.156  49.650  1.00  0.00     0.037 A 
HETATM   41  C   UNL     1       4.720  27.894  48.432  1.00  0.00     0.003 A 
HETATM   42  C   UNL     1       3.367  28.190  48.266  1.00  0.00     0.000 A 
HETATM   43  C   UNL     1       2.634  28.734  49.323  1.00  0.00     0.003 A 
HETATM   44  C   UNL     1       3.254  28.986  50.546  1.00  0.00     0.037 A 
ENDBRANCH  38  39
ENDBRANCH  35  38
ENDBRANCH  10  32
BRANCH  11  45
HETATM   45  N   UNL     1       7.020  23.255  52.725  1.00  0.00    -0.384 N 
HETATM   46  H   UNL     1       6.075  23.061  52.409  1.00  0.00     0.157 HD
HETATM   47  H   UNL     1       7.741  22.906  52.101  1.00  0.00     0.157 HD
ENDBRANCH  11  45
TORSDOF 12
ENDMDL
MODEL 6
REMARK VINA RESULT:     -10.0      4.430      9.036
REMARK  12 active torsions:
REMARK  status: ('A' for Active; 'I' for Inactive)
REMARK    1  A    between atoms: C_9  and  S_10 
REMARK    2  A    between atoms: S_10  and  C_11 
REMARK    3  A    between atoms: C_11  and  C_12 
REMARK       I    between atoms: C_12  and  N_13 
REMARK    4  A    between atoms: N_13  and  C_14 
REMARK    5  A    between atoms: C_14  and  C_15 
REMARK    6  A    between atoms: C_15  and  C_16 
REMARK    7  A    between atoms: C_19  and  S_20 
REMARK    8  A    between atoms: S_20  and  N_21 
REMARK    9  A    between atoms: N_27  and  C_28 
REMARK   10  A    between atoms: C_31  and  O_32 
REMARK   11  A    between atoms: O_32  and  C_33 
REMARK   12  A    between atoms: C_41  and  N_42 
ROOT
HETATM    1  C   UNL     1       8.118  30.407  59.460  1.00  0.00     0.073 C 
HETATM    2  C   UNL     1       7.097  30.791  58.449  1.00  0.00     0.068 A 
HETATM    3  N   UNL     1       6.522  31.997  58.533  1.00  0.00    -0.177 NA
HETATM    4  N   UNL     1       5.687  32.040  57.487  1.00  0.00    -0.260 N 
HETATM    5  H   UNL     1       5.138  32.880  57.330  1.00  0.00     0.191 HD
HETATM    6  C   UNL     1       5.696  30.891  56.751  1.00  0.00     0.162 A 
HETATM    7  C   UNL     1       6.610  30.042  57.335  1.00  0.00     0.081 A 
HETATM    8  N   UNL     1       4.957  30.644  55.673  1.00  0.00    -0.204 NA
HETATM    9  C   UNL     1       5.221  29.434  55.131  1.00  0.00     0.177 A 
HETATM   10  N   UNL     1       6.129  28.538  55.621  1.00  0.00    -0.276 N 
HETATM   11  C   UNL     1       6.825  28.771  56.776  1.00  0.00     0.124 A 
ENDROOT
BRANCH   9  12
HETATM   12  S   UNL     1       4.276  29.145  53.635  1.00  0.00    -0.082 SA
BRANCH  12  13
HETATM   13  C   UNL     1       3.371  30.727  53.567  1.00  0.00     0.185 C 
BRANCH  13  14
HETATM   14  C   UNL     1       3.489  31.400  52.209  1.00  0.00     0.227 C 
HETATM   15  N   UNL     1       4.802  31.661  51.857  1.00  0.00    -0.360 N 
HETATM   16  H   UNL     1       5.542  31.194  52.365  1.00  0.00     0.162 HD
HETATM   17  O   UNL     1       2.526  31.744  51.533  1.00  0.00    -0.273 OA
BRANCH  15  18
HETATM   18  C   UNL     1       5.154  32.194  50.549  1.00  0.00     0.127 C 
BRANCH  18  19
HETATM   19  C   UNL     1       6.105  31.258  49.800  1.00  0.00     0.058 C 
BRANCH  19  20
HETATM   20  C   UNL     1       5.400  30.018  49.313  1.00  0.00    -0.057 A 
HETATM   21  C   UNL     1       4.504  30.082  48.236  1.00  0.00     0.009 A 
HETATM   22  C   UNL     1       3.817  28.940  47.818  1.00  0.00     0.025 A 
HETATM   23  C   UNL     1       4.032  27.727  48.478  1.00  0.00     0.074 A 
HETATM   24  C   UNL     1       4.916  27.649  49.556  1.00  0.00     0.025 A 
HETATM   25  C   UNL     1       5.600  28.793  49.968  1.00  0.00     0.009 A 
BRANCH  23  26
HETATM   26  S   UNL     1       3.113  26.292  48.000  1.00  0.00     0.239 S 
HETATM   27  O   UNL     1       3.127  26.184  46.559  1.00  0.00    -0.206 OA
HETATM   28  O   UNL     1       3.469  25.192  48.863  1.00  0.00    -0.206 OA
BRANCH  26  29
HETATM   29  N   UNL     1       1.546  26.723  48.418  1.00  0.00    -0.225 NA
HETATM   30  H   UNL     1       1.197  27.429  47.767  1.00  0.00     0.136 HD
HETATM   31  H   UNL     1       0.961  25.888  48.464  1.00  0.00     0.136 HD
ENDBRANCH  26  29
ENDBRANCH  23  26
ENDBRANCH  19  20
ENDBRANCH  18  19
ENDBRANCH  15  18
ENDBRANCH  13  14
ENDBRANCH  12  13
ENDBRANCH   9  12
BRANCH  10  32
HETATM   32  C   UNL     1       6.427  27.332  54.883  1.00  0.00     0.043 A 
HETATM   33  C   UNL     1       7.470  27.365  53.953  1.00  0.00     0.033 A 
HETATM   34  C   UNL     1       7.841  26.184  53.311  1.00  0.00     0.039 A 
HETATM   35  C   UNL     1       7.173  24.983  53.581  1.00  0.00     0.076 A 
HETATM   36  C   UNL     1       6.116  24.971  54.499  1.00  0.00     0.039 A 
HETATM   37  C   UNL     1       5.751  26.144  55.173  1.00  0.00     0.033 A 
BRANCH  35  38
HETATM   38  O   UNL     1       7.655  23.902  52.877  1.00  0.00    -0.311 OA
BRANCH  38  39
HETATM   39  C   UNL     1       7.991  22.756  53.550  1.00  0.00     0.076 A 
HETATM   40  C   UNL     1       7.791  21.538  52.902  1.00  0.00     0.037 A 
HETATM   41  C   UNL     1       8.195  20.353  53.517  1.00  0.00     0.003 A 
HETATM   42  C   UNL     1       8.802  20.392  54.772  1.00  0.00     0.000 A 
HETATM   43  C   UNL     1       9.023  21.616  55.407  1.00  0.00     0.003 A 
HETATM   44  C   UNL     1       8.632  22.803  54.789  1.00  0.00     0.037 A 
ENDBRANCH  38  39
ENDBRANCH  35  38
ENDBRANCH  10  32
BRANCH  11  45
HETATM   45  N   UNL     1       7.677  27.835  57.354  1.00  0.00    -0.384 N 
HETATM   46  H   UNL     1       7.540  27.525  58.310  1.00  0.00     0.157 HD
HETATM   47  H   UNL     1       8.646  27.815  57.050  1.00  0.00     0.157 HD
ENDBRANCH  11  45
TORSDOF 12
ENDMDL
MODEL 7
REMARK VINA RESULT:     -10.0      3.614      5.852
REMARK  12 active torsions:
REMARK  status: ('A' for Active; 'I' for Inactive)
REMARK    1  A    between atoms: C_9  and  S_10 
REMARK    2  A    between atoms: S_10  and  C_11 
REMARK    3  A    between atoms: C_11  and  C_12 
REMARK       I    between atoms: C_12  and  N_13 
REMARK    4  A    between atoms: N_13  and  C_14 
REMARK    5  A    between atoms: C_14  and  C_15 
REMARK    6  A    between atoms: C_15  and  C_16 
REMARK    7  A    between atoms: C_19  and  S_20 
REMARK    8  A    between atoms: S_20  and  N_21 
REMARK    9  A    between atoms: N_27  and  C_28 
REMARK   10  A    between atoms: C_31  and  O_32 
REMARK   11  A    between atoms: O_32  and  C_33 
REMARK   12  A    between atoms: C_41  and  N_42 
ROOT
HETATM    1  C   UNL     1       7.820  21.922  55.348  1.00  0.00     0.073 C 
HETATM    2  C   UNL     1       7.899  23.146  56.189  1.00  0.00     0.068 A 
HETATM    3  N   UNL     1       8.555  23.092  57.355  1.00  0.00    -0.177 NA
HETATM    4  N   UNL     1       8.462  24.335  57.845  1.00  0.00    -0.260 N 
HETATM    5  H   UNL     1       8.905  24.547  58.734  1.00  0.00     0.191 HD
HETATM    6  C   UNL     1       7.750  25.175  57.038  1.00  0.00     0.162 A 
HETATM    7  C   UNL     1       7.364  24.447  55.935  1.00  0.00     0.081 A 
HETATM    8  N   UNL     1       7.482  26.455  57.280  1.00  0.00    -0.204 NA
HETATM    9  C   UNL     1       6.796  27.038  56.272  1.00  0.00     0.177 A 
HETATM   10  N   UNL     1       6.396  26.407  55.129  1.00  0.00    -0.276 N 
HETATM   11  C   UNL     1       6.608  25.070  54.928  1.00  0.00     0.124 A 
ENDROOT
BRANCH   9  12
HETATM   12  S   UNL     1       6.509  28.782  56.574  1.00  0.00    -0.082 SA
BRANCH  12  13
HETATM   13  C   UNL     1       7.552  28.984  58.056  1.00  0.00     0.185 C 
BRANCH  13  14
HETATM   14  C   UNL     1       7.510  30.402  58.602  1.00  0.00     0.227 C 
HETATM   15  N   UNL     1       7.972  30.485  59.904  1.00  0.00    -0.360 N 
HETATM   16  H   UNL     1       8.501  29.709  60.281  1.00  0.00     0.162 HD
HETATM   17  O   UNL     1       7.047  31.356  57.987  1.00  0.00    -0.273 OA
BRANCH  15  18
HETATM   18  C   UNL     1       8.129  31.764  60.583  1.00  0.00     0.127 C 
BRANCH  18  19
HETATM   19  C   UNL     1       8.535  31.574  62.046  1.00  0.00     0.058 C 
BRANCH  19  20
HETATM   20  C   UNL     1       7.530  32.187  62.989  1.00  0.00    -0.057 A 
HETATM   21  C   UNL     1       6.157  31.958  62.817  1.00  0.00     0.009 A 
HETATM   22  C   UNL     1       5.228  32.566  63.665  1.00  0.00     0.025 A 
HETATM   23  C   UNL     1       5.675  33.403  64.690  1.00  0.00     0.074 A 
HETATM   24  C   UNL     1       7.038  33.645  64.869  1.00  0.00     0.025 A 
HETATM   25  C   UNL     1       7.962  33.035  64.021  1.00  0.00     0.009 A 
BRANCH  23  26
HETATM   26  S   UNL     1       4.500  34.232  65.722  1.00  0.00     0.239 S 
HETATM   27  O   UNL     1       3.210  34.219  65.070  1.00  0.00    -0.206 OA
HETATM   28  O   UNL     1       4.683  33.804  67.087  1.00  0.00    -0.206 OA
BRANCH  26  29
HETATM   29  N   UNL     1       5.036  35.821  65.657  1.00  0.00    -0.225 NA
HETATM   30  H   UNL     1       5.135  36.192  66.603  1.00  0.00     0.136 HD
HETATM   31  H   UNL     1       5.897  35.871  65.109  1.00  0.00     0.136 HD
ENDBRANCH  26  29
ENDBRANCH  23  26
ENDBRANCH  19  20
ENDBRANCH  18  19
ENDBRANCH  15  18
ENDBRANCH  13  14
ENDBRANCH  12  13
ENDBRANCH   9  12
BRANCH  10  32
HETATM   32  C   UNL     1       5.786  27.163  54.059  1.00  0.00     0.043 A 
HETATM   33  C   UNL     1       4.393  27.279  54.041  1.00  0.00     0.033 A 
HETATM   34  C   UNL     1       3.795  28.092  53.080  1.00  0.00     0.039 A 
HETATM   35  C   UNL     1       4.572  28.775  52.136  1.00  0.00     0.076 A 
HETATM   36  C   UNL     1       5.965  28.632  52.155  1.00  0.00     0.039 A 
HETATM   37  C   UNL     1       6.582  27.841  53.133  1.00  0.00     0.033 A 
BRANCH  35  38
HETATM   38  O   UNL     1       3.842  29.544  51.257  1.00  0.00    -0.311 OA
BRANCH  38  39
HETATM   39  C   UNL     1       3.250  28.948  50.173  1.00  0.00     0.076 A 
HETATM   40  C   UNL     1       4.063  28.217  49.308  1.00  0.00     0.037 A 
HETATM   41  C   UNL     1       3.491  27.529  48.239  1.00  0.00     0.003 A 
HETATM   42  C   UNL     1       2.110  27.567  48.045  1.00  0.00     0.000 A 
HETATM   43  C   UNL     1       1.297  28.281  48.928  1.00  0.00     0.003 A 
HETATM   44  C   UNL     1       1.865  28.961  50.005  1.00  0.00     0.037 A 
ENDBRANCH  38  39
ENDBRANCH  35  38
ENDBRANCH  10  32
BRANCH  11  45
HETATM   45  N   UNL     1       6.122  24.379  53.823  1.00  0.00    -0.384 N 
HETATM   46  H   UNL     1       6.658  24.325  52.963  1.00  0.00     0.157 HD
HETATM   47  H   UNL     1       5.117  24.343  53.683  1.00  0.00     0.157 HD
ENDBRANCH  11  45
TORSDOF 12
ENDMDL
MODEL 8
REMARK VINA RESULT:      -9.9      2.913      7.552
REMARK  12 active torsions:
REMARK  status: ('A' for Active; 'I' for Inactive)
REMARK    1  A    between atoms: C_9  and  S_10 
REMARK    2  A    between atoms: S_10  and  C_11 
REMARK    3  A    between atoms: C_11  and  C_12 
REMARK       I    between atoms: C_12  and  N_13 
REMARK    4  A    between atoms: N_13  and  C_14 
REMARK    5  A    between atoms: C_14  and  C_15 
REMARK    6  A    between atoms: C_15  and  C_16 
REMARK    7  A    between atoms: C_19  and  S_20 
REMARK    8  A    between atoms: S_20  and  N_21 
REMARK    9  A    between atoms: N_27  and  C_28 
REMARK   10  A    between atoms: C_31  and  O_32 
REMARK   11  A    between atoms: O_32  and  C_33 
REMARK   12  A    between atoms: C_41  and  N_42 
ROOT
HETATM    1  C   UNL     1       8.374  21.615  57.341  1.00  0.00     0.073 C 
HETATM    2  C   UNL     1       7.992  22.350  56.106  1.00  0.00     0.068 A 
HETATM    3  N   UNL     1       7.656  21.654  55.013  1.00  0.00    -0.177 NA
HETATM    4  N   UNL     1       7.351  22.589  54.104  1.00  0.00    -0.260 N 
HETATM    5  H   UNL     1       7.047  22.297  53.181  1.00  0.00     0.191 HD
HETATM    6  C   UNL     1       7.500  23.861  54.578  1.00  0.00     0.162 A 
HETATM    7  C   UNL     1       7.912  23.760  55.889  1.00  0.00     0.081 A 
HETATM    8  N   UNL     1       7.288  24.982  53.896  1.00  0.00    -0.204 NA
HETATM    9  C   UNL     1       7.475  26.089  54.649  1.00  0.00     0.177 A 
HETATM   10  N   UNL     1       7.853  26.088  55.961  1.00  0.00    -0.276 N 
HETATM   11  C   UNL     1       8.146  24.930  56.630  1.00  0.00     0.124 A 
ENDROOT
BRANCH   9  12
HETATM   12  S   UNL     1       7.110  27.591  53.741  1.00  0.00    -0.082 SA
BRANCH  12  13
HETATM   13  C   UNL     1       5.423  27.178  53.184  1.00  0.00     0.185 C 
BRANCH  13  14
HETATM   14  C   UNL     1       4.401  28.216  53.621  1.00  0.00     0.227 C 
HETATM   15  N   UNL     1       4.785  28.890  54.767  1.00  0.00    -0.360 N 
HETATM   16  H   UNL     1       5.752  28.832  55.063  1.00  0.00     0.162 HD
HETATM   17  O   UNL     1       3.322  28.386  53.066  1.00  0.00    -0.273 OA
BRANCH  15  18
HETATM   18  C   UNL     1       4.014  30.006  55.296  1.00  0.00     0.127 C 
BRANCH  18  19
HETATM   19  C   UNL     1       4.918  31.181  55.676  1.00  0.00     0.058 C 
BRANCH  19  20
HETATM   20  C   UNL     1       4.566  31.742  57.030  1.00  0.00    -0.057 A 
HETATM   21  C   UNL     1       3.873  30.963  57.968  1.00  0.00     0.009 A 
HETATM   22  C   UNL     1       3.507  31.503  59.204  1.00  0.00     0.025 A 
HETATM   23  C   UNL     1       3.840  32.826  59.504  1.00  0.00     0.074 A 
HETATM   24  C   UNL     1       4.524  33.616  58.577  1.00  0.00     0.025 A 
HETATM   25  C   UNL     1       4.888  33.071  57.345  1.00  0.00     0.009 A 
BRANCH  23  26
HETATM   26  S   UNL     1       3.319  33.538  61.038  1.00  0.00     0.239 S 
HETATM   27  O   UNL     1       4.394  34.343  61.571  1.00  0.00    -0.206 OA
HETATM   28  O   UNL     1       1.973  34.037  60.895  1.00  0.00    -0.206 OA
BRANCH  26  29
HETATM   29  N   UNL     1       3.213  32.189  62.031  1.00  0.00    -0.225 NA
HETATM   30  H   UNL     1       2.484  31.563  61.687  1.00  0.00     0.136 HD
HETATM   31  H   UNL     1       4.129  31.744  62.104  1.00  0.00     0.136 HD
ENDBRANCH  26  29
ENDBRANCH  23  26
ENDBRANCH  19  20
ENDBRANCH  18  19
ENDBRANCH  15  18
ENDBRANCH  13  14
ENDBRANCH  12  13
ENDBRANCH   9  12
BRANCH  10  32
HETATM   32  C   UNL     1       7.891  27.327  56.705  1.00  0.00     0.043 A 
HETATM   33  C   UNL     1       9.059  28.093  56.656  1.00  0.00     0.033 A 
HETATM   34  C   UNL     1       9.076  29.340  57.279  1.00  0.00     0.039 A 
HETATM   35  C   UNL     1       7.947  29.817  57.955  1.00  0.00     0.076 A 
HETATM   36  C   UNL     1       6.792  29.028  58.013  1.00  0.00     0.039 A 
HETATM   37  C   UNL     1       6.750  27.786  57.367  1.00  0.00     0.033 A 
BRANCH  35  38
HETATM   38  O   UNL     1       8.113  31.066  58.513  1.00  0.00    -0.311 OA
BRANCH  38  39
HETATM   39  C   UNL     1       8.142  31.195  59.877  1.00  0.00     0.076 A 
HETATM   40  C   UNL     1       7.095  31.884  60.489  1.00  0.00     0.037 A 
HETATM   41  C   UNL     1       7.044  31.970  61.880  1.00  0.00     0.003 A 
HETATM   42  C   UNL     1       8.032  31.360  62.652  1.00  0.00     0.000 A 
HETATM   43  C   UNL     1       9.066  30.650  62.036  1.00  0.00     0.003 A 
HETATM   44  C   UNL     1       9.114  30.553  60.646  1.00  0.00     0.037 A 
ENDBRANCH  38  39
ENDBRANCH  35  38
ENDBRANCH  10  32
BRANCH  11  45
HETATM   45  N   UNL     1       8.633  24.905  57.932  1.00  0.00    -0.384 N 
HETATM   46  H   UNL     1       9.630  24.926  58.117  1.00  0.00     0.157 HD
HETATM   47  H   UNL     1       8.095  24.410  58.637  1.00  0.00     0.157 HD
ENDBRANCH  11  45
TORSDOF 12
ENDMDL
MODEL 9
REMARK VINA RESULT:      -9.7      2.935      4.080
REMARK  12 active torsions:
REMARK  status: ('A' for Active; 'I' for Inactive)
REMARK    1  A    between atoms: C_9  and  S_10 
REMARK    2  A    between atoms: S_10  and  C_11 
REMARK    3  A    between atoms: C_11  and  C_12 
REMARK       I    between atoms: C_12  and  N_13 
REMARK    4  A    between atoms: N_13  and  C_14 
REMARK    5  A    between atoms: C_14  and  C_15 
REMARK    6  A    between atoms: C_15  and  C_16 
REMARK    7  A    between atoms: C_19  and  S_20 
REMARK    8  A    between atoms: S_20  and  N_21 
REMARK    9  A    between atoms: N_27  and  C_28 
REMARK   10  A    between atoms: C_31  and  O_32 
REMARK   11  A    between atoms: O_32  and  C_33 
REMARK   12  A    between atoms: C_41  and  N_42 
ROOT
HETATM    1  C   UNL     1       2.797  28.636  48.153  1.00  0.00     0.073 C 
HETATM    2  C   UNL     1       2.766  28.912  49.614  1.00  0.00     0.068 A 
HETATM    3  N   UNL     1       1.911  29.828  50.084  1.00  0.00    -0.177 NA
HETATM    4  N   UNL     1       2.113  29.822  51.408  1.00  0.00    -0.260 N 
HETATM    5  H   UNL     1       1.557  30.439  51.993  1.00  0.00     0.191 HD
HETATM    6  C   UNL     1       3.084  28.945  51.795  1.00  0.00     0.162 A 
HETATM    7  C   UNL     1       3.540  28.317  50.657  1.00  0.00     0.081 A 
HETATM    8  N   UNL     1       3.507  28.741  53.039  1.00  0.00    -0.204 NA
HETATM    9  C   UNL     1       4.449  27.774  53.114  1.00  0.00     0.177 A 
HETATM   10  N   UNL     1       4.941  27.077  52.048  1.00  0.00    -0.276 N 
HETATM   11  C   UNL     1       4.555  27.352  50.763  1.00  0.00     0.124 A 
ENDROOT
BRANCH   9  12
HETATM   12  S   UNL     1       4.954  27.455  54.804  1.00  0.00    -0.082 SA
BRANCH  12  13
HETATM   13  C   UNL     1       6.090  28.864  55.027  1.00  0.00     0.185 C 
BRANCH  13  14
HETATM   14  C   UNL     1       6.387  29.139  56.492  1.00  0.00     0.227 C 
HETATM   15  N   UNL     1       6.598  30.483  56.749  1.00  0.00    -0.360 N 
HETATM   16  H   UNL     1       6.311  31.160  56.053  1.00  0.00     0.162 HD
HETATM   17  O   UNL     1       6.503  28.263  57.341  1.00  0.00    -0.273 OA
BRANCH  15  18
HETATM   18  C   UNL     1       6.783  30.986  58.102  1.00  0.00     0.127 C 
BRANCH  18  19
HETATM   19  C   UNL     1       5.678  31.973  58.488  1.00  0.00     0.058 C 
BRANCH  19  20
HETATM   20  C   UNL     1       5.840  32.469  59.902  1.00  0.00    -0.057 A 
HETATM   21  C   UNL     1       6.947  32.084  60.672  1.00  0.00     0.009 A 
HETATM   22  C   UNL     1       7.069  32.509  61.997  1.00  0.00     0.025 A 
HETATM   23  C   UNL     1       6.081  33.326  62.553  1.00  0.00     0.074 A 
HETATM   24  C   UNL     1       4.971  33.713  61.800  1.00  0.00     0.025 A 
HETATM   25  C   UNL     1       4.855  33.286  60.477  1.00  0.00     0.009 A 
BRANCH  23  26
HETATM   26  S   UNL     1       6.194  33.810  64.251  1.00  0.00     0.239 S 
HETATM   27  O   UNL     1       7.312  33.127  64.861  1.00  0.00    -0.206 OA
HETATM   28  O   UNL     1       6.009  35.236  64.351  1.00  0.00    -0.206 OA
BRANCH  26  29
HETATM   29  N   UNL     1       4.814  33.114  64.906  1.00  0.00    -0.225 NA
HETATM   30  H   UNL     1       4.142  32.915  64.163  1.00  0.00     0.136 HD
HETATM   31  H   UNL     1       5.070  32.291  65.453  1.00  0.00     0.136 HD
ENDBRANCH  26  29
ENDBRANCH  23  26
ENDBRANCH  19  20
ENDBRANCH  18  19
ENDBRANCH  15  18
ENDBRANCH  13  14
ENDBRANCH  12  13
ENDBRANCH   9  12
BRANCH  10  32
HETATM   32  C   UNL     1       5.847  25.972  52.260  1.00  0.00     0.043 A 
HETATM   33  C   UNL     1       7.221  26.221  52.195  1.00  0.00     0.033 A 
HETATM   34  C   UNL     1       8.110  25.192  52.503  1.00  0.00     0.039 A 
HETATM   35  C   UNL     1       7.638  23.922  52.861  1.00  0.00     0.076 A 
HETATM   36  C   UNL     1       6.259  23.684  52.902  1.00  0.00     0.039 A 
HETATM   37  C   UNL     1       5.354  24.717  52.623  1.00  0.00     0.033 A 
BRANCH  35  38
HETATM   38  O   UNL     1       8.633  23.013  53.144  1.00  0.00    -0.311 OA
BRANCH  38  39
HETATM   39  C   UNL     1       8.549  22.257  54.284  1.00  0.00     0.076 A 
HETATM   40  C   UNL     1       8.592  22.919  55.510  1.00  0.00     0.037 A 
HETATM   41  C   UNL     1       8.429  22.196  56.692  1.00  0.00     0.003 A 
HETATM   42  C   UNL     1       8.216  20.818  56.642  1.00  0.00     0.000 A 
HETATM   43  C   UNL     1       8.149  20.163  55.411  1.00  0.00     0.003 A 
HETATM   44  C   UNL     1       8.300  20.884  54.227  1.00  0.00     0.037 A 
ENDBRANCH  38  39
ENDBRANCH  35  38
ENDBRANCH  10  32
BRANCH  11  45
HETATM   45  N   UNL     1       5.115  26.731  49.651  1.00  0.00    -0.384 N 
HETATM   46  H   UNL     1       4.586  26.058  49.107  1.00  0.00     0.157 HD
HETATM   47  H   UNL     1       6.117  26.566  49.646  1.00  0.00     0.157 HD
ENDBRANCH  11  45
TORSDOF 12
ENDMDL
MODEL 10
REMARK VINA RESULT:      -9.6      5.609     10.129
REMARK  12 active torsions:
REMARK  status: ('A' for Active; 'I' for Inactive)
REMARK    1  A    between atoms: C_9  and  S_10 
REMARK    2  A    between atoms: S_10  and  C_11 
REMARK    3  A    between atoms: C_11  and  C_12 
REMARK       I    between atoms: C_12  and  N_13 
REMARK    4  A    between atoms: N_13  and  C_14 
REMARK    5  A    between atoms: C_14  and  C_15 
REMARK    6  A    between atoms: C_15  and  C_16 
REMARK    7  A    between atoms: C_19  and  S_20 
REMARK    8  A    between atoms: S_20  and  N_21 
REMARK    9  A    between atoms: N_27  and  C_28 
REMARK   10  A    between atoms: C_31  and  O_32 
REMARK   11  A    between atoms: O_32  and  C_33 
REMARK   12  A    between atoms: C_41  and  N_42 
ROOT
HETATM    1  C   UNL     1       8.755  30.522  59.363  1.00  0.00     0.073 C 
HETATM    2  C   UNL     1       7.518  30.781  58.579  1.00  0.00     0.068 A 
HETATM    3  N   UNL     1       6.842  31.917  58.789  1.00  0.00    -0.177 NA
HETATM    4  N   UNL     1       5.816  31.856  57.929  1.00  0.00    -0.260 N 
HETATM    5  H   UNL     1       5.158  32.629  57.894  1.00  0.00     0.191 HD
HETATM    6  C   UNL     1       5.807  30.708  57.191  1.00  0.00     0.162 A 
HETATM    7  C   UNL     1       6.907  29.971  57.573  1.00  0.00     0.081 A 
HETATM    8  N   UNL     1       4.902  30.370  56.278  1.00  0.00    -0.204 NA
HETATM    9  C   UNL     1       5.186  29.192  55.679  1.00  0.00     0.177 A 
HETATM   10  N   UNL     1       6.266  28.407  55.969  1.00  0.00    -0.276 N 
HETATM   11  C   UNL     1       7.146  28.727  56.967  1.00  0.00     0.124 A 
ENDROOT
BRANCH   9  12
HETATM   12  S   UNL     1       4.003  28.785  54.396  1.00  0.00    -0.082 SA
BRANCH  12  13
HETATM   13  C   UNL     1       4.359  30.154  53.244  1.00  0.00     0.185 C 
BRANCH  13  14
HETATM   14  C   UNL     1       4.959  29.666  51.935  1.00  0.00     0.227 C 
HETATM   15  N   UNL     1       4.059  29.715  50.886  1.00  0.00    -0.360 N 
HETATM   16  H   UNL     1       3.216  30.266  50.995  1.00  0.00     0.162 HD
HETATM   17  O   UNL     1       6.091  29.206  51.835  1.00  0.00    -0.273 OA
BRANCH  15  18
HETATM   18  C   UNL     1       4.454  29.404  49.519  1.00  0.00     0.127 C 
BRANCH  18  19
HETATM   19  C   UNL     1       4.021  27.993  49.118  1.00  0.00     0.058 C 
BRANCH  19  20
HETATM   20  C   UNL     1       2.794  28.013  48.243  1.00  0.00    -0.057 A 
HETATM   21  C   UNL     1       2.185  26.816  47.837  1.00  0.00     0.009 A 
HETATM   22  C   UNL     1       1.077  26.839  46.988  1.00  0.00     0.025 A 
HETATM   23  C   UNL     1       0.572  28.065  46.546  1.00  0.00     0.074 A 
HETATM   24  C   UNL     1       1.171  29.264  46.937  1.00  0.00     0.025 A 
HETATM   25  C   UNL     1       2.277  29.235  47.786  1.00  0.00     0.009 A 
BRANCH  23  26
HETATM   26  S   UNL     1      -0.788  28.098  45.414  1.00  0.00     0.239 S 
HETATM   27  O   UNL     1      -0.737  26.917  44.583  1.00  0.00    -0.206 OA
HETATM   28  O   UNL     1      -1.981  28.500  46.118  1.00  0.00    -0.206 OA
BRANCH  26  29
HETATM   29  N   UNL     1      -0.381  29.385  44.416  1.00  0.00    -0.225 NA
HETATM   30  H   UNL     1       0.572  29.265  44.069  1.00  0.00     0.136 HD
HETATM   31  H   UNL     1      -1.075  29.475  43.672  1.00  0.00     0.136 HD
ENDBRANCH  26  29
ENDBRANCH  23  26
ENDBRANCH  19  20
ENDBRANCH  18  19
ENDBRANCH  15  18
ENDBRANCH  13  14
ENDBRANCH  12  13
ENDBRANCH   9  12
BRANCH  10  32
HETATM   32  C   UNL     1       6.543  27.234  55.172  1.00  0.00     0.043 A 
HETATM   33  C   UNL     1       7.494  27.336  54.152  1.00  0.00     0.033 A 
HETATM   34  C   UNL     1       7.852  26.189  53.445  1.00  0.00     0.039 A 
HETATM   35  C   UNL     1       7.262  24.953  53.739  1.00  0.00     0.076 A 
HETATM   36  C   UNL     1       6.296  24.872  54.750  1.00  0.00     0.039 A 
HETATM   37  C   UNL     1       5.948  26.011  55.489  1.00  0.00     0.033 A 
BRANCH  35  38
HETATM   38  O   UNL     1       7.722  23.913  52.963  1.00  0.00    -0.311 OA
BRANCH  38  39
HETATM   39  C   UNL     1       8.067  22.729  53.560  1.00  0.00     0.076 A 
HETATM   40  C   UNL     1       7.727  21.545  52.905  1.00  0.00     0.037 A 
HETATM   41  C   UNL     1       8.130  20.321  53.437  1.00  0.00     0.003 A 
HETATM   42  C   UNL     1       8.877  20.285  54.614  1.00  0.00     0.000 A 
HETATM   43  C   UNL     1       9.236  21.473  55.254  1.00  0.00     0.003 A 
HETATM   44  C   UNL     1       8.845  22.700  54.719  1.00  0.00     0.037 A 
ENDBRANCH  38  39
ENDBRANCH  35  38
ENDBRANCH  10  32
BRANCH  11  45
HETATM   45  N   UNL     1       8.193  27.897  57.354  1.00  0.00    -0.384 N 
HETATM   46  H   UNL     1       8.049  27.158  58.035  1.00  0.00     0.157 HD
HETATM   47  H   UNL     1       9.134  28.278  57.355  1.00  0.00     0.157 HD
ENDBRANCH  11  45
TORSDOF 12
ENDMDL
