MODEL 1
REMARK VINA RESULT:      -8.8      0.000      0.000
REMARK  4 active torsions:
REMARK  status: ('A' for Active; 'I' for Inactive)
REMARK    1  A    between atoms: C_9  and  C_10 
REMARK       I    between atoms: C_10  and  N_11 
REMARK    2  A    between atoms: N_11  and  C_12 
REMARK    3  A    between atoms: C_12  and  C_13 
REMARK    4  A    between atoms: C_14  and  O_15 
ROOT
HETATM    1  C   UNL     1       7.936  27.124  56.403  1.00  0.00     0.273 C 
HETATM    2  N   UNL     1       8.788  28.016  57.011  1.00  0.00    -0.347 N 
HETATM    3  O   UNL     1       7.106  27.423  55.552  1.00  0.00    -0.266 OA
HETATM    4  H   UNL     1       9.479  27.583  57.617  1.00  0.00     0.163 HD
ENDROOT
BRANCH   1   5
HETATM    5  C   UNL     1       8.139  25.738  56.863  1.00  0.00     0.157 A 
HETATM    6  C   UNL     1       8.111  24.552  56.070  1.00  0.00     0.029 A 
HETATM    7  C   UNL     1       7.899  24.244  54.711  1.00  0.00     0.023 A 
HETATM    8  C   UNL     1       8.371  23.517  56.959  1.00  0.00     0.063 A 
HETATM    9  C   UNL     1       7.955  22.906  54.287  1.00  0.00    -0.061 A 
HETATM   10  C   UNL     1       7.729  22.556  52.845  1.00  0.00     0.048 C 
HETATM   11  C   UNL     1       8.221  21.892  55.216  1.00  0.00     0.009 A 
HETATM   12  C   UNL     1       8.434  22.176  56.571  1.00  0.00     0.032 A 
HETATM   13  N   UNL     1       8.529  24.118  58.176  1.00  0.00    -0.277 N 
HETATM   14  H   UNL     1       8.730  23.666  59.061  1.00  0.00     0.189 HD
HETATM   15  N   UNL     1       8.399  25.456  58.160  1.00  0.00    -0.168 NA
ENDBRANCH   1   5
BRANCH   2  16
HETATM   16  C   UNL     1       8.944  29.432  56.702  1.00  0.00     0.116 C 
HETATM   17  C   UNL     1      10.209  29.771  55.913  1.00  0.00     0.037 C 
BRANCH  16  18
HETATM   18  C   UNL     1       8.779  30.341  57.915  1.00  0.00    -0.003 A 
HETATM   19  C   UNL     1       7.499  30.560  58.476  1.00  0.00     0.076 A 
HETATM   20  C   UNL     1       7.356  31.407  59.582  1.00  0.00     0.037 A 
HETATM   21  C   UNL     1       8.465  32.053  60.130  1.00  0.00     0.003 A 
HETATM   22  C   UNL     1       9.724  31.865  59.572  1.00  0.00     0.001 A 
HETATM   23  C   UNL     1       9.877  31.022  58.471  1.00  0.00     0.012 A 
BRANCH  19  24
HETATM   24  O   UNL     1       6.458  29.901  57.872  1.00  0.00    -0.355 OA
HETATM   25  C   UNL     1       5.490  30.688  57.189  1.00  0.00     0.210 C 
ENDBRANCH  19  24
ENDBRANCH  16  18
ENDBRANCH   2  16
TORSDOF 4
ENDMDL
MODEL 2
REMARK VINA RESULT:      -8.4      2.165      7.265
REMARK  4 active torsions:
REMARK  status: ('A' for Active; 'I' for Inactive)
REMARK    1  A    between atoms: C_9  and  C_10 
REMARK       I    between atoms: C_10  and  N_11 
REMARK    2  A    between atoms: N_11  and  C_12 
REMARK    3  A    between atoms: C_12  and  C_13 
REMARK    4  A    between atoms: C_14  and  O_15 
ROOT
HETATM    1  C   UNL     1       6.540  27.629  54.621  1.00  0.00     0.273 C 
HETATM    2  N   UNL     1       6.628  26.263  54.752  1.00  0.00    -0.347 N 
HETATM    3  O   UNL     1       6.475  28.223  53.551  1.00  0.00    -0.266 OA
HETATM    4  H   UNL     1       6.570  25.933  55.711  1.00  0.00     0.163 HD
ENDROOT
BRANCH   1   5
HETATM    5  C   UNL     1       6.502  28.324  55.920  1.00  0.00     0.157 A 
HETATM    6  C   UNL     1       7.603  28.899  56.624  1.00  0.00     0.029 A 
HETATM    7  C   UNL     1       8.991  29.019  56.414  1.00  0.00     0.023 A 
HETATM    8  C   UNL     1       7.050  29.442  57.777  1.00  0.00     0.063 A 
HETATM    9  C   UNL     1       9.781  29.683  57.367  1.00  0.00    -0.061 A 
HETATM   10  C   UNL     1      11.262  29.819  57.165  1.00  0.00     0.048 C 
HETATM   11  C   UNL     1       9.184  30.217  58.516  1.00  0.00     0.009 A 
HETATM   12  C   UNL     1       7.807  30.108  58.745  1.00  0.00     0.032 A 
HETATM   13  N   UNL     1       5.713  29.171  57.698  1.00  0.00    -0.277 N 
HETATM   14  H   UNL     1       4.997  29.420  58.372  1.00  0.00     0.189 HD
HETATM   15  N   UNL     1       5.342  28.501  56.594  1.00  0.00    -0.168 NA
ENDBRANCH   1   5
BRANCH   2  16
HETATM   16  C   UNL     1       6.561  25.271  53.685  1.00  0.00     0.116 C 
HETATM   17  C   UNL     1       5.140  24.912  53.246  1.00  0.00     0.037 C 
BRANCH  16  18
HETATM   18  C   UNL     1       7.396  24.026  53.959  1.00  0.00    -0.003 A 
HETATM   19  C   UNL     1       8.020  23.845  55.214  1.00  0.00     0.076 A 
HETATM   20  C   UNL     1       8.796  22.703  55.451  1.00  0.00     0.037 A 
HETATM   21  C   UNL     1       8.974  21.745  54.451  1.00  0.00     0.003 A 
HETATM   22  C   UNL     1       8.384  21.924  53.206  1.00  0.00     0.001 A 
HETATM   23  C   UNL     1       7.609  23.057  52.960  1.00  0.00     0.012 A 
BRANCH  19  24
HETATM   24  O   UNL     1       7.810  24.837  56.138  1.00  0.00    -0.355 OA
HETATM   25  C   UNL     1       8.678  24.880  57.265  1.00  0.00     0.210 C 
ENDBRANCH  19  24
ENDBRANCH  16  18
ENDBRANCH   2  16
TORSDOF 4
ENDMDL
MODEL 3
REMARK VINA RESULT:      -8.4      1.271      2.132
REMARK  4 active torsions:
REMARK  status: ('A' for Active; 'I' for Inactive)
REMARK    1  A    between atoms: C_9  and  C_10 
REMARK       I    between atoms: C_10  and  N_11 
REMARK    2  A    between atoms: N_11  and  C_12 
REMARK    3  A    between atoms: C_12  and  C_13 
REMARK    4  A    between atoms: C_14  and  O_15 
ROOT
HETATM    1  C   UNL     1       6.537  27.234  57.211  1.00  0.00     0.273 C 
HETATM    2  N   UNL     1       7.177  28.333  57.735  1.00  0.00    -0.347 N 
HETATM    3  O   UNL     1       5.404  27.245  56.742  1.00  0.00    -0.266 OA
HETATM    4  H   UNL     1       8.147  28.168  57.985  1.00  0.00     0.163 HD
ENDROOT
BRANCH   1   5
HETATM    5  C   UNL     1       7.371  26.019  57.243  1.00  0.00     0.157 A 
HETATM    6  C   UNL     1       7.652  25.135  56.158  1.00  0.00     0.029 A 
HETATM    7  C   UNL     1       7.293  25.052  54.798  1.00  0.00     0.023 A 
HETATM    8  C   UNL     1       8.489  24.163  56.691  1.00  0.00     0.063 A 
HETATM    9  C   UNL     1       7.788  23.996  54.015  1.00  0.00    -0.061 A 
HETATM   10  C   UNL     1       7.416  23.886  52.564  1.00  0.00     0.048 C 
HETATM   11  C   UNL     1       8.631  23.037  54.591  1.00  0.00     0.009 A 
HETATM   12  C   UNL     1       8.999  23.101  55.941  1.00  0.00     0.032 A 
HETATM   13  N   UNL     1       8.650  24.508  58.004  1.00  0.00    -0.277 N 
HETATM   14  H   UNL     1       9.201  24.020  58.702  1.00  0.00     0.189 HD
HETATM   15  N   UNL     1       7.995  25.621  58.375  1.00  0.00    -0.168 NA
ENDBRANCH   1   5
BRANCH   2  16
HETATM   16  C   UNL     1       6.695  29.709  57.744  1.00  0.00     0.116 C 
HETATM   17  C   UNL     1       6.384  30.278  56.358  1.00  0.00     0.037 C 
BRANCH  16  18
HETATM   18  C   UNL     1       7.573  30.655  58.555  1.00  0.00    -0.003 A 
HETATM   19  C   UNL     1       8.972  30.681  58.355  1.00  0.00     0.076 A 
HETATM   20  C   UNL     1       9.772  31.545  59.114  1.00  0.00     0.037 A 
HETATM   21  C   UNL     1       9.201  32.372  60.083  1.00  0.00     0.003 A 
HETATM   22  C   UNL     1       7.830  32.337  60.305  1.00  0.00     0.001 A 
HETATM   23  C   UNL     1       7.025  31.482  59.553  1.00  0.00     0.012 A 
BRANCH  19  24
HETATM   24  O   UNL     1       9.458  29.829  57.396  1.00  0.00    -0.355 OA
HETATM   25  C   UNL     1      10.829  29.954  57.038  1.00  0.00     0.210 C 
ENDBRANCH  19  24
ENDBRANCH  16  18
ENDBRANCH   2  16
TORSDOF 4
ENDMDL
MODEL 4
REMARK VINA RESULT:      -8.3      2.472      7.707
REMARK  4 active torsions:
REMARK  status: ('A' for Active; 'I' for Inactive)
REMARK    1  A    between atoms: C_9  and  C_10 
REMARK       I    between atoms: C_10  and  N_11 
REMARK    2  A    between atoms: N_11  and  C_12 
REMARK    3  A    between atoms: C_12  and  C_13 
REMARK    4  A    between atoms: C_14  and  O_15 
ROOT
HETATM    1  C   UNL     1       7.127  27.124  54.102  1.00  0.00     0.273 C 
HETATM    2  N   UNL     1       7.020  25.754  54.023  1.00  0.00    -0.347 N 
HETATM    3  O   UNL     1       8.084  27.772  53.693  1.00  0.00    -0.266 OA
HETATM    4  H   UNL     1       6.118  25.391  54.317  1.00  0.00     0.163 HD
ENDROOT
BRANCH   1   5
HETATM    5  C   UNL     1       5.944  27.753  54.716  1.00  0.00     0.157 A 
HETATM    6  C   UNL     1       5.926  28.698  55.785  1.00  0.00     0.029 A 
HETATM    7  C   UNL     1       6.888  29.331  56.598  1.00  0.00     0.023 A 
HETATM    8  C   UNL     1       4.583  28.993  55.984  1.00  0.00     0.063 A 
HETATM    9  C   UNL     1       6.472  30.241  57.583  1.00  0.00    -0.061 A 
HETATM   10  C   UNL     1       7.480  30.924  58.461  1.00  0.00     0.048 C 
HETATM   11  C   UNL     1       5.107  30.511  57.750  1.00  0.00     0.009 A 
HETATM   12  C   UNL     1       4.135  29.893  56.954  1.00  0.00     0.032 A 
HETATM   13  N   UNL     1       3.909  28.239  55.064  1.00  0.00    -0.277 N 
HETATM   14  H   UNL     1       2.905  28.200  54.921  1.00  0.00     0.189 HD
HETATM   15  N   UNL     1       4.693  27.480  54.280  1.00  0.00    -0.168 NA
ENDBRANCH   1   5
BRANCH   2  16
HETATM   16  C   UNL     1       7.943  24.838  53.365  1.00  0.00     0.116 C 
HETATM   17  C   UNL     1       7.779  24.759  51.846  1.00  0.00     0.037 C 
BRANCH  16  18
HETATM   18  C   UNL     1       7.979  23.451  53.998  1.00  0.00    -0.003 A 
HETATM   19  C   UNL     1       8.270  23.301  55.373  1.00  0.00     0.076 A 
HETATM   20  C   UNL     1       8.314  22.023  55.944  1.00  0.00     0.037 A 
HETATM   21  C   UNL     1       8.087  20.889  55.162  1.00  0.00     0.003 A 
HETATM   22  C   UNL     1       7.824  21.023  53.804  1.00  0.00     0.001 A 
HETATM   23  C   UNL     1       7.777  22.292  53.227  1.00  0.00     0.012 A 
BRANCH  19  24
HETATM   24  O   UNL     1       8.495  24.462  56.070  1.00  0.00    -0.355 OA
HETATM   25  C   UNL     1       8.751  24.352  57.465  1.00  0.00     0.210 C 
ENDBRANCH  19  24
ENDBRANCH  16  18
ENDBRANCH   2  16
TORSDOF 4
ENDMDL
MODEL 5
REMARK VINA RESULT:      -8.3      1.864      2.927
REMARK  4 active torsions:
REMARK  status: ('A' for Active; 'I' for Inactive)
REMARK    1  A    between atoms: C_9  and  C_10 
REMARK       I    between atoms: C_10  and  N_11 
REMARK    2  A    between atoms: N_11  and  C_12 
REMARK    3  A    between atoms: C_12  and  C_13 
REMARK    4  A    between atoms: C_14  and  O_15 
ROOT
HETATM    1  C   UNL     1       6.982  26.071  56.088  1.00  0.00     0.273 C 
HETATM    2  N   UNL     1       7.545  27.326  56.077  1.00  0.00    -0.347 N 
HETATM    3  O   UNL     1       6.278  25.632  56.991  1.00  0.00    -0.266 OA
HETATM    4  H   UNL     1       8.013  27.563  55.207  1.00  0.00     0.163 HD
ENDROOT
BRANCH   1   5
HETATM    5  C   UNL     1       7.290  25.298  54.872  1.00  0.00     0.157 A 
HETATM    6  C   UNL     1       7.521  23.892  54.778  1.00  0.00     0.029 A 
HETATM    7  C   UNL     1       7.559  22.807  55.677  1.00  0.00     0.023 A 
HETATM    8  C   UNL     1       7.752  23.653  53.430  1.00  0.00     0.063 A 
HETATM    9  C   UNL     1       7.826  21.516  55.193  1.00  0.00    -0.061 A 
HETATM   10  C   UNL     1       7.874  20.347  56.133  1.00  0.00     0.048 C 
HETATM   11  C   UNL     1       8.052  21.318  53.825  1.00  0.00     0.009 A 
HETATM   12  C   UNL     1       8.020  22.382  52.915  1.00  0.00     0.032 A 
HETATM   13  N   UNL     1       7.652  24.875  52.825  1.00  0.00    -0.277 N 
HETATM   14  H   UNL     1       7.763  25.081  51.838  1.00  0.00     0.189 HD
HETATM   15  N   UNL     1       7.372  25.891  53.659  1.00  0.00    -0.168 NA
ENDBRANCH   1   5
BRANCH   2  16
HETATM   16  C   UNL     1       7.341  28.390  57.053  1.00  0.00     0.116 C 
HETATM   17  C   UNL     1       6.126  29.276  56.776  1.00  0.00     0.037 C 
BRANCH  16  18
HETATM   18  C   UNL     1       8.592  29.219  57.319  1.00  0.00    -0.003 A 
HETATM   19  C   UNL     1       8.596  30.202  58.335  1.00  0.00     0.076 A 
HETATM   20  C   UNL     1       9.746  30.968  58.563  1.00  0.00     0.037 A 
HETATM   21  C   UNL     1      10.889  30.782  57.784  1.00  0.00     0.003 A 
HETATM   22  C   UNL     1      10.889  29.836  56.766  1.00  0.00     0.001 A 
HETATM   23  C   UNL     1       9.749  29.068  56.532  1.00  0.00     0.012 A 
BRANCH  19  24
HETATM   24  O   UNL     1       7.431  30.334  59.047  1.00  0.00    -0.355 OA
HETATM   25  C   UNL     1       7.117  31.622  59.563  1.00  0.00     0.210 C 
ENDBRANCH  19  24
ENDBRANCH  16  18
ENDBRANCH   2  16
TORSDOF 4
ENDMDL
MODEL 6
REMARK VINA RESULT:      -8.3      4.214      7.396
REMARK  4 active torsions:
REMARK  status: ('A' for Active; 'I' for Inactive)
REMARK    1  A    between atoms: C_9  and  C_10 
REMARK       I    between atoms: C_10  and  N_11 
REMARK    2  A    between atoms: N_11  and  C_12 
REMARK    3  A    between atoms: C_12  and  C_13 
REMARK    4  A    between atoms: C_14  and  O_15 
ROOT
HETATM    1  C   UNL     1       5.619  25.618  56.422  1.00  0.00     0.273 C 
HETATM    2  N   UNL     1       6.812  25.154  55.916  1.00  0.00    -0.347 N 
HETATM    3  O   UNL     1       4.976  25.064  57.306  1.00  0.00    -0.266 OA
HETATM    4  H   UNL     1       7.259  25.789  55.261  1.00  0.00     0.163 HD
ENDROOT
BRANCH   1   5
HETATM    5  C   UNL     1       5.192  26.885  55.803  1.00  0.00     0.157 A 
HETATM    6  C   UNL     1       5.003  27.147  54.412  1.00  0.00     0.029 A 
HETATM    7  C   UNL     1       5.135  26.416  53.214  1.00  0.00     0.023 A 
HETATM    8  C   UNL     1       4.588  28.471  54.347  1.00  0.00     0.063 A 
HETATM    9  C   UNL     1       4.844  27.037  51.989  1.00  0.00    -0.061 A 
HETATM   10  C   UNL     1       4.982  26.277  50.701  1.00  0.00     0.048 C 
HETATM   11  C   UNL     1       4.427  28.374  51.967  1.00  0.00     0.009 A 
HETATM   12  C   UNL     1       4.290  29.118  53.145  1.00  0.00     0.032 A 
HETATM   13  N   UNL     1       4.557  28.903  55.643  1.00  0.00    -0.277 N 
HETATM   14  H   UNL     1       4.298  29.826  55.975  1.00  0.00     0.189 HD
HETATM   15  N   UNL     1       4.912  27.977  56.550  1.00  0.00    -0.168 NA
ENDBRANCH   1   5
BRANCH   2  16
HETATM   16  C   UNL     1       7.579  24.008  56.386  1.00  0.00     0.116 C 
HETATM   17  C   UNL     1       8.907  24.367  57.055  1.00  0.00     0.037 C 
BRANCH  16  18
HETATM   18  C   UNL     1       7.758  22.922  55.331  1.00  0.00    -0.003 A 
HETATM   19  C   UNL     1       7.990  23.269  53.980  1.00  0.00     0.076 A 
HETATM   20  C   UNL     1       8.140  22.265  53.016  1.00  0.00     0.037 A 
HETATM   21  C   UNL     1       8.046  20.918  53.373  1.00  0.00     0.003 A 
HETATM   22  C   UNL     1       7.794  20.566  54.693  1.00  0.00     0.001 A 
HETATM   23  C   UNL     1       7.644  21.559  55.661  1.00  0.00     0.012 A 
BRANCH  19  24
HETATM   24  O   UNL     1       8.055  24.612  53.708  1.00  0.00    -0.355 OA
HETATM   25  C   UNL     1       8.121  25.003  52.341  1.00  0.00     0.210 C 
ENDBRANCH  19  24
ENDBRANCH  16  18
ENDBRANCH   2  16
TORSDOF 4
ENDMDL
MODEL 7
REMARK VINA RESULT:      -8.3      1.743      7.602
REMARK  4 active torsions:
REMARK  status: ('A' for Active; 'I' for Inactive)
REMARK    1  A    between atoms: C_9  and  C_10 
REMARK       I    between atoms: C_10  and  N_11 
REMARK    2  A    between atoms: N_11  and  C_12 
REMARK    3  A    between atoms: C_12  and  C_13 
REMARK    4  A    between atoms: C_14  and  O_15 
ROOT
HETATM    1  C   UNL     1       7.389  28.586  56.006  1.00  0.00     0.273 C 
HETATM    2  N   UNL     1       7.604  27.230  56.088  1.00  0.00    -0.347 N 
HETATM    3  O   UNL     1       6.367  29.103  55.569  1.00  0.00    -0.266 OA
HETATM    4  H   UNL     1       8.462  26.974  56.569  1.00  0.00     0.163 HD
ENDROOT
BRANCH   1   5
HETATM    5  C   UNL     1       8.518  29.375  56.532  1.00  0.00     0.157 A 
HETATM    6  C   UNL     1       8.518  30.221  57.681  1.00  0.00     0.029 A 
HETATM    7  C   UNL     1       7.577  30.615  58.653  1.00  0.00     0.023 A 
HETATM    8  C   UNL     1       9.812  30.721  57.761  1.00  0.00     0.063 A 
HETATM    9  C   UNL     1       7.964  31.496  59.675  1.00  0.00    -0.061 A 
HETATM   10  C   UNL     1       6.976  31.931  60.719  1.00  0.00     0.048 C 
HETATM   11  C   UNL     1       9.280  31.976  59.720  1.00  0.00     0.009 A 
HETATM   12  C   UNL     1      10.231  31.599  58.764  1.00  0.00     0.032 A 
HETATM   13  N   UNL     1      10.477  30.170  56.701  1.00  0.00    -0.277 N 
HETATM   14  H   UNL     1      11.448  30.314  56.445  1.00  0.00     0.189 HD
HETATM   15  N   UNL     1       9.733  29.351  55.938  1.00  0.00    -0.168 NA
ENDBRANCH   1   5
BRANCH   2  16
HETATM   16  C   UNL     1       6.654  26.169  55.778  1.00  0.00     0.116 C 
HETATM   17  C   UNL     1       6.109  25.432  57.003  1.00  0.00     0.037 C 
BRANCH  16  18
HETATM   18  C   UNL     1       7.152  25.197  54.715  1.00  0.00    -0.003 A 
HETATM   19  C   UNL     1       7.216  25.592  53.359  1.00  0.00     0.076 A 
HETATM   20  C   UNL     1       7.662  24.688  52.387  1.00  0.00     0.037 A 
HETATM   21  C   UNL     1       8.032  23.390  52.742  1.00  0.00     0.003 A 
HETATM   22  C   UNL     1       7.950  22.983  54.068  1.00  0.00     0.001 A 
HETATM   23  C   UNL     1       7.508  23.876  55.043  1.00  0.00     0.012 A 
BRANCH  19  24
HETATM   24  O   UNL     1       6.822  26.878  53.089  1.00  0.00    -0.355 OA
HETATM   25  C   UNL     1       5.888  27.072  52.034  1.00  0.00     0.210 C 
ENDBRANCH  19  24
ENDBRANCH  16  18
ENDBRANCH   2  16
TORSDOF 4
ENDMDL
MODEL 8
REMARK VINA RESULT:      -8.1      2.904      4.419
REMARK  4 active torsions:
REMARK  status: ('A' for Active; 'I' for Inactive)
REMARK    1  A    between atoms: C_9  and  C_10 
REMARK       I    between atoms: C_10  and  N_11 
REMARK    2  A    between atoms: N_11  and  C_12 
REMARK    3  A    between atoms: C_12  and  C_13 
REMARK    4  A    between atoms: C_14  and  O_15 
ROOT
HETATM    1  C   UNL     1       7.983  30.104  58.562  1.00  0.00     0.273 C 
HETATM    2  N   UNL     1       7.683  30.506  59.842  1.00  0.00    -0.347 N 
HETATM    3  O   UNL     1       9.015  30.392  57.965  1.00  0.00    -0.266 OA
HETATM    4  H   UNL     1       6.834  30.093  60.219  1.00  0.00     0.163 HD
ENDROOT
BRANCH   1   5
HETATM    5  C   UNL     1       6.935  29.252  57.971  1.00  0.00     0.157 A 
HETATM    6  C   UNL     1       7.045  27.877  57.603  1.00  0.00     0.029 A 
HETATM    7  C   UNL     1       8.057  26.896  57.632  1.00  0.00     0.023 A 
HETATM    8  C   UNL     1       5.792  27.533  57.112  1.00  0.00     0.063 A 
HETATM    9  C   UNL     1       7.778  25.600  57.168  1.00  0.00    -0.061 A 
HETATM   10  C   UNL     1       8.842  24.541  57.187  1.00  0.00     0.048 C 
HETATM   11  C   UNL     1       6.500  25.294  56.682  1.00  0.00     0.009 A 
HETATM   12  C   UNL     1       5.481  26.254  56.644  1.00  0.00     0.032 A 
HETATM   13  N   UNL     1       5.042  28.671  57.210  1.00  0.00    -0.277 N 
HETATM   14  H   UNL     1       4.071  28.790  56.941  1.00  0.00     0.189 HD
HETATM   15  N   UNL     1       5.694  29.729  57.725  1.00  0.00    -0.168 NA
ENDBRANCH   1   5
BRANCH   2  16
HETATM   16  C   UNL     1       8.545  31.244  60.757  1.00  0.00     0.116 C 
HETATM   17  C   UNL     1       9.575  30.381  61.489  1.00  0.00     0.037 C 
BRANCH  16  18
HETATM   18  C   UNL     1       7.781  32.145  61.721  1.00  0.00    -0.003 A 
HETATM   19  C   UNL     1       6.707  32.938  61.258  1.00  0.00     0.076 A 
HETATM   20  C   UNL     1       6.019  33.773  62.148  1.00  0.00     0.037 A 
HETATM   21  C   UNL     1       6.395  33.842  63.490  1.00  0.00     0.003 A 
HETATM   22  C   UNL     1       7.465  33.084  63.951  1.00  0.00     0.001 A 
HETATM   23  C   UNL     1       8.155  32.249  63.073  1.00  0.00     0.012 A 
BRANCH  19  24
HETATM   24  O   UNL     1       6.408  32.826  59.923  1.00  0.00    -0.355 OA
HETATM   25  C   UNL     1       5.063  33.067  59.528  1.00  0.00     0.210 C 
ENDBRANCH  19  24
ENDBRANCH  16  18
ENDBRANCH   2  16
TORSDOF 4
ENDMDL
MODEL 9
REMARK VINA RESULT:      -8.0      4.569      6.315
REMARK  4 active torsions:
REMARK  status: ('A' for Active; 'I' for Inactive)
REMARK    1  A    between atoms: C_9  and  C_10 
REMARK       I    between atoms: C_10  and  N_11 
REMARK    2  A    between atoms: N_11  and  C_12 
REMARK    3  A    between atoms: C_12  and  C_13 
REMARK    4  A    between atoms: C_14  and  O_15 
ROOT
HETATM    1  C   UNL     1       7.177  26.103  53.722  1.00  0.00     0.273 C 
HETATM    2  N   UNL     1       5.984  26.786  53.762  1.00  0.00    -0.347 N 
HETATM    3  O   UNL     1       8.078  26.321  52.918  1.00  0.00    -0.266 OA
HETATM    4  H   UNL     1       5.395  26.545  54.555  1.00  0.00     0.163 HD
ENDROOT
BRANCH   1   5
HETATM    5  C   UNL     1       7.284  25.078  54.776  1.00  0.00     0.157 A 
HETATM    6  C   UNL     1       7.547  23.686  54.603  1.00  0.00     0.029 A 
HETATM    7  C   UNL     1       7.772  22.823  53.512  1.00  0.00     0.023 A 
HETATM    8  C   UNL     1       7.562  23.159  55.888  1.00  0.00     0.063 A 
HETATM    9  C   UNL     1       8.008  21.458  53.745  1.00  0.00    -0.061 A 
HETATM   10  C   UNL     1       8.247  20.521  52.597  1.00  0.00     0.048 C 
HETATM   11  C   UNL     1       8.016  20.967  55.058  1.00  0.00     0.009 A 
HETATM   12  C   UNL     1       7.793  21.807  56.156  1.00  0.00     0.032 A 
HETATM   13  N   UNL     1       7.317  24.219  56.715  1.00  0.00    -0.277 N 
HETATM   14  H   UNL     1       7.255  24.205  57.727  1.00  0.00     0.189 HD
HETATM   15  N   UNL     1       7.146  25.394  56.084  1.00  0.00    -0.168 NA
ENDBRANCH   1   5
BRANCH   2  16
HETATM   16  C   UNL     1       5.603  27.938  52.955  1.00  0.00     0.116 C 
HETATM   17  C   UNL     1       4.475  28.781  53.551  1.00  0.00     0.037 C 
BRANCH  16  18
HETATM   18  C   UNL     1       5.335  27.595  51.494  1.00  0.00    -0.003 A 
HETATM   19  C   UNL     1       5.511  28.571  50.486  1.00  0.00     0.076 A 
HETATM   20  C   UNL     1       5.250  28.250  49.148  1.00  0.00     0.037 A 
HETATM   21  C   UNL     1       4.800  26.976  48.799  1.00  0.00     0.003 A 
HETATM   22  C   UNL     1       4.600  26.016  49.783  1.00  0.00     0.001 A 
HETATM   23  C   UNL     1       4.858  26.326  51.119  1.00  0.00     0.012 A 
BRANCH  19  24
HETATM   24  O   UNL     1       5.942  29.802  50.912  1.00  0.00    -0.355 OA
HETATM   25  C   UNL     1       5.675  30.918  50.071  1.00  0.00     0.210 C 
ENDBRANCH  19  24
ENDBRANCH  16  18
ENDBRANCH   2  16
TORSDOF 4
ENDMDL
MODEL 10
REMARK VINA RESULT:      -8.0      4.556      5.914
REMARK  4 active torsions:
REMARK  status: ('A' for Active; 'I' for Inactive)
REMARK    1  A    between atoms: C_9  and  C_10 
REMARK       I    between atoms: C_10  and  N_11 
REMARK    2  A    between atoms: N_11  and  C_12 
REMARK    3  A    between atoms: C_12  and  C_13 
REMARK    4  A    between atoms: C_14  and  O_15 
ROOT
HETATM    1  C   UNL     1       5.314  25.411  53.075  1.00  0.00     0.273 C 
HETATM    2  N   UNL     1       5.574  26.539  52.331  1.00  0.00    -0.347 N 
HETATM    3  O   UNL     1       4.305  24.723  52.968  1.00  0.00    -0.266 OA
HETATM    4  H   UNL     1       6.501  26.928  52.478  1.00  0.00     0.163 HD
ENDROOT
BRANCH   1   5
HETATM    5  C   UNL     1       6.400  25.088  54.018  1.00  0.00     0.157 A 
HETATM    6  C   UNL     1       7.218  23.917  54.024  1.00  0.00     0.029 A 
HETATM    7  C   UNL     1       7.313  22.741  53.254  1.00  0.00     0.023 A 
HETATM    8  C   UNL     1       8.092  24.094  55.088  1.00  0.00     0.063 A 
HETATM    9  C   UNL     1       8.284  21.779  53.576  1.00  0.00    -0.061 A 
HETATM   10  C   UNL     1       8.400  20.518  52.771  1.00  0.00     0.048 C 
HETATM   11  C   UNL     1       9.148  21.997  54.657  1.00  0.00     0.009 A 
HETATM   12  C   UNL     1       9.070  23.158  55.436  1.00  0.00     0.032 A 
HETATM   13  N   UNL     1       7.760  25.303  55.631  1.00  0.00    -0.277 N 
HETATM   14  H   UNL     1       8.193  25.756  56.429  1.00  0.00     0.189 HD
HETATM   15  N   UNL     1       6.747  25.935  55.013  1.00  0.00    -0.168 NA
ENDBRANCH   1   5
BRANCH   2  16
HETATM   16  C   UNL     1       4.780  27.066  51.228  1.00  0.00     0.116 C 
HETATM   17  C   UNL     1       4.981  26.336  49.899  1.00  0.00     0.037 C 
BRANCH  16  18
HETATM   18  C   UNL     1       4.898  28.577  51.062  1.00  0.00    -0.003 A 
HETATM   19  C   UNL     1       4.289  29.448  51.994  1.00  0.00     0.076 A 
HETATM   20  C   UNL     1       4.392  30.835  51.825  1.00  0.00     0.037 A 
HETATM   21  C   UNL     1       5.078  31.368  50.733  1.00  0.00     0.003 A 
HETATM   22  C   UNL     1       5.660  30.521  49.798  1.00  0.00     0.001 A 
HETATM   23  C   UNL     1       5.564  29.139  49.957  1.00  0.00     0.012 A 
BRANCH  19  24
HETATM   24  O   UNL     1       3.621  28.848  53.031  1.00  0.00    -0.355 OA
HETATM   25  C   UNL     1       4.079  29.115  54.351  1.00  0.00     0.210 C 
ENDBRANCH  19  24
ENDBRANCH  16  18
ENDBRANCH   2  16
TORSDOF 4
ENDMDL
