MODEL 1
REMARK VINA RESULT:     -10.7      0.000      0.000
REMARK  7 active torsions:
REMARK  status: ('A' for Active; 'I' for Inactive)
REMARK    1  A    between atoms: C_2  and  N_3 
REMARK    2  A    between atoms: C_11  and  C_12 
REMARK    3  A    between atoms: C_14  and  O_15 
REMARK    4  A    between atoms: C_17  and  O_18 
REMARK    5  A    between atoms: O_18  and  C_19 
REMARK    6  A    between atoms: C_19  and  C_20 
REMARK    7  A    between atoms: C_31  and  O_32 
ROOT
HETATM    1  N   UNL     1       6.240  34.139  64.445  1.00  0.00    -0.067 N 
HETATM    2  H   UNL     1       6.454  34.721  65.265  1.00  0.00     0.280 HD
HETATM    3  C   UNL     1       7.470  33.250  64.240  1.00  0.00     0.281 C 
HETATM    4  C   UNL     1       7.462  32.650  62.877  1.00  0.00     0.018 A 
HETATM    5  C   UNL     1       6.736  33.132  61.801  1.00  0.00    -0.024 A 
HETATM    6  C   UNL     1       6.931  32.313  60.643  1.00  0.00     0.057 A 
HETATM    7  C   UNL     1       7.782  31.266  60.900  1.00  0.00     0.087 A 
HETATM    8  N   UNL     1       8.075  30.337  59.975  1.00  0.00    -0.357 N 
HETATM    9  C   UNL     1       7.718  30.613  58.591  1.00  0.00     0.243 C 
HETATM   10  N   UNL     1       6.686  31.633  58.339  1.00  0.00    -0.235 NA
HETATM   11  C   UNL     1       6.374  32.392  59.319  1.00  0.00     0.173 C 
HETATM   12  S   UNL     1       8.371  31.265  62.491  1.00  0.00    -0.074 SA
HETATM   13  C   UNL     1       5.842  34.331  61.932  1.00  0.00     0.068 C 
HETATM   14  C   UNL     1       6.080  35.085  63.254  1.00  0.00     0.240 C 
HETATM   15  H   UNL     1       8.823  29.663  60.109  1.00  0.00     0.162 HD
ENDROOT
BRANCH   9  16
HETATM   16  C   UNL     1       7.301  29.309  57.928  1.00  0.00    -0.012 A 
HETATM   17  C   UNL     1       5.998  29.150  57.414  1.00  0.00     0.050 A 
HETATM   18  C   UNL     1       5.628  27.981  56.742  1.00  0.00     0.102 A 
HETATM   19  C   UNL     1       6.586  26.971  56.561  1.00  0.00     0.112 A 
HETATM   20  C   UNL     1       7.872  27.101  57.083  1.00  0.00     0.041 A 
HETATM   21  C   UNL     1       8.227  28.270  57.760  1.00  0.00     0.014 A 
BRANCH  18  22
HETATM   22  O   UNL     1       4.388  27.742  56.210  1.00  0.00    -0.353 OA
HETATM   23  C   UNL     1       3.971  28.565  55.129  1.00  0.00     0.210 C 
ENDBRANCH  18  22
BRANCH  19  24
HETATM   24  O   UNL     1       6.156  25.841  55.815  1.00  0.00    -0.272 OA
BRANCH  24  25
HETATM   25  C   UNL     1       6.424  25.602  54.478  1.00  0.00     0.300 C 
HETATM   26  O   UNL     1       6.297  26.354  53.526  1.00  0.00    -0.259 OA
BRANCH  25  27
HETATM   27  C   UNL     1       7.024  24.263  54.368  1.00  0.00     0.061 A 
HETATM   28  C   UNL     1       7.609  23.795  53.186  1.00  0.00     0.050 A 
HETATM   29 CL   UNL     1       7.721  24.750  51.751  1.00  0.00    -0.083 Cl
HETATM   30  C   UNL     1       8.179  22.518  53.159  1.00  0.00     0.025 A 
HETATM   31  C   UNL     1       8.174  21.719  54.305  1.00  0.00     0.002 A 
HETATM   32  C   UNL     1       7.608  22.195  55.487  1.00  0.00     0.001 A 
HETATM   33  C   UNL     1       7.038  23.468  55.523  1.00  0.00     0.019 A 
ENDBRANCH  25  27
ENDBRANCH  24  25
ENDBRANCH  19  24
ENDBRANCH   9  16
BRANCH  11  34
HETATM   34  O   UNL     1       5.446  33.343  59.113  1.00  0.00    -0.344 OA
HETATM   35  H   UNL     1       4.874  33.016  58.394  1.00  0.00     0.219 HD
ENDBRANCH  11  34
BRANCH   1  36
HETATM   36  C   UNL     1       5.015  33.322  64.800  1.00  0.00     0.231 C 
HETATM   37  C   UNL     1       3.889  34.210  65.295  1.00  0.00     0.034 C 
ENDBRANCH   1  36
TORSDOF 7
ENDMDL
MODEL 2
REMARK VINA RESULT:     -10.0      1.546      2.060
REMARK  7 active torsions:
REMARK  status: ('A' for Active; 'I' for Inactive)
REMARK    1  A    between atoms: C_2  and  N_3 
REMARK    2  A    between atoms: C_11  and  C_12 
REMARK    3  A    between atoms: C_14  and  O_15 
REMARK    4  A    between atoms: C_17  and  O_18 
REMARK    5  A    between atoms: O_18  and  C_19 
REMARK    6  A    between atoms: C_19  and  C_20 
REMARK    7  A    between atoms: C_31  and  O_32 
ROOT
HETATM    1  N   UNL     1       5.099  34.387  62.820  1.00  0.00    -0.067 N 
HETATM    2  H   UNL     1       5.217  35.221  63.408  1.00  0.00     0.280 HD
HETATM    3  C   UNL     1       6.489  34.077  62.260  1.00  0.00     0.281 C 
HETATM    4  C   UNL     1       6.393  33.150  61.098  1.00  0.00     0.018 A 
HETATM    5  C   UNL     1       5.251  32.938  60.344  1.00  0.00    -0.024 A 
HETATM    6  C   UNL     1       5.488  31.970  59.316  1.00  0.00     0.057 A 
HETATM    7  C   UNL     1       6.781  31.505  59.346  1.00  0.00     0.087 A 
HETATM    8  N   UNL     1       7.219  30.553  58.506  1.00  0.00    -0.357 N 
HETATM    9  C   UNL     1       6.394  30.225  57.352  1.00  0.00     0.243 C 
HETATM   10  N   UNL     1       4.968  30.594  57.401  1.00  0.00    -0.235 NA
HETATM   11  C   UNL     1       4.615  31.408  58.320  1.00  0.00     0.173 C 
HETATM   12  S   UNL     1       7.717  32.227  60.562  1.00  0.00    -0.074 SA
HETATM   13  C   UNL     1       3.959  33.632  60.665  1.00  0.00     0.068 C 
HETATM   14  C   UNL     1       4.155  34.774  61.680  1.00  0.00     0.240 C 
HETATM   15  H   UNL     1       8.205  30.327  58.418  1.00  0.00     0.162 HD
ENDROOT
BRANCH   9  16
HETATM   16  C   UNL     1       6.513  28.734  57.077  1.00  0.00    -0.012 A 
HETATM   17  C   UNL     1       5.767  28.134  56.043  1.00  0.00     0.050 A 
HETATM   18  C   UNL     1       5.922  26.778  55.739  1.00  0.00     0.102 A 
HETATM   19  C   UNL     1       6.857  26.022  56.465  1.00  0.00     0.112 A 
HETATM   20  C   UNL     1       7.585  26.594  57.506  1.00  0.00     0.041 A 
HETATM   21  C   UNL     1       7.416  27.947  57.806  1.00  0.00     0.014 A 
BRANCH  18  22
HETATM   22  O   UNL     1       5.242  26.112  54.752  1.00  0.00    -0.353 OA
HETATM   23  C   UNL     1       5.160  26.739  53.479  1.00  0.00     0.210 C 
ENDBRANCH  18  22
BRANCH  19  24
HETATM   24  O   UNL     1       7.005  24.669  56.058  1.00  0.00    -0.272 OA
BRANCH  24  25
HETATM   25  C   UNL     1       8.178  23.936  56.093  1.00  0.00     0.300 C 
HETATM   26  O   UNL     1       9.147  24.077  56.820  1.00  0.00    -0.259 OA
BRANCH  25  27
HETATM   27  C   UNL     1       8.045  22.822  55.140  1.00  0.00     0.061 A 
HETATM   28  C   UNL     1       7.988  23.018  53.756  1.00  0.00     0.050 A 
HETATM   29 CL   UNL     1       8.104  24.578  53.023  1.00  0.00    -0.083 Cl
HETATM   30  C   UNL     1       7.882  21.911  52.908  1.00  0.00     0.025 A 
HETATM   31  C   UNL     1       7.843  20.618  53.436  1.00  0.00     0.002 A 
HETATM   32  C   UNL     1       7.921  20.423  54.815  1.00  0.00     0.001 A 
HETATM   33  C   UNL     1       8.027  21.523  55.668  1.00  0.00     0.019 A 
ENDBRANCH  25  27
ENDBRANCH  24  25
ENDBRANCH  19  24
ENDBRANCH   9  16
BRANCH  11  34
HETATM   34  O   UNL     1       3.322  31.774  58.380  1.00  0.00    -0.344 OA
HETATM   35  H   UNL     1       3.262  32.638  57.933  1.00  0.00     0.219 HD
ENDBRANCH  11  34
BRANCH   1  36
HETATM   36  C   UNL     1       4.605  33.280  63.729  1.00  0.00     0.231 C 
HETATM   37  C   UNL     1       4.894  33.598  65.184  1.00  0.00     0.034 C 
ENDBRANCH   1  36
TORSDOF 7
ENDMDL
MODEL 3
REMARK VINA RESULT:      -9.4      5.582     11.338
REMARK  7 active torsions:
REMARK  status: ('A' for Active; 'I' for Inactive)
REMARK    1  A    between atoms: C_2  and  N_3 
REMARK    2  A    between atoms: C_11  and  C_12 
REMARK    3  A    between atoms: C_14  and  O_15 
REMARK    4  A    between atoms: C_17  and  O_18 
REMARK    5  A    between atoms: O_18  and  C_19 
REMARK    6  A    between atoms: C_19  and  C_20 
REMARK    7  A    between atoms: C_31  and  O_32 
ROOT
HETATM    1  N   UNL     1       2.937  27.279  47.252  1.00  0.00    -0.067 N 
HETATM    2  H   UNL     1       2.801  27.259  46.234  1.00  0.00     0.280 HD
HETATM    3  C   UNL     1       4.023  28.329  47.501  1.00  0.00     0.281 C 
HETATM    4  C   UNL     1       4.591  28.182  48.870  1.00  0.00     0.018 A 
HETATM    5  C   UNL     1       4.505  27.040  49.647  1.00  0.00    -0.024 A 
HETATM    6  C   UNL     1       5.133  27.235  50.919  1.00  0.00     0.057 A 
HETATM    7  C   UNL     1       5.655  28.501  51.036  1.00  0.00     0.087 A 
HETATM    8  N   UNL     1       6.250  28.929  52.162  1.00  0.00    -0.357 N 
HETATM    9  C   UNL     1       6.610  27.938  53.165  1.00  0.00     0.243 C 
HETATM   10  N   UNL     1       5.925  26.634  53.119  1.00  0.00    -0.235 NA
HETATM   11  C   UNL     1       5.270  26.364  52.055  1.00  0.00     0.173 C 
HETATM   12  S   UNL     1       5.431  29.444  49.644  1.00  0.00    -0.074 SA
HETATM   13  C   UNL     1       3.779  25.817  49.166  1.00  0.00     0.068 C 
HETATM   14  C   UNL     1       3.448  25.897  47.664  1.00  0.00     0.240 C 
HETATM   15  H   UNL     1       6.777  29.797  52.195  1.00  0.00     0.162 HD
ENDROOT
BRANCH   9  16
HETATM   16  C   UNL     1       6.422  28.551  54.544  1.00  0.00    -0.012 A 
HETATM   17  C   UNL     1       7.449  28.482  55.507  1.00  0.00     0.050 A 
HETATM   18  C   UNL     1       7.310  29.102  56.752  1.00  0.00     0.102 A 
HETATM   19  C   UNL     1       6.136  29.822  57.024  1.00  0.00     0.112 A 
HETATM   20  C   UNL     1       5.100  29.880  56.093  1.00  0.00     0.041 A 
HETATM   21  C   UNL     1       5.247  29.250  54.856  1.00  0.00     0.014 A 
BRANCH  18  22
HETATM   22  O   UNL     1       8.255  29.088  57.745  1.00  0.00    -0.353 OA
HETATM   23  C   UNL     1       9.605  29.313  57.364  1.00  0.00     0.210 C 
ENDBRANCH  18  22
BRANCH  19  24
HETATM   24  O   UNL     1       6.092  30.477  58.284  1.00  0.00    -0.272 OA
BRANCH  24  25
HETATM   25  C   UNL     1       6.262  31.834  58.498  1.00  0.00     0.300 C 
HETATM   26  O   UNL     1       5.820  32.772  57.855  1.00  0.00    -0.259 OA
BRANCH  25  27
HETATM   27  C   UNL     1       7.013  32.004  59.752  1.00  0.00     0.061 A 
HETATM   28  C   UNL     1       6.384  32.240  60.980  1.00  0.00     0.050 A 
HETATM   29 CL   UNL     1       4.667  32.319  61.156  1.00  0.00    -0.083 Cl
HETATM   30  C   UNL     1       7.159  32.371  62.137  1.00  0.00     0.025 A 
HETATM   31  C   UNL     1       8.550  32.257  62.071  1.00  0.00     0.002 A 
HETATM   32  C   UNL     1       9.174  32.002  60.850  1.00  0.00     0.001 A 
HETATM   33  C   UNL     1       8.408  31.870  59.691  1.00  0.00     0.019 A 
ENDBRANCH  25  27
ENDBRANCH  24  25
ENDBRANCH  19  24
ENDBRANCH   9  16
BRANCH  11  34
HETATM   34  O   UNL     1       4.647  25.175  51.980  1.00  0.00    -0.344 OA
HETATM   35  H   UNL     1       5.345  24.509  51.844  1.00  0.00     0.219 HD
ENDBRANCH  11  34
BRANCH   1  36
HETATM   36  C   UNL     1       1.612  27.694  47.859  1.00  0.00     0.231 C 
HETATM   37  C   UNL     1       0.467  27.441  46.897  1.00  0.00     0.034 C 
ENDBRANCH   1  36
TORSDOF 7
ENDMDL
MODEL 4
REMARK VINA RESULT:      -9.3      2.192      3.098
REMARK  7 active torsions:
REMARK  status: ('A' for Active; 'I' for Inactive)
REMARK    1  A    between atoms: C_2  and  N_3 
REMARK    2  A    between atoms: C_11  and  C_12 
REMARK    3  A    between atoms: C_14  and  O_15 
REMARK    4  A    between atoms: C_17  and  O_18 
REMARK    5  A    between atoms: O_18  and  C_19 
REMARK    6  A    between atoms: C_19  and  C_20 
REMARK    7  A    between atoms: C_31  and  O_32 
ROOT
HETATM    1  N   UNL     1       6.393  33.138  62.165  1.00  0.00    -0.067 N 
HETATM    2  H   UNL     1       6.658  33.922  62.775  1.00  0.00     0.280 HD
HETATM    3  C   UNL     1       7.460  33.093  61.068  1.00  0.00     0.281 C 
HETATM    4  C   UNL     1       6.991  32.276  59.914  1.00  0.00     0.018 A 
HETATM    5  C   UNL     1       5.669  31.968  59.644  1.00  0.00    -0.024 A 
HETATM    6  C   UNL     1       5.561  31.146  58.476  1.00  0.00     0.057 A 
HETATM    7  C   UNL     1       6.794  30.878  57.931  1.00  0.00     0.087 A 
HETATM    8  N   UNL     1       6.944  30.085  56.857  1.00  0.00    -0.357 N 
HETATM    9  C   UNL     1       5.758  29.749  56.083  1.00  0.00     0.243 C 
HETATM   10  N   UNL     1       4.447  29.895  56.737  1.00  0.00    -0.235 NA
HETATM   11  C   UNL     1       4.419  30.558  57.830  1.00  0.00     0.173 C 
HETATM   12  S   UNL     1       8.068  31.614  58.775  1.00  0.00    -0.074 SA
HETATM   13  C   UNL     1       4.557  32.428  60.542  1.00  0.00     0.068 C 
HETATM   14  C   UNL     1       5.035  33.487  61.554  1.00  0.00     0.240 C 
HETATM   15  H   UNL     1       7.827  30.018  56.358  1.00  0.00     0.162 HD
ENDROOT
BRANCH   9  16
HETATM   16  C   UNL     1       5.901  28.325  55.568  1.00  0.00    -0.012 A 
HETATM   17  C   UNL     1       5.585  28.009  54.232  1.00  0.00     0.050 A 
HETATM   18  C   UNL     1       5.778  26.718  53.733  1.00  0.00     0.102 A 
HETATM   19  C   UNL     1       6.321  25.738  54.579  1.00  0.00     0.112 A 
HETATM   20  C   UNL     1       6.618  26.026  55.910  1.00  0.00     0.041 A 
HETATM   21  C   UNL     1       6.413  27.317  56.399  1.00  0.00     0.014 A 
BRANCH  18  22
HETATM   22  O   UNL     1       5.500  26.322  52.450  1.00  0.00    -0.353 OA
HETATM   23  C   UNL     1       4.853  27.263  51.603  1.00  0.00     0.210 C 
ENDBRANCH  18  22
BRANCH  19  24
HETATM   24  O   UNL     1       6.548  24.467  53.985  1.00  0.00    -0.272 OA
BRANCH  24  25
HETATM   25  C   UNL     1       7.688  24.085  53.299  1.00  0.00     0.300 C 
HETATM   26  O   UNL     1       8.350  24.725  52.498  1.00  0.00    -0.259 OA
BRANCH  25  27
HETATM   27  C   UNL     1       8.080  22.751  53.779  1.00  0.00     0.061 A 
HETATM   28  C   UNL     1       8.698  22.548  55.018  1.00  0.00     0.050 A 
HETATM   29 CL   UNL     1       9.032  23.833  56.122  1.00  0.00    -0.083 Cl
HETATM   30  C   UNL     1       9.024  21.248  55.420  1.00  0.00     0.025 A 
HETATM   31  C   UNL     1       8.727  20.159  54.597  1.00  0.00     0.002 A 
HETATM   32  C   UNL     1       8.092  20.361  53.372  1.00  0.00     0.001 A 
HETATM   33  C   UNL     1       7.763  21.654  52.963  1.00  0.00     0.019 A 
ENDBRANCH  25  27
ENDBRANCH  24  25
ENDBRANCH  19  24
ENDBRANCH   9  16
BRANCH  11  34
HETATM   34  O   UNL     1       3.233  30.720  58.442  1.00  0.00    -0.344 OA
HETATM   35  H   UNL     1       3.426  31.105  59.317  1.00  0.00     0.219 HD
ENDBRANCH  11  34
BRANCH   1  36
HETATM   36  C   UNL     1       6.423  31.890  63.023  1.00  0.00     0.231 C 
HETATM   37  C   UNL     1       7.803  31.261  63.025  1.00  0.00     0.034 C 
ENDBRANCH   1  36
TORSDOF 7
ENDMDL
MODEL 5
REMARK VINA RESULT:      -9.2      1.800      2.554
REMARK  7 active torsions:
REMARK  status: ('A' for Active; 'I' for Inactive)
REMARK    1  A    between atoms: C_2  and  N_3 
REMARK    2  A    between atoms: C_11  and  C_12 
REMARK    3  A    between atoms: C_14  and  O_15 
REMARK    4  A    between atoms: C_17  and  O_18 
REMARK    5  A    between atoms: O_18  and  C_19 
REMARK    6  A    between atoms: C_19  and  C_20 
REMARK    7  A    between atoms: C_31  and  O_32 
ROOT
HETATM    1  N   UNL     1       4.540  34.970  64.677  1.00  0.00    -0.067 N 
HETATM    2  H   UNL     1       4.621  35.734  65.358  1.00  0.00     0.280 HD
HETATM    3  C   UNL     1       5.799  35.056  63.810  1.00  0.00     0.281 C 
HETATM    4  C   UNL     1       5.626  34.273  62.554  1.00  0.00     0.018 A 
HETATM    5  C   UNL     1       4.409  33.892  62.017  1.00  0.00    -0.024 A 
HETATM    6  C   UNL     1       4.593  33.131  60.818  1.00  0.00     0.057 A 
HETATM    7  C   UNL     1       5.924  32.976  60.516  1.00  0.00     0.087 A 
HETATM    8  N   UNL     1       6.340  32.255  59.461  1.00  0.00    -0.357 N 
HETATM    9  C   UNL     1       5.355  31.882  58.456  1.00  0.00     0.243 C 
HETATM   10  N   UNL     1       3.934  31.904  58.845  1.00  0.00    -0.235 NA
HETATM   11  C   UNL     1       3.645  32.503  59.937  1.00  0.00     0.173 C 
HETATM   12  S   UNL     1       6.950  33.748  61.623  1.00  0.00    -0.074 SA
HETATM   13  C   UNL     1       3.112  34.227  62.696  1.00  0.00     0.068 C 
HETATM   14  C   UNL     1       3.303  35.259  63.825  1.00  0.00     0.240 C 
HETATM   15  H   UNL     1       7.304  32.275  59.144  1.00  0.00     0.162 HD
ENDROOT
BRANCH   9  16
HETATM   16  C   UNL     1       5.704  30.501  57.923  1.00  0.00    -0.012 A 
HETATM   17  C   UNL     1       7.009  29.988  58.059  1.00  0.00     0.050 A 
HETATM   18  C   UNL     1       7.321  28.693  57.633  1.00  0.00     0.102 A 
HETATM   19  C   UNL     1       6.302  27.895  57.089  1.00  0.00     0.112 A 
HETATM   20  C   UNL     1       5.011  28.394  56.925  1.00  0.00     0.041 A 
HETATM   21  C   UNL     1       4.714  29.692  57.347  1.00  0.00     0.014 A 
BRANCH  18  22
HETATM   22  O   UNL     1       8.559  28.113  57.726  1.00  0.00    -0.353 OA
HETATM   23  C   UNL     1       9.618  28.713  56.992  1.00  0.00     0.210 C 
ENDBRANCH  18  22
BRANCH  19  24
HETATM   24  O   UNL     1       6.678  26.570  56.737  1.00  0.00    -0.272 OA
BRANCH  24  25
HETATM   25  C   UNL     1       7.115  26.156  55.491  1.00  0.00     0.300 C 
HETATM   26  O   UNL     1       7.321  26.823  54.491  1.00  0.00    -0.259 OA
BRANCH  25  27
HETATM   27  C   UNL     1       7.419  24.718  55.573  1.00  0.00     0.061 A 
HETATM   28  C   UNL     1       7.086  23.820  54.553  1.00  0.00     0.050 A 
HETATM   29 CL   UNL     1       6.320  24.307  53.084  1.00  0.00    -0.083 Cl
HETATM   30  C   UNL     1       7.425  22.469  54.689  1.00  0.00     0.025 A 
HETATM   31  C   UNL     1       8.098  22.021  55.828  1.00  0.00     0.002 A 
HETATM   32  C   UNL     1       8.447  22.922  56.834  1.00  0.00     0.001 A 
HETATM   33  C   UNL     1       8.114  24.271  56.706  1.00  0.00     0.019 A 
ENDBRANCH  25  27
ENDBRANCH  24  25
ENDBRANCH  19  24
ENDBRANCH   9  16
BRANCH  11  34
HETATM   34  O   UNL     1       2.354  32.551  60.310  1.00  0.00    -0.344 OA
HETATM   35  H   UNL     1       2.026  31.634  60.279  1.00  0.00     0.219 HD
ENDBRANCH  11  34
BRANCH   1  36
HETATM   36  C   UNL     1       4.499  33.681  65.472  1.00  0.00     0.231 C 
HETATM   37  C   UNL     1       4.624  33.953  66.959  1.00  0.00     0.034 C 
ENDBRANCH   1  36
TORSDOF 7
ENDMDL
MODEL 6
REMARK VINA RESULT:      -9.2      4.048     10.991
REMARK  7 active torsions:
REMARK  status: ('A' for Active; 'I' for Inactive)
REMARK    1  A    between atoms: C_2  and  N_3 
REMARK    2  A    between atoms: C_11  and  C_12 
REMARK    3  A    between atoms: C_14  and  O_15 
REMARK    4  A    between atoms: C_17  and  O_18 
REMARK    5  A    between atoms: O_18  and  C_19 
REMARK    6  A    between atoms: C_19  and  C_20 
REMARK    7  A    between atoms: C_31  and  O_32 
ROOT
HETATM    1  N   UNL     1       6.455  24.253  52.537  1.00  0.00    -0.067 N 
HETATM    2  H   UNL     1       6.585  23.696  51.683  1.00  0.00     0.280 HD
HETATM    3  C   UNL     1       7.273  25.529  52.324  1.00  0.00     0.281 C 
HETATM    4  C   UNL     1       7.493  26.233  53.618  1.00  0.00     0.018 A 
HETATM    5  C   UNL     1       7.386  25.649  54.868  1.00  0.00    -0.024 A 
HETATM    6  C   UNL     1       7.637  26.605  55.904  1.00  0.00     0.057 A 
HETATM    7  C   UNL     1       7.917  27.848  55.389  1.00  0.00     0.087 A 
HETATM    8  N   UNL     1       8.137  28.916  56.175  1.00  0.00    -0.357 N 
HETATM    9  C   UNL     1       8.378  28.685  57.592  1.00  0.00     0.243 C 
HETATM   10  N   UNL     1       7.930  27.403  58.164  1.00  0.00    -0.235 NA
HETATM   11  C   UNL     1       7.612  26.482  57.337  1.00  0.00     0.173 C 
HETATM   12  S   UNL     1       7.911  27.881  53.694  1.00  0.00    -0.074 SA
HETATM   13  C   UNL     1       6.997  24.208  55.030  1.00  0.00     0.068 C 
HETATM   14  C   UNL     1       7.047  23.444  53.693  1.00  0.00     0.240 C 
HETATM   15  H   UNL     1       8.502  29.788  55.805  1.00  0.00     0.162 HD
ENDROOT
BRANCH   9  16
HETATM   16  C   UNL     1       7.758  29.827  58.382  1.00  0.00    -0.012 A 
HETATM   17  C   UNL     1       8.349  30.274  59.581  1.00  0.00     0.050 A 
HETATM   18  C   UNL     1       7.825  31.367  60.277  1.00  0.00     0.102 A 
HETATM   19  C   UNL     1       6.709  32.036  59.749  1.00  0.00     0.112 A 
HETATM   20  C   UNL     1       6.097  31.593  58.578  1.00  0.00     0.041 A 
HETATM   21  C   UNL     1       6.625  30.495  57.895  1.00  0.00     0.014 A 
BRANCH  18  22
HETATM   22  O   UNL     1       8.333  31.870  61.446  1.00  0.00    -0.353 OA
HETATM   23  C   UNL     1       8.340  31.011  62.578  1.00  0.00     0.210 C 
ENDBRANCH  18  22
BRANCH  19  24
HETATM   24  O   UNL     1       6.271  33.174  60.477  1.00  0.00    -0.272 OA
BRANCH  24  25
HETATM   25  C   UNL     1       5.256  33.193  61.419  1.00  0.00     0.300 C 
HETATM   26  O   UNL     1       4.584  32.266  61.838  1.00  0.00    -0.259 OA
BRANCH  25  27
HETATM   27  C   UNL     1       5.164  34.559  61.958  1.00  0.00     0.061 A 
HETATM   28  C   UNL     1       5.816  34.950  63.133  1.00  0.00     0.050 A 
HETATM   29 CL   UNL     1       6.822  33.884  64.048  1.00  0.00    -0.083 Cl
HETATM   30  C   UNL     1       5.702  36.272  63.577  1.00  0.00     0.025 A 
HETATM   31  C   UNL     1       4.951  37.198  62.849  1.00  0.00     0.002 A 
HETATM   32  C   UNL     1       4.319  36.812  61.668  1.00  0.00     0.001 A 
HETATM   33  C   UNL     1       4.428  35.496  61.218  1.00  0.00     0.019 A 
ENDBRANCH  25  27
ENDBRANCH  24  25
ENDBRANCH  19  24
ENDBRANCH   9  16
BRANCH  11  34
HETATM   34  O   UNL     1       7.214  25.297  57.832  1.00  0.00    -0.344 OA
HETATM   35  H   UNL     1       7.484  24.624  57.180  1.00  0.00     0.219 HD
ENDBRANCH  11  34
BRANCH   1  36
HETATM   36  C   UNL     1       4.973  24.551  52.640  1.00  0.00     0.231 C 
HETATM   37  C   UNL     1       4.620  25.825  51.895  1.00  0.00     0.034 C 
ENDBRANCH   1  36
TORSDOF 7
ENDMDL
MODEL 7
REMARK VINA RESULT:      -9.1      6.062      9.171
REMARK  7 active torsions:
REMARK  status: ('A' for Active; 'I' for Inactive)
REMARK    1  A    between atoms: C_2  and  N_3 
REMARK    2  A    between atoms: C_11  and  C_12 
REMARK    3  A    between atoms: C_14  and  O_15 
REMARK    4  A    between atoms: C_17  and  O_18 
REMARK    5  A    between atoms: O_18  and  C_19 
REMARK    6  A    between atoms: C_19  and  C_20 
REMARK    7  A    between atoms: C_31  and  O_32 
ROOT
HETATM    1  N   UNL     1       4.746  32.946  47.680  1.00  0.00    -0.067 N 
HETATM    2  H   UNL     1       4.490  33.490  46.847  1.00  0.00     0.280 HD
HETATM    3  C   UNL     1       4.030  31.601  47.530  1.00  0.00     0.281 C 
HETATM    4  C   UNL     1       3.992  30.879  48.833  1.00  0.00     0.018 A 
HETATM    5  C   UNL     1       4.160  31.469  50.073  1.00  0.00    -0.024 A 
HETATM    6  C   UNL     1       4.091  30.494  51.119  1.00  0.00     0.057 A 
HETATM    7  C   UNL     1       3.879  29.231  50.621  1.00  0.00     0.087 A 
HETATM    8  N   UNL     1       3.828  28.148  51.414  1.00  0.00    -0.357 N 
HETATM    9  C   UNL     1       3.697  28.355  52.848  1.00  0.00     0.243 C 
HETATM   10  N   UNL     1       4.079  29.671  53.389  1.00  0.00    -0.235 NA
HETATM   11  C   UNL     1       4.235  30.618  52.545  1.00  0.00     0.173 C 
HETATM   12  S   UNL     1       3.733  29.200  48.931  1.00  0.00    -0.074 SA
HETATM   13  C   UNL     1       4.431  32.940  50.212  1.00  0.00     0.068 C 
HETATM   14  C   UNL     1       4.191  33.697  48.892  1.00  0.00     0.240 C 
HETATM   15  H   UNL     1       3.511  27.246  51.070  1.00  0.00     0.162 HD
ENDROOT
BRANCH   9  16
HETATM   16  C   UNL     1       4.487  27.273  53.569  1.00  0.00    -0.012 A 
HETATM   17  C   UNL     1       4.906  27.458  54.902  1.00  0.00     0.050 A 
HETATM   18  C   UNL     1       5.572  26.442  55.594  1.00  0.00     0.102 A 
HETATM   19  C   UNL     1       5.796  25.216  54.948  1.00  0.00     0.112 A 
HETATM   20  C   UNL     1       5.410  25.024  53.623  1.00  0.00     0.041 A 
HETATM   21  C   UNL     1       4.753  26.049  52.939  1.00  0.00     0.014 A 
BRANCH  18  22
HETATM   22  O   UNL     1       6.013  26.534  56.888  1.00  0.00    -0.353 OA
HETATM   23  C   UNL     1       6.949  27.561  57.188  1.00  0.00     0.210 C 
ENDBRANCH  18  22
BRANCH  19  24
HETATM   24  O   UNL     1       6.422  24.211  55.734  1.00  0.00    -0.272 OA
BRANCH  24  25
HETATM   25  C   UNL     1       7.776  23.924  55.755  1.00  0.00     0.300 C 
HETATM   26  O   UNL     1       8.673  24.514  56.333  1.00  0.00    -0.259 OA
BRANCH  25  27
HETATM   27  C   UNL     1       7.984  22.665  55.023  1.00  0.00     0.061 A 
HETATM   28  C   UNL     1       8.223  21.448  55.671  1.00  0.00     0.050 A 
HETATM   29 CL   UNL     1       8.262  21.291  57.390  1.00  0.00    -0.083 Cl
HETATM   30  C   UNL     1       8.391  20.285  54.911  1.00  0.00     0.025 A 
HETATM   31  C   UNL     1       8.312  20.336  53.517  1.00  0.00     0.002 A 
HETATM   32  C   UNL     1       8.053  21.546  52.874  1.00  0.00     0.001 A 
HETATM   33  C   UNL     1       7.884  22.710  53.625  1.00  0.00     0.019 A 
ENDBRANCH  25  27
ENDBRANCH  24  25
ENDBRANCH  19  24
ENDBRANCH   9  16
BRANCH  11  34
HETATM   34  O   UNL     1       4.569  31.834  53.012  1.00  0.00    -0.344 OA
HETATM   35  H   UNL     1       5.530  31.812  53.170  1.00  0.00     0.219 HD
ENDBRANCH  11  34
BRANCH   1  36
HETATM   36  C   UNL     1       6.252  32.783  47.646  1.00  0.00     0.231 C 
HETATM   37  C   UNL     1       6.951  34.118  47.816  1.00  0.00     0.034 C 
ENDBRANCH   1  36
TORSDOF 7
ENDMDL
MODEL 8
REMARK VINA RESULT:      -9.1      4.159     10.504
REMARK  7 active torsions:
REMARK  status: ('A' for Active; 'I' for Inactive)
REMARK    1  A    between atoms: C_2  and  N_3 
REMARK    2  A    between atoms: C_11  and  C_12 
REMARK    3  A    between atoms: C_14  and  O_15 
REMARK    4  A    between atoms: C_17  and  O_18 
REMARK    5  A    between atoms: O_18  and  C_19 
REMARK    6  A    between atoms: C_19  and  C_20 
REMARK    7  A    between atoms: C_31  and  O_32 
ROOT
HETATM    1  N   UNL     1       7.940  23.310  54.569  1.00  0.00    -0.067 N 
HETATM    2  H   UNL     1       7.983  22.343  54.223  1.00  0.00     0.280 HD
HETATM    3  C   UNL     1       6.647  23.399  55.384  1.00  0.00     0.281 C 
HETATM    4  C   UNL     1       6.264  24.821  55.606  1.00  0.00     0.018 A 
HETATM    5  C   UNL     1       6.714  25.892  54.853  1.00  0.00    -0.024 A 
HETATM    6  C   UNL     1       6.175  27.126  55.342  1.00  0.00     0.057 A 
HETATM    7  C   UNL     1       5.357  26.926  56.428  1.00  0.00     0.087 A 
HETATM    8  N   UNL     1       4.778  27.944  57.085  1.00  0.00    -0.357 N 
HETATM    9  C   UNL     1       4.779  29.255  56.454  1.00  0.00     0.243 C 
HETATM   10  N   UNL     1       5.771  29.506  55.393  1.00  0.00    -0.235 NA
HETATM   11  C   UNL     1       6.373  28.485  54.914  1.00  0.00     0.173 C 
HETATM   12  S   UNL     1       5.202  25.290  56.850  1.00  0.00    -0.074 SA
HETATM   13  C   UNL     1       7.684  25.704  53.723  1.00  0.00     0.068 C 
HETATM   14  C   UNL     1       7.844  24.220  53.342  1.00  0.00     0.240 C 
HETATM   15  H   UNL     1       4.050  27.792  57.777  1.00  0.00     0.162 HD
ENDROOT
BRANCH   9  16
HETATM   16  C   UNL     1       4.929  30.315  57.534  1.00  0.00    -0.012 A 
HETATM   17  C   UNL     1       6.192  30.866  57.829  1.00  0.00     0.050 A 
HETATM   18  C   UNL     1       6.328  31.889  58.773  1.00  0.00     0.102 A 
HETATM   19  C   UNL     1       5.177  32.382  59.408  1.00  0.00     0.112 A 
HETATM   20  C   UNL     1       3.923  31.833  59.147  1.00  0.00     0.041 A 
HETATM   21  C   UNL     1       3.801  30.806  58.208  1.00  0.00     0.014 A 
BRANCH  18  22
HETATM   22  O   UNL     1       7.513  32.483  59.121  1.00  0.00    -0.353 OA
HETATM   23  C   UNL     1       8.557  31.636  59.581  1.00  0.00     0.210 C 
ENDBRANCH  18  22
BRANCH  19  24
HETATM   24  O   UNL     1       5.385  33.463  60.307  1.00  0.00    -0.272 OA
BRANCH  24  25
HETATM   25  C   UNL     1       4.706  33.671  61.495  1.00  0.00     0.300 C 
HETATM   26  O   UNL     1       3.506  33.777  61.682  1.00  0.00    -0.259 OA
BRANCH  25  27
HETATM   27  C   UNL     1       5.689  33.640  62.590  1.00  0.00     0.061 A 
HETATM   28  C   UNL     1       5.688  34.577  63.629  1.00  0.00     0.050 A 
HETATM   29 CL   UNL     1       4.516  35.840  63.754  1.00  0.00    -0.083 Cl
HETATM   30  C   UNL     1       6.640  34.475  64.649  1.00  0.00     0.025 A 
HETATM   31  C   UNL     1       7.579  33.441  64.637  1.00  0.00     0.002 A 
HETATM   32  C   UNL     1       7.565  32.496  63.612  1.00  0.00     0.001 A 
HETATM   33  C   UNL     1       6.619  32.590  62.591  1.00  0.00     0.019 A 
ENDBRANCH  25  27
ENDBRANCH  24  25
ENDBRANCH  19  24
ENDBRANCH   9  16
BRANCH  11  34
HETATM   34  O   UNL     1       7.273  28.682  53.935  1.00  0.00    -0.344 OA
HETATM   35  H   UNL     1       8.088  28.227  54.217  1.00  0.00     0.219 HD
ENDBRANCH  11  34
BRANCH   1  36
HETATM   36  C   UNL     1       9.163  23.515  55.440  1.00  0.00     0.231 C 
HETATM   37  C   UNL     1       8.815  23.378  56.910  1.00  0.00     0.034 C 
ENDBRANCH   1  36
TORSDOF 7
ENDMDL
MODEL 9
REMARK VINA RESULT:      -9.1      6.986     10.155
REMARK  7 active torsions:
REMARK  status: ('A' for Active; 'I' for Inactive)
REMARK    1  A    between atoms: C_2  and  N_3 
REMARK    2  A    between atoms: C_11  and  C_12 
REMARK    3  A    between atoms: C_14  and  O_15 
REMARK    4  A    between atoms: C_17  and  O_18 
REMARK    5  A    between atoms: O_18  and  C_19 
REMARK    6  A    between atoms: C_19  and  C_20 
REMARK    7  A    between atoms: C_31  and  O_32 
ROOT
HETATM    1  N   UNL     1       5.529  33.427  46.124  1.00  0.00    -0.067 N 
HETATM    2  H   UNL     1       5.317  34.040  45.327  1.00  0.00     0.280 HD
HETATM    3  C   UNL     1       4.627  32.202  45.953  1.00  0.00     0.281 C 
HETATM    4  C   UNL     1       4.543  31.431  47.225  1.00  0.00     0.018 A 
HETATM    5  C   UNL     1       4.842  31.933  48.480  1.00  0.00    -0.024 A 
HETATM    6  C   UNL     1       4.681  30.928  49.487  1.00  0.00     0.057 A 
HETATM    7  C   UNL     1       4.275  29.731  48.947  1.00  0.00     0.087 A 
HETATM    8  N   UNL     1       4.106  28.629  49.696  1.00  0.00    -0.357 N 
HETATM    9  C   UNL     1       4.065  28.784  51.143  1.00  0.00     0.243 C 
HETATM   10  N   UNL     1       4.648  30.008  51.719  1.00  0.00    -0.235 NA
HETATM   11  C   UNL     1       4.900  30.963  50.908  1.00  0.00     0.173 C 
HETATM   12  S   UNL     1       4.057  29.801  47.267  1.00  0.00    -0.074 SA
HETATM   13  C   UNL     1       5.321  33.344  48.666  1.00  0.00     0.068 C 
HETATM   14  C   UNL     1       5.135  34.189  47.391  1.00  0.00     0.240 C 
HETATM   15  H   UNL     1       3.652  27.796  49.331  1.00  0.00     0.162 HD
ENDROOT
BRANCH   9  16
HETATM   16  C   UNL     1       4.725  27.571  51.780  1.00  0.00    -0.012 A 
HETATM   17  C   UNL     1       5.033  27.561  53.156  1.00  0.00     0.050 A 
HETATM   18  C   UNL     1       5.576  26.425  53.763  1.00  0.00     0.102 A 
HETATM   19  C   UNL     1       5.789  25.276  52.984  1.00  0.00     0.112 A 
HETATM   20  C   UNL     1       5.513  25.275  51.618  1.00  0.00     0.041 A 
HETATM   21  C   UNL     1       4.977  26.419  51.021  1.00  0.00     0.014 A 
BRANCH  18  22
HETATM   22  O   UNL     1       5.905  26.326  55.090  1.00  0.00    -0.353 OA
HETATM   23  C   UNL     1       7.065  27.019  55.529  1.00  0.00     0.210 C 
ENDBRANCH  18  22
BRANCH  19  24
HETATM   24  O   UNL     1       6.284  24.142  53.682  1.00  0.00    -0.272 OA
BRANCH  24  25
HETATM   25  C   UNL     1       7.498  23.517  53.455  1.00  0.00     0.300 C 
HETATM   26  O   UNL     1       8.287  23.686  52.540  1.00  0.00    -0.259 OA
BRANCH  25  27
HETATM   27  C   UNL     1       7.776  22.637  54.602  1.00  0.00     0.061 A 
HETATM   28  C   UNL     1       7.933  21.253  54.467  1.00  0.00     0.050 A 
HETATM   29 CL   UNL     1       7.853  20.442  52.944  1.00  0.00    -0.083 Cl
HETATM   30  C   UNL     1       8.217  20.479  55.598  1.00  0.00     0.025 A 
HETATM   31  C   UNL     1       8.353  21.084  56.850  1.00  0.00     0.002 A 
HETATM   32  C   UNL     1       8.216  22.465  56.979  1.00  0.00     0.001 A 
HETATM   33  C   UNL     1       7.934  23.244  55.856  1.00  0.00     0.019 A 
ENDBRANCH  25  27
ENDBRANCH  24  25
ENDBRANCH  19  24
ENDBRANCH   9  16
BRANCH  11  34
HETATM   34  O   UNL     1       5.418  32.098  51.409  1.00  0.00    -0.344 OA
HETATM   35  H   UNL     1       6.155  32.345  50.820  1.00  0.00     0.219 HD
ENDBRANCH  11  34
BRANCH   1  36
HETATM   36  C   UNL     1       6.994  33.060  46.012  1.00  0.00     0.231 C 
HETATM   37  C   UNL     1       7.872  34.296  46.057  1.00  0.00     0.034 C 
ENDBRANCH   1  36
TORSDOF 7
ENDMDL
MODEL 10
REMARK VINA RESULT:      -9.0      2.903      3.794
REMARK  7 active torsions:
REMARK  status: ('A' for Active; 'I' for Inactive)
REMARK    1  A    between atoms: C_2  and  N_3 
REMARK    2  A    between atoms: C_11  and  C_12 
REMARK    3  A    between atoms: C_14  and  O_15 
REMARK    4  A    between atoms: C_17  and  O_18 
REMARK    5  A    between atoms: O_18  and  C_19 
REMARK    6  A    between atoms: C_19  and  C_20 
REMARK    7  A    between atoms: C_31  and  O_32 
ROOT
HETATM    1  N   UNL     1       4.219  36.851  61.799  1.00  0.00    -0.067 N 
HETATM    2  H   UNL     1       4.029  37.818  62.093  1.00  0.00     0.280 HD
HETATM    3  C   UNL     1       4.120  36.858  60.272  1.00  0.00     0.281 C 
HETATM    4  C   UNL     1       3.981  35.471  59.748  1.00  0.00     0.018 A 
HETATM    5  C   UNL     1       3.561  34.380  60.491  1.00  0.00    -0.024 A 
HETATM    6  C   UNL     1       3.561  33.188  59.697  1.00  0.00     0.057 A 
HETATM    7  C   UNL     1       3.976  33.437  58.411  1.00  0.00     0.087 A 
HETATM    8  N   UNL     1       4.103  32.459  57.498  1.00  0.00    -0.357 N 
HETATM    9  C   UNL     1       3.504  31.166  57.793  1.00  0.00     0.243 C 
HETATM   10  N   UNL     1       3.207  30.852  59.201  1.00  0.00    -0.235 NA
HETATM   11  C   UNL     1       3.238  31.826  60.028  1.00  0.00     0.173 C 
HETATM   12  S   UNL     1       4.338  35.071  58.134  1.00  0.00    -0.074 SA
HETATM   13  C   UNL     1       3.224  34.507  61.948  1.00  0.00     0.068 C 
HETATM   14  C   UNL     1       3.109  35.979  62.387  1.00  0.00     0.240 C 
HETATM   15  H   UNL     1       4.249  32.660  56.513  1.00  0.00     0.162 HD
ENDROOT
BRANCH   9  16
HETATM   16  C   UNL     1       4.395  30.076  57.218  1.00  0.00    -0.012 A 
HETATM   17  C   UNL     1       5.679  29.843  57.751  1.00  0.00     0.050 A 
HETATM   18  C   UNL     1       6.477  28.799  57.274  1.00  0.00     0.102 A 
HETATM   19  C   UNL     1       5.969  27.961  56.268  1.00  0.00     0.112 A 
HETATM   20  C   UNL     1       4.711  28.191  55.713  1.00  0.00     0.041 A 
HETATM   21  C   UNL     1       3.926  29.242  56.192  1.00  0.00     0.014 A 
BRANCH  18  22
HETATM   22  O   UNL     1       7.734  28.500  57.732  1.00  0.00    -0.353 OA
HETATM   23  C   UNL     1       8.566  29.587  58.114  1.00  0.00     0.210 C 
ENDBRANCH  18  22
BRANCH  19  24
HETATM   24  O   UNL     1       6.810  26.885  55.879  1.00  0.00    -0.272 OA
BRANCH  24  25
HETATM   25  C   UNL     1       6.622  25.551  56.200  1.00  0.00     0.300 C 
HETATM   26  O   UNL     1       6.057  25.070  57.168  1.00  0.00    -0.259 OA
BRANCH  25  27
HETATM   27  C   UNL     1       7.137  24.740  55.086  1.00  0.00     0.061 A 
HETATM   28  C   UNL     1       8.010  23.664  55.280  1.00  0.00     0.050 A 
HETATM   29 CL   UNL     1       8.542  23.155  56.842  1.00  0.00    -0.083 Cl
HETATM   30  C   UNL     1       8.444  22.922  54.176  1.00  0.00     0.025 A 
HETATM   31  C   UNL     1       8.003  23.246  52.891  1.00  0.00     0.002 A 
HETATM   32  C   UNL     1       7.117  24.306  52.701  1.00  0.00     0.001 A 
HETATM   33  C   UNL     1       6.679  25.051  53.797  1.00  0.00     0.019 A 
ENDBRANCH  25  27
ENDBRANCH  24  25
ENDBRANCH  19  24
ENDBRANCH   9  16
BRANCH  11  34
HETATM   34  O   UNL     1       2.956  31.572  61.318  1.00  0.00    -0.344 OA
HETATM   35  H   UNL     1       3.279  30.670  61.495  1.00  0.00     0.219 HD
ENDBRANCH  11  34
BRANCH   1  36
HETATM   36  C   UNL     1       5.623  36.524  62.264  1.00  0.00     0.231 C 
HETATM   37  C   UNL     1       5.704  36.493  63.779  1.00  0.00     0.034 C 
ENDBRANCH   1  36
TORSDOF 7
ENDMDL
