MODEL 1
REMARK VINA RESULT:      -8.4      0.000      0.000
REMARK  6 active torsions:
REMARK  status: ('A' for Active; 'I' for Inactive)
REMARK    1  A    between atoms: C_2  and  C_3 
REMARK    2  A    between atoms: C_4  and  O_5 
REMARK    3  A    between atoms: C_6  and  C_7 
REMARK       I    between atoms: C_7  and  N_8 
REMARK    4  A    between atoms: N_8  and  C_9 
REMARK    5  A    between atoms: C_9  and  C_10 
REMARK    6  A    between atoms: C_10  and  C_11 
ROOT
HETATM    1  C   UNL     1       7.112  25.452  56.405  1.00  0.00     0.254 C 
HETATM    2  N   UNL     1       7.924  26.543  56.595  1.00  0.00    -0.356 N 
HETATM    3  O   UNL     1       6.175  25.196  57.156  1.00  0.00    -0.268 OA
HETATM    4  H   UNL     1       8.658  26.702  55.909  1.00  0.00     0.162 HD
ENDROOT
BRANCH   1   5
HETATM    5  C   UNL     1       7.410  24.575  55.223  1.00  0.00     0.065 A 
HETATM    6  C   UNL     1       7.794  23.220  55.304  1.00  0.00     0.087 A 
HETATM    7  C   UNL     1       8.036  22.468  54.136  1.00  0.00    -0.024 A 
HETATM    8  C   UNL     1       7.926  23.105  52.890  1.00  0.00     0.010 A 
HETATM    9  C   UNL     1       7.564  24.448  52.799  1.00  0.00     0.002 A 
HETATM   10  C   UNL     1       7.303  25.174  53.959  1.00  0.00     0.020 A 
BRANCH   6  11
HETATM   11  O   UNL     1       7.927  22.634  56.539  1.00  0.00    -0.359 OA
HETATM   12  H   UNL     1       8.002  23.324  57.219  1.00  0.00     0.218 HD
ENDBRANCH   6  11
BRANCH   7  13
HETATM   13  C   UNL     1       8.411  21.004  54.154  1.00  0.00     0.037 C 
HETATM   14  C   UNL     1       8.238  20.352  52.790  1.00  0.00     0.010 C 
ENDBRANCH   7  13
ENDBRANCH   1   5
BRANCH   2  15
HETATM   15  C   UNL     1       7.717  27.492  57.670  1.00  0.00     0.136 C 
BRANCH  15  16
HETATM   16  C   UNL     1       7.293  28.909  57.180  1.00  0.00    -0.004 C 
HETATM   17  C   UNL     1       7.598  28.998  55.669  1.00  0.00     0.021 C 
HETATM   18  C   UNL     1       5.760  29.023  57.364  1.00  0.00     0.021 C 
BRANCH  16  19
HETATM   19  C   UNL     1       8.059  30.051  57.878  1.00  0.00    -0.046 A 
HETATM   20  C   UNL     1       7.423  30.911  58.788  1.00  0.00     0.027 A 
HETATM   21  C   UNL     1       8.150  31.924  59.400  1.00  0.00     0.116 A 
HETATM   22  N   UNL     1       9.463  32.140  59.188  1.00  0.00    -0.273 NA
HETATM   23  C   UNL     1      10.075  31.295  58.336  1.00  0.00     0.116 A 
HETATM   24  C   UNL     1       9.432  30.257  57.674  1.00  0.00     0.027 A 
ENDBRANCH  16  19
ENDBRANCH  15  16
ENDBRANCH   2  15
TORSDOF 6
ENDMDL
MODEL 2
REMARK VINA RESULT:      -8.4      1.425      1.977
REMARK  6 active torsions:
REMARK  status: ('A' for Active; 'I' for Inactive)
REMARK    1  A    between atoms: C_2  and  C_3 
REMARK    2  A    between atoms: C_4  and  O_5 
REMARK    3  A    between atoms: C_6  and  C_7 
REMARK       I    between atoms: C_7  and  N_8 
REMARK    4  A    between atoms: N_8  and  C_9 
REMARK    5  A    between atoms: C_9  and  C_10 
REMARK    6  A    between atoms: C_10  and  C_11 
ROOT
HETATM    1  C   UNL     1       7.041  25.766  54.314  1.00  0.00     0.254 C 
HETATM    2  N   UNL     1       7.643  26.448  55.342  1.00  0.00    -0.356 N 
HETATM    3  O   UNL     1       6.269  26.309  53.530  1.00  0.00    -0.268 OA
HETATM    4  H   UNL     1       8.295  25.931  55.926  1.00  0.00     0.162 HD
ENDROOT
BRANCH   1   5
HETATM    5  C   UNL     1       7.374  24.307  54.175  1.00  0.00     0.065 A 
HETATM    6  C   UNL     1       7.411  23.386  55.242  1.00  0.00     0.087 A 
HETATM    7  C   UNL     1       7.717  22.028  55.013  1.00  0.00    -0.024 A 
HETATM    8  C   UNL     1       8.021  21.618  53.705  1.00  0.00     0.010 A 
HETATM    9  C   UNL     1       8.003  22.523  52.646  1.00  0.00     0.002 A 
HETATM   10  C   UNL     1       7.676  23.857  52.880  1.00  0.00     0.020 A 
BRANCH   6  11
HETATM   11  O   UNL     1       7.142  23.825  56.516  1.00  0.00    -0.359 OA
HETATM   12  H   UNL     1       7.976  23.935  57.003  1.00  0.00     0.218 HD
ENDBRANCH   6  11
BRANCH   7  13
HETATM   13  C   UNL     1       7.734  20.985  56.106  1.00  0.00     0.037 C 
HETATM   14  C   UNL     1       9.121  20.393  56.312  1.00  0.00     0.010 C 
ENDBRANCH   7  13
ENDBRANCH   1   5
BRANCH   2  15
HETATM   15  C   UNL     1       7.441  27.867  55.559  1.00  0.00     0.136 C 
BRANCH  15  16
HETATM   16  C   UNL     1       7.518  28.287  57.058  1.00  0.00    -0.004 C 
HETATM   17  C   UNL     1       6.167  28.929  57.439  1.00  0.00     0.021 C 
HETATM   18  C   UNL     1       7.684  26.993  57.893  1.00  0.00     0.021 C 
BRANCH  16  19
HETATM   19  C   UNL     1       8.625  29.322  57.345  1.00  0.00    -0.046 A 
HETATM   20  C   UNL     1       8.452  30.331  58.306  1.00  0.00     0.027 A 
HETATM   21  C   UNL     1       9.475  31.241  58.539  1.00  0.00     0.116 A 
HETATM   22  N   UNL     1      10.661  31.218  57.901  1.00  0.00    -0.273 NA
HETATM   23  C   UNL     1      10.832  30.232  57.000  1.00  0.00     0.116 A 
HETATM   24  C   UNL     1       9.867  29.279  56.696  1.00  0.00     0.027 A 
ENDBRANCH  16  19
ENDBRANCH  15  16
ENDBRANCH   2  15
TORSDOF 6
ENDMDL
MODEL 3
REMARK VINA RESULT:      -8.2      1.643      2.295
REMARK  6 active torsions:
REMARK  status: ('A' for Active; 'I' for Inactive)
REMARK    1  A    between atoms: C_2  and  C_3 
REMARK    2  A    between atoms: C_4  and  O_5 
REMARK    3  A    between atoms: C_6  and  C_7 
REMARK       I    between atoms: C_7  and  N_8 
REMARK    4  A    between atoms: N_8  and  C_9 
REMARK    5  A    between atoms: C_9  and  C_10 
REMARK    6  A    between atoms: C_10  and  C_11 
ROOT
HETATM    1  C   UNL     1       8.401  24.468  57.431  1.00  0.00     0.254 C 
HETATM    2  N   UNL     1       7.509  25.474  57.154  1.00  0.00    -0.356 N 
HETATM    3  O   UNL     1       9.262  24.578  58.299  1.00  0.00    -0.268 OA
HETATM    4  H   UNL     1       6.805  25.291  56.442  1.00  0.00     0.162 HD
ENDROOT
BRANCH   1   5
HETATM    5  C   UNL     1       8.279  23.205  56.627  1.00  0.00     0.065 A 
HETATM    6  C   UNL     1       8.130  23.155  55.226  1.00  0.00     0.087 A 
HETATM    7  C   UNL     1       8.041  21.919  54.553  1.00  0.00    -0.024 A 
HETATM    8  C   UNL     1       8.065  20.737  55.311  1.00  0.00     0.010 A 
HETATM    9  C   UNL     1       8.195  20.775  56.698  1.00  0.00     0.002 A 
HETATM   10  C   UNL     1       8.307  22.002  57.349  1.00  0.00     0.020 A 
BRANCH   6  11
HETATM   11  O   UNL     1       8.076  24.329  54.515  1.00  0.00    -0.359 OA
HETATM   12  H   UNL     1       8.683  24.977  54.911  1.00  0.00     0.218 HD
ENDBRANCH   6  11
BRANCH   7  13
HETATM   13  C   UNL     1       7.921  21.797  53.051  1.00  0.00     0.037 C 
HETATM   14  C   UNL     1       8.349  20.424  52.552  1.00  0.00     0.010 C 
ENDBRANCH   7  13
ENDBRANCH   1   5
BRANCH   2  15
HETATM   15  C   UNL     1       7.491  26.725  57.885  1.00  0.00     0.136 C 
BRANCH  15  16
HETATM   16  C   UNL     1       7.390  27.983  56.971  1.00  0.00    -0.004 C 
HETATM   17  C   UNL     1       7.580  27.522  55.509  1.00  0.00     0.021 C 
HETATM   18  C   UNL     1       5.953  28.542  57.111  1.00  0.00     0.021 C 
BRANCH  16  19
HETATM   19  C   UNL     1       8.469  29.043  57.270  1.00  0.00    -0.046 A 
HETATM   20  C   UNL     1       8.385  29.877  58.395  1.00  0.00     0.027 A 
HETATM   21  C   UNL     1       9.381  30.816  58.632  1.00  0.00     0.116 A 
HETATM   22  N   UNL     1      10.461  30.980  57.844  1.00  0.00    -0.273 NA
HETATM   23  C   UNL     1      10.552  30.158  56.781  1.00  0.00     0.116 A 
HETATM   24  C   UNL     1       9.605  29.193  56.460  1.00  0.00     0.027 A 
ENDBRANCH  16  19
ENDBRANCH  15  16
ENDBRANCH   2  15
TORSDOF 6
ENDMDL
MODEL 4
REMARK VINA RESULT:      -8.2      2.236      7.957
REMARK  6 active torsions:
REMARK  status: ('A' for Active; 'I' for Inactive)
REMARK    1  A    between atoms: C_2  and  C_3 
REMARK    2  A    between atoms: C_4  and  O_5 
REMARK    3  A    between atoms: C_6  and  C_7 
REMARK       I    between atoms: C_7  and  N_8 
REMARK    4  A    between atoms: N_8  and  C_9 
REMARK    5  A    between atoms: C_9  and  C_10 
REMARK    6  A    between atoms: C_10  and  C_11 
ROOT
HETATM    1  C   UNL     1       7.187  28.169  57.147  1.00  0.00     0.254 C 
HETATM    2  N   UNL     1       7.518  27.068  56.397  1.00  0.00    -0.356 N 
HETATM    3  O   UNL     1       6.042  28.375  57.538  1.00  0.00    -0.268 OA
HETATM    4  H   UNL     1       8.496  26.954  56.141  1.00  0.00     0.162 HD
ENDROOT
BRANCH   1   5
HETATM    5  C   UNL     1       8.296  29.124  57.484  1.00  0.00     0.065 A 
HETATM    6  C   UNL     1       8.186  30.196  58.394  1.00  0.00     0.087 A 
HETATM    7  C   UNL     1       9.289  31.032  58.663  1.00  0.00    -0.024 A 
HETATM    8  C   UNL     1      10.491  30.801  57.975  1.00  0.00     0.010 A 
HETATM    9  C   UNL     1      10.607  29.756  57.061  1.00  0.00     0.002 A 
HETATM   10  C   UNL     1       9.517  28.921  56.822  1.00  0.00     0.020 A 
BRANCH   6  11
HETATM   11  O   UNL     1       6.986  30.417  59.026  1.00  0.00    -0.359 OA
HETATM   12  H   UNL     1       6.825  29.711  59.673  1.00  0.00     0.218 HD
ENDBRANCH   6  11
BRANCH   7  13
HETATM   13  C   UNL     1       9.247  32.170  59.656  1.00  0.00     0.037 C 
HETATM   14  C   UNL     1       9.600  31.715  61.064  1.00  0.00     0.010 C 
ENDBRANCH   7  13
ENDBRANCH   1   5
BRANCH   2  15
HETATM   15  C   UNL     1       6.552  26.048  56.041  1.00  0.00     0.136 C 
BRANCH  15  16
HETATM   16  C   UNL     1       6.802  25.413  54.640  1.00  0.00    -0.004 C 
HETATM   17  C   UNL     1       5.427  25.117  54.002  1.00  0.00     0.021 C 
HETATM   18  C   UNL     1       7.512  26.478  53.769  1.00  0.00     0.021 C 
BRANCH  16  19
HETATM   19  C   UNL     1       7.582  24.084  54.703  1.00  0.00    -0.046 A 
HETATM   20  C   UNL     1       8.010  23.429  53.537  1.00  0.00     0.027 A 
HETATM   21  C   UNL     1       8.715  22.237  53.637  1.00  0.00     0.116 A 
HETATM   22  N   UNL     1       9.038  21.651  54.806  1.00  0.00    -0.273 NA
HETATM   23  C   UNL     1       8.649  22.296  55.922  1.00  0.00     0.116 A 
HETATM   24  C   UNL     1       7.938  23.490  55.923  1.00  0.00     0.027 A 
ENDBRANCH  16  19
ENDBRANCH  15  16
ENDBRANCH   2  15
TORSDOF 6
ENDMDL
MODEL 5
REMARK VINA RESULT:      -8.0      4.888      8.195
REMARK  6 active torsions:
REMARK  status: ('A' for Active; 'I' for Inactive)
REMARK    1  A    between atoms: C_2  and  C_3 
REMARK    2  A    between atoms: C_4  and  O_5 
REMARK    3  A    between atoms: C_6  and  C_7 
REMARK       I    between atoms: C_7  and  N_8 
REMARK    4  A    between atoms: N_8  and  C_9 
REMARK    5  A    between atoms: C_9  and  C_10 
REMARK    6  A    between atoms: C_10  and  C_11 
ROOT
HETATM    1  C   UNL     1       5.113  26.549  52.152  1.00  0.00     0.254 C 
HETATM    2  N   UNL     1       5.592  25.264  52.100  1.00  0.00    -0.356 N 
HETATM    3  O   UNL     1       4.796  27.087  53.209  1.00  0.00    -0.268 OA
HETATM    4  H   UNL     1       5.863  24.904  51.187  1.00  0.00     0.162 HD
ENDROOT
BRANCH   1   5
HETATM    5  C   UNL     1       4.997  27.289  50.850  1.00  0.00     0.065 A 
HETATM    6  C   UNL     1       4.412  26.768  49.678  1.00  0.00     0.087 A 
HETATM    7  C   UNL     1       4.331  27.545  48.504  1.00  0.00    -0.024 A 
HETATM    8  C   UNL     1       4.880  28.837  48.513  1.00  0.00     0.010 A 
HETATM    9  C   UNL     1       5.475  29.356  49.661  1.00  0.00     0.002 A 
HETATM   10  C   UNL     1       5.528  28.589  50.822  1.00  0.00     0.020 A 
BRANCH   6  11
HETATM   11  O   UNL     1       3.914  25.487  49.690  1.00  0.00    -0.359 OA
HETATM   12  H   UNL     1       3.335  25.372  50.462  1.00  0.00     0.218 HD
ENDBRANCH   6  11
BRANCH   7  13
HETATM   13  C   UNL     1       3.681  27.059  47.229  1.00  0.00     0.037 C 
HETATM   14  C   UNL     1       2.180  27.311  47.219  1.00  0.00     0.010 C 
ENDBRANCH   7  13
ENDBRANCH   1   5
BRANCH   2  15
HETATM   15  C   UNL     1       5.793  24.457  53.286  1.00  0.00     0.136 C 
BRANCH  15  16
HETATM   16  C   UNL     1       7.294  24.241  53.648  1.00  0.00    -0.004 C 
HETATM   17  C   UNL     1       8.144  24.735  52.458  1.00  0.00     0.021 C 
HETATM   18  C   UNL     1       7.610  25.143  54.867  1.00  0.00     0.021 C 
BRANCH  16  19
HETATM   19  C   UNL     1       7.654  22.763  53.897  1.00  0.00    -0.046 A 
HETATM   20  C   UNL     1       7.644  22.214  55.189  1.00  0.00     0.027 A 
HETATM   21  C   UNL     1       7.970  20.876  55.371  1.00  0.00     0.116 A 
HETATM   22  N   UNL     1       8.293  20.038  54.367  1.00  0.00    -0.273 NA
HETATM   23  C   UNL     1       8.274  20.562  53.126  1.00  0.00     0.116 A 
HETATM   24  C   UNL     1       7.965  21.888  52.846  1.00  0.00     0.027 A 
ENDBRANCH  16  19
ENDBRANCH  15  16
ENDBRANCH   2  15
TORSDOF 6
ENDMDL
MODEL 6
REMARK VINA RESULT:      -8.0      4.895      8.405
REMARK  6 active torsions:
REMARK  status: ('A' for Active; 'I' for Inactive)
REMARK    1  A    between atoms: C_2  and  C_3 
REMARK    2  A    between atoms: C_4  and  O_5 
REMARK    3  A    between atoms: C_6  and  C_7 
REMARK       I    between atoms: C_7  and  N_8 
REMARK    4  A    between atoms: N_8  and  C_9 
REMARK    5  A    between atoms: C_9  and  C_10 
REMARK    6  A    between atoms: C_10  and  C_11 
ROOT
HETATM    1  C   UNL     1       5.120  26.563  52.134  1.00  0.00     0.254 C 
HETATM    2  N   UNL     1       5.662  25.304  52.057  1.00  0.00    -0.356 N 
HETATM    3  O   UNL     1       4.674  27.021  53.182  1.00  0.00    -0.268 OA
HETATM    4  H   UNL     1       6.039  25.013  51.158  1.00  0.00     0.162 HD
ENDROOT
BRANCH   1   5
HETATM    5  C   UNL     1       5.100  27.377  50.871  1.00  0.00     0.065 A 
HETATM    6  C   UNL     1       5.513  28.721  50.774  1.00  0.00     0.087 A 
HETATM    7  C   UNL     1       5.476  29.401  49.540  1.00  0.00    -0.024 A 
HETATM    8  C   UNL     1       4.982  28.724  48.413  1.00  0.00     0.010 A 
HETATM    9  C   UNL     1       4.554  27.401  48.501  1.00  0.00     0.002 A 
HETATM   10  C   UNL     1       4.619  26.732  49.721  1.00  0.00     0.020 A 
BRANCH   6  11
HETATM   11  O   UNL     1       5.960  29.368  51.901  1.00  0.00    -0.359 OA
HETATM   12  H   UNL     1       5.300  29.280  52.609  1.00  0.00     0.218 HD
ENDBRANCH   6  11
BRANCH   7  13
HETATM   13  C   UNL     1       5.942  30.828  49.362  1.00  0.00     0.037 C 
HETATM   14  C   UNL     1       4.800  31.825  49.498  1.00  0.00     0.010 C 
ENDBRANCH   7  13
ENDBRANCH   1   5
BRANCH   2  15
HETATM   15  C   UNL     1       5.781  24.435  53.210  1.00  0.00     0.136 C 
BRANCH  15  16
HETATM   16  C   UNL     1       7.252  24.217  53.679  1.00  0.00    -0.004 C 
HETATM   17  C   UNL     1       8.186  24.740  52.566  1.00  0.00     0.021 C 
HETATM   18  C   UNL     1       7.472  25.094  54.936  1.00  0.00     0.021 C 
BRANCH  16  19
HETATM   19  C   UNL     1       7.601  22.735  53.922  1.00  0.00    -0.046 A 
HETATM   20  C   UNL     1       7.939  21.878  52.863  1.00  0.00     0.027 A 
HETATM   21  C   UNL     1       8.253  20.550  53.125  1.00  0.00     0.116 A 
HETATM   22  N   UNL     1       8.269  20.012  54.359  1.00  0.00    -0.273 NA
HETATM   23  C   UNL     1       7.971  20.845  55.375  1.00  0.00     0.116 A 
HETATM   24  C   UNL     1       7.642  22.185  55.212  1.00  0.00     0.027 A 
ENDBRANCH  16  19
ENDBRANCH  15  16
ENDBRANCH   2  15
TORSDOF 6
ENDMDL
MODEL 7
REMARK VINA RESULT:      -7.8      1.636      2.730
REMARK  6 active torsions:
REMARK  status: ('A' for Active; 'I' for Inactive)
REMARK    1  A    between atoms: C_2  and  C_3 
REMARK    2  A    between atoms: C_4  and  O_5 
REMARK    3  A    between atoms: C_6  and  C_7 
REMARK       I    between atoms: C_7  and  N_8 
REMARK    4  A    between atoms: N_8  and  C_9 
REMARK    5  A    between atoms: C_9  and  C_10 
REMARK    6  A    between atoms: C_10  and  C_11 
ROOT
HETATM    1  C   UNL     1       7.113  25.368  56.430  1.00  0.00     0.254 C 
HETATM    2  N   UNL     1       7.879  26.484  56.659  1.00  0.00    -0.356 N 
HETATM    3  O   UNL     1       6.182  25.051  57.164  1.00  0.00    -0.268 OA
HETATM    4  H   UNL     1       8.611  26.695  55.985  1.00  0.00     0.162 HD
ENDROOT
BRANCH   1   5
HETATM    5  C   UNL     1       7.457  24.539  55.225  1.00  0.00     0.065 A 
HETATM    6  C   UNL     1       7.891  23.198  55.268  1.00  0.00     0.087 A 
HETATM    7  C   UNL     1       8.173  22.492  54.081  1.00  0.00    -0.024 A 
HETATM    8  C   UNL     1       8.051  23.163  52.853  1.00  0.00     0.010 A 
HETATM    9  C   UNL     1       7.639  24.493  52.800  1.00  0.00     0.002 A 
HETATM   10  C   UNL     1       7.339  25.173  53.978  1.00  0.00     0.020 A 
BRANCH   6  11
HETATM   11  O   UNL     1       8.033  22.579  56.486  1.00  0.00    -0.359 OA
HETATM   12  H   UNL     1       8.676  21.854  56.409  1.00  0.00     0.218 HD
ENDBRANCH   6  11
BRANCH   7  13
HETATM   13  C   UNL     1       8.603  21.043  54.058  1.00  0.00     0.037 C 
HETATM   14  C   UNL     1       8.300  20.377  52.723  1.00  0.00     0.010 C 
ENDBRANCH   7  13
ENDBRANCH   1   5
BRANCH   2  15
HETATM   15  C   UNL     1       7.625  27.391  57.760  1.00  0.00     0.136 C 
BRANCH  15  16
HETATM   16  C   UNL     1       7.510  28.884  57.327  1.00  0.00    -0.004 C 
HETATM   17  C   UNL     1       8.130  29.751  58.444  1.00  0.00     0.021 C 
HETATM   18  C   UNL     1       8.370  29.063  56.051  1.00  0.00     0.021 C 
BRANCH  16  19
HETATM   19  C   UNL     1       6.053  29.351  57.129  1.00  0.00    -0.046 A 
HETATM   20  C   UNL     1       5.555  30.492  57.778  1.00  0.00     0.027 A 
HETATM   21  C   UNL     1       4.238  30.882  57.568  1.00  0.00     0.116 A 
HETATM   22  N   UNL     1       3.383  30.234  56.754  1.00  0.00    -0.273 NA
HETATM   23  C   UNL     1       3.873  29.156  56.113  1.00  0.00     0.116 A 
HETATM   24  C   UNL     1       5.173  28.687  56.261  1.00  0.00     0.027 A 
ENDBRANCH  16  19
ENDBRANCH  15  16
ENDBRANCH   2  15
TORSDOF 6
ENDMDL
MODEL 8
REMARK VINA RESULT:      -7.7      1.538      2.057
REMARK  6 active torsions:
REMARK  status: ('A' for Active; 'I' for Inactive)
REMARK    1  A    between atoms: C_2  and  C_3 
REMARK    2  A    between atoms: C_4  and  O_5 
REMARK    3  A    between atoms: C_6  and  C_7 
REMARK       I    between atoms: C_7  and  N_8 
REMARK    4  A    between atoms: N_8  and  C_9 
REMARK    5  A    between atoms: C_9  and  C_10 
REMARK    6  A    between atoms: C_10  and  C_11 
ROOT
HETATM    1  C   UNL     1       6.461  25.448  56.285  1.00  0.00     0.254 C 
HETATM    2  N   UNL     1       7.172  26.336  57.053  1.00  0.00    -0.356 N 
HETATM    3  O   UNL     1       5.300  25.657  55.946  1.00  0.00    -0.268 OA
HETATM    4  H   UNL     1       8.140  26.102  57.262  1.00  0.00     0.162 HD
ENDROOT
BRANCH   1   5
HETATM    5  C   UNL     1       7.169  24.193  55.858  1.00  0.00     0.065 A 
HETATM    6  C   UNL     1       7.114  23.639  54.563  1.00  0.00     0.087 A 
HETATM    7  C   UNL     1       7.828  22.465  54.248  1.00  0.00    -0.024 A 
HETATM    8  C   UNL     1       8.568  21.835  55.263  1.00  0.00     0.010 A 
HETATM    9  C   UNL     1       8.616  22.365  56.550  1.00  0.00     0.002 A 
HETATM   10  C   UNL     1       7.926  23.539  56.843  1.00  0.00     0.020 A 
BRANCH   6  11
HETATM   11  O   UNL     1       6.354  24.259  53.601  1.00  0.00    -0.359 OA
HETATM   12  H   UNL     1       6.935  24.612  52.906  1.00  0.00     0.218 HD
ENDBRANCH   6  11
BRANCH   7  13
HETATM   13  C   UNL     1       7.841  21.844  52.871  1.00  0.00     0.037 C 
HETATM   14  C   UNL     1       8.328  20.402  52.897  1.00  0.00     0.010 C 
ENDBRANCH   7  13
ENDBRANCH   1   5
BRANCH   2  15
HETATM   15  C   UNL     1       6.621  27.602  57.493  1.00  0.00     0.136 C 
BRANCH  15  16
HETATM   16  C   UNL     1       7.507  28.830  57.128  1.00  0.00    -0.004 C 
HETATM   17  C   UNL     1       8.978  28.361  57.098  1.00  0.00     0.021 C 
HETATM   18  C   UNL     1       7.119  29.272  55.695  1.00  0.00     0.021 C 
BRANCH  16  19
HETATM   19  C   UNL     1       7.406  29.981  58.150  1.00  0.00    -0.046 A 
HETATM   20  C   UNL     1       6.399  30.954  58.059  1.00  0.00     0.027 A 
HETATM   21  C   UNL     1       6.339  31.972  59.003  1.00  0.00     0.116 A 
HETATM   22  N   UNL     1       7.194  32.089  60.037  1.00  0.00    -0.273 NA
HETATM   23  C   UNL     1       8.142  31.137  60.136  1.00  0.00     0.116 A 
HETATM   24  C   UNL     1       8.284  30.085  59.239  1.00  0.00     0.027 A 
ENDBRANCH  16  19
ENDBRANCH  15  16
ENDBRANCH   2  15
TORSDOF 6
ENDMDL
MODEL 9
REMARK VINA RESULT:      -7.5      5.868      8.656
REMARK  6 active torsions:
REMARK  status: ('A' for Active; 'I' for Inactive)
REMARK    1  A    between atoms: C_2  and  C_3 
REMARK    2  A    between atoms: C_4  and  O_5 
REMARK    3  A    between atoms: C_6  and  C_7 
REMARK       I    between atoms: C_7  and  N_8 
REMARK    4  A    between atoms: N_8  and  C_9 
REMARK    5  A    between atoms: C_9  and  C_10 
REMARK    6  A    between atoms: C_10  and  C_11 
ROOT
HETATM    1  C   UNL     1       5.040  27.020  50.050  1.00  0.00     0.254 C 
HETATM    2  N   UNL     1       5.436  25.887  50.717  1.00  0.00    -0.356 N 
HETATM    3  O   UNL     1       5.508  28.126  50.303  1.00  0.00    -0.268 OA
HETATM    4  H   UNL     1       5.024  25.005  50.423  1.00  0.00     0.162 HD
ENDROOT
BRANCH   1   5
HETATM    5  C   UNL     1       4.005  26.853  48.975  1.00  0.00     0.065 A 
HETATM    6  C   UNL     1       3.134  27.870  48.532  1.00  0.00     0.087 A 
HETATM    7  C   UNL     1       2.203  27.627  47.502  1.00  0.00    -0.024 A 
HETATM    8  C   UNL     1       2.133  26.338  46.949  1.00  0.00     0.010 A 
HETATM    9  C   UNL     1       2.977  25.320  47.390  1.00  0.00     0.002 A 
HETATM   10  C   UNL     1       3.910  25.580  48.392  1.00  0.00     0.020 A 
BRANCH   6  11
HETATM   11  O   UNL     1       3.203  29.112  49.116  1.00  0.00    -0.359 OA
HETATM   12  H   UNL     1       3.837  29.665  48.630  1.00  0.00     0.218 HD
ENDBRANCH   6  11
BRANCH   7  13
HETATM   13  C   UNL     1       1.271  28.684  46.956  1.00  0.00     0.037 C 
HETATM   14  C   UNL     1       0.061  28.077  46.260  1.00  0.00     0.010 C 
ENDBRANCH   7  13
ENDBRANCH   1   5
BRANCH   2  15
HETATM   15  C   UNL     1       6.458  25.904  51.744  1.00  0.00     0.136 C 
BRANCH  15  16
HETATM   16  C   UNL     1       5.980  25.327  53.111  1.00  0.00    -0.004 C 
HETATM   17  C   UNL     1       5.964  26.483  54.133  1.00  0.00     0.021 C 
HETATM   18  C   UNL     1       4.523  24.837  52.922  1.00  0.00     0.021 C 
BRANCH  16  19
HETATM   19  C   UNL     1       6.907  24.226  53.665  1.00  0.00    -0.046 A 
HETATM   20  C   UNL     1       6.974  23.949  55.040  1.00  0.00     0.027 A 
HETATM   21  C   UNL     1       7.818  22.945  55.499  1.00  0.00     0.116 A 
HETATM   22  N   UNL     1       8.591  22.188  54.696  1.00  0.00    -0.273 NA
HETATM   23  C   UNL     1       8.502  22.439  53.376  1.00  0.00     0.116 A 
HETATM   24  C   UNL     1       7.691  23.423  52.824  1.00  0.00     0.027 A 
ENDBRANCH  16  19
ENDBRANCH  15  16
ENDBRANCH   2  15
TORSDOF 6
ENDMDL
MODEL 10
REMARK VINA RESULT:      -7.5      2.451      8.131
REMARK  6 active torsions:
REMARK  status: ('A' for Active; 'I' for Inactive)
REMARK    1  A    between atoms: C_2  and  C_3 
REMARK    2  A    between atoms: C_4  and  O_5 
REMARK    3  A    between atoms: C_6  and  C_7 
REMARK       I    between atoms: C_7  and  N_8 
REMARK    4  A    between atoms: N_8  and  C_9 
REMARK    5  A    between atoms: C_9  and  C_10 
REMARK    6  A    between atoms: C_10  and  C_11 
ROOT
HETATM    1  C   UNL     1       7.546  27.593  54.848  1.00  0.00     0.254 C 
HETATM    2  N   UNL     1       7.675  26.289  55.256  1.00  0.00    -0.356 N 
HETATM    3  O   UNL     1       7.699  27.931  53.678  1.00  0.00    -0.268 OA
HETATM    4  H   UNL     1       7.499  26.088  56.238  1.00  0.00     0.162 HD
ENDROOT
BRANCH   1   5
HETATM    5  C   UNL     1       7.196  28.608  55.899  1.00  0.00     0.065 A 
HETATM    6  C   UNL     1       7.921  28.813  57.091  1.00  0.00     0.087 A 
HETATM    7  C   UNL     1       7.527  29.804  58.014  1.00  0.00    -0.024 A 
HETATM    8  C   UNL     1       6.374  30.558  57.741  1.00  0.00     0.010 A 
HETATM    9  C   UNL     1       5.640  30.351  56.575  1.00  0.00     0.002 A 
HETATM   10  C   UNL     1       6.053  29.386  55.659  1.00  0.00     0.020 A 
BRANCH   6  11
HETATM   11  O   UNL     1       9.025  28.037  57.346  1.00  0.00    -0.359 OA
HETATM   12  H   UNL     1       9.561  28.452  58.042  1.00  0.00     0.218 HD
ENDBRANCH   6  11
BRANCH   7  13
HETATM   13  C   UNL     1       8.284  30.100  59.288  1.00  0.00     0.037 C 
HETATM   14  C   UNL     1       7.845  31.412  59.923  1.00  0.00     0.010 C 
ENDBRANCH   7  13
ENDBRANCH   1   5
BRANCH   2  15
HETATM   15  C   UNL     1       7.966  25.209  54.335  1.00  0.00     0.136 C 
BRANCH  15  16
HETATM   16  C   UNL     1       6.872  24.099  54.308  1.00  0.00    -0.004 C 
HETATM   17  C   UNL     1       6.049  24.213  55.609  1.00  0.00     0.021 C 
HETATM   18  C   UNL     1       5.929  24.407  53.119  1.00  0.00     0.021 C 
BRANCH  16  19
HETATM   19  C   UNL     1       7.453  22.671  54.248  1.00  0.00    -0.046 A 
HETATM   20  C   UNL     1       7.809  22.077  53.027  1.00  0.00     0.027 A 
HETATM   21  C   UNL     1       8.334  20.791  53.016  1.00  0.00     0.116 A 
HETATM   22  N   UNL     1       8.545  20.056  54.124  1.00  0.00    -0.273 NA
HETATM   23  C   UNL     1       8.228  20.641  55.296  1.00  0.00     0.116 A 
HETATM   24  C   UNL     1       7.694  21.919  55.407  1.00  0.00     0.027 A 
ENDBRANCH  16  19
ENDBRANCH  15  16
ENDBRANCH   2  15
TORSDOF 6
ENDMDL
