MODEL 1
REMARK VINA RESULT:     -11.5      0.000      0.000
REMARK  6 active torsions:
REMARK  status: ('A' for Active; 'I' for Inactive)
REMARK    1  A    between atoms: C_5  and  N_6 
REMARK    2  A    between atoms: C_17  and  N_18 
REMARK    3  A    between atoms: C_17  and  C_29 
REMARK       I    between atoms: N_18  and  C_19 
REMARK    4  A    between atoms: C_19  and  C_20 
REMARK    5  A    between atoms: C_20  and  C_21 
REMARK    6  A    between atoms: C_21  and  C_22 
ROOT
HETATM    1  N   UNL     1       8.826  30.594  58.543  1.00  0.00    -0.248 N 
HETATM    2  C   UNL     1      10.004  31.020  57.885  1.00  0.00     0.335 A 
HETATM    3  O   UNL     1      10.837  31.814  58.319  1.00  0.00    -0.246 OA
HETATM    4  N   UNL     1      10.244  30.450  56.650  1.00  0.00    -0.274 N 
HETATM    5  C   UNL     1       9.515  29.474  56.036  1.00  0.00     0.262 A 
HETATM    6  O   UNL     1       9.834  28.947  54.981  1.00  0.00    -0.267 OA
HETATM    7  C   UNL     1       8.305  29.109  56.737  1.00  0.00     0.101 A 
HETATM    8  C   UNL     1       8.022  29.659  57.918  1.00  0.00     0.134 A 
HETATM    9  N   UNL     1       6.811  29.196  58.330  1.00  0.00    -0.309 N 
HETATM   10  C   UNL     1       6.289  28.261  57.444  1.00  0.00     0.266 A 
HETATM   11  O   UNL     1       5.259  27.630  57.623  1.00  0.00    -0.270 OA
HETATM   12  C   UNL     1       7.239  28.180  56.239  1.00  0.00     0.249 A 
HETATM   13  H   UNL     1      11.109  30.725  56.208  1.00  0.00     0.173 HD
HETATM   14  H   UNL     1       6.340  29.443  59.189  1.00  0.00     0.170 HD
ENDROOT
BRANCH  12  15
HETATM   15  N   UNL     1       7.743  26.820  55.969  1.00  0.00    -0.332 N 
HETATM   16  C   UNL     1       8.156  25.953  56.950  1.00  0.00     0.219 C 
HETATM   17  O   UNL     1       8.034  26.188  58.146  1.00  0.00    -0.274 OA
HETATM   18  H   UNL     1       8.017  26.620  55.012  1.00  0.00     0.164 HD
BRANCH  16  19
HETATM   19  C   UNL     1       8.830  24.707  56.424  1.00  0.00     0.107 C 
BRANCH  19  20
HETATM   20  C   UNL     1       7.899  23.505  56.577  1.00  0.00     0.047 C 
BRANCH  20  21
HETATM   21  C   UNL     1       7.895  22.611  55.361  1.00  0.00    -0.058 A 
HETATM   22  C   UNL     1       7.900  23.166  54.073  1.00  0.00     0.007 A 
HETATM   23  C   UNL     1       7.910  22.341  52.947  1.00  0.00     0.001 A 
HETATM   24  C   UNL     1       7.915  20.956  53.095  1.00  0.00     0.000 A 
HETATM   25  C   UNL     1       7.915  20.394  54.370  1.00  0.00     0.001 A 
HETATM   26  C   UNL     1       7.907  21.216  55.498  1.00  0.00     0.007 A 
ENDBRANCH  20  21
ENDBRANCH  19  20
ENDBRANCH  16  19
ENDBRANCH  12  15
BRANCH  12  27
HETATM   27  C   UNL     1       6.449  28.789  55.072  1.00  0.00     0.426 C 
HETATM   28  F   UNL     1       7.104  28.697  53.892  1.00  0.00    -0.167 F 
HETATM   29  F   UNL     1       5.259  28.159  54.913  1.00  0.00    -0.167 F 
HETATM   30  F   UNL     1       6.156  30.093  55.280  1.00  0.00    -0.167 F 
ENDBRANCH  12  27
BRANCH   1  31
HETATM   31  C   UNL     1       8.522  31.150  59.836  1.00  0.00     0.045 A 
HETATM   32  C   UNL     1       9.035  30.573  61.005  1.00  0.00     0.031 A 
HETATM   33  C   UNL     1       8.778  31.133  62.261  1.00  0.00     0.009 A 
HETATM   34  C   UNL     1       7.982  32.275  62.379  1.00  0.00    -0.062 A 
HETATM   35  C   UNL     1       7.740  32.893  63.724  1.00  0.00     0.048 C 
HETATM   36  C   UNL     1       7.456  32.852  61.220  1.00  0.00     0.009 A 
HETATM   37  C   UNL     1       7.716  32.290  59.964  1.00  0.00     0.031 A 
ENDBRANCH   1  31
TORSDOF 6
ENDMDL
MODEL 2
REMARK VINA RESULT:      -9.9      3.066      4.662
REMARK  6 active torsions:
REMARK  status: ('A' for Active; 'I' for Inactive)
REMARK    1  A    between atoms: C_5  and  N_6 
REMARK    2  A    between atoms: C_17  and  N_18 
REMARK    3  A    between atoms: C_17  and  C_29 
REMARK       I    between atoms: N_18  and  C_19 
REMARK    4  A    between atoms: C_19  and  C_20 
REMARK    5  A    between atoms: C_20  and  C_21 
REMARK    6  A    between atoms: C_21  and  C_22 
ROOT
HETATM    1  N   UNL     1       5.696  31.097  57.175  1.00  0.00    -0.248 N 
HETATM    2  C   UNL     1       5.825  31.503  58.525  1.00  0.00     0.335 A 
HETATM    3  O   UNL     1       5.067  32.254  59.137  1.00  0.00    -0.246 OA
HETATM    4  N   UNL     1       6.892  30.965  59.217  1.00  0.00    -0.274 N 
HETATM    5  C   UNL     1       7.782  30.035  58.767  1.00  0.00     0.262 A 
HETATM    6  O   UNL     1       8.652  29.530  59.462  1.00  0.00    -0.267 OA
HETATM    7  C   UNL     1       7.625  29.689  57.372  1.00  0.00     0.101 A 
HETATM    8  C   UNL     1       6.624  30.212  56.661  1.00  0.00     0.134 A 
HETATM    9  N   UNL     1       6.738  29.778  55.377  1.00  0.00    -0.309 N 
HETATM   10  C   UNL     1       7.796  28.890  55.224  1.00  0.00     0.266 A 
HETATM   11  O   UNL     1       8.060  28.290  54.194  1.00  0.00    -0.270 OA
HETATM   12  C   UNL     1       8.538  28.814  56.568  1.00  0.00     0.249 A 
HETATM   13  H   UNL     1       6.950  31.223  60.191  1.00  0.00     0.173 HD
HETATM   14  H   UNL     1       6.121  30.013  54.612  1.00  0.00     0.170 HD
ENDROOT
BRANCH  12  15
HETATM   15  N   UNL     1       8.649  27.447  57.110  1.00  0.00    -0.332 N 
HETATM   16  C   UNL     1       7.614  26.545  57.115  1.00  0.00     0.219 C 
HETATM   17  O   UNL     1       6.540  26.754  56.563  1.00  0.00    -0.274 OA
HETATM   18  H   UNL     1       9.442  27.262  57.715  1.00  0.00     0.164 HD
BRANCH  16  19
HETATM   19  C   UNL     1       7.895  25.292  57.912  1.00  0.00     0.107 C 
BRANCH  19  20
HETATM   20  C   UNL     1       9.051  24.519  57.280  1.00  0.00     0.047 C 
BRANCH  20  21
HETATM   21  C   UNL     1       8.584  23.440  56.334  1.00  0.00    -0.058 A 
HETATM   22  C   UNL     1       8.400  23.722  54.972  1.00  0.00     0.007 A 
HETATM   23  C   UNL     1       7.981  22.723  54.092  1.00  0.00     0.001 A 
HETATM   24  C   UNL     1       7.743  21.433  54.562  1.00  0.00     0.000 A 
HETATM   25  C   UNL     1       7.927  21.140  55.911  1.00  0.00     0.001 A 
HETATM   26  C   UNL     1       8.347  22.137  56.793  1.00  0.00     0.007 A 
ENDBRANCH  20  21
ENDBRANCH  19  20
ENDBRANCH  16  19
ENDBRANCH  12  15
BRANCH  12  27
HETATM   27  C   UNL     1       9.893  29.487  56.308  1.00  0.00     0.426 C 
HETATM   28  F   UNL     1      10.153  29.648  54.990  1.00  0.00    -0.167 F 
HETATM   29  F   UNL     1       9.937  30.720  56.872  1.00  0.00    -0.167 F 
HETATM   30  F   UNL     1      10.919  28.792  56.849  1.00  0.00    -0.167 F 
ENDBRANCH  12  27
BRANCH   1  31
HETATM   31  C   UNL     1       4.602  31.622  56.401  1.00  0.00     0.045 A 
HETATM   32  C   UNL     1       3.370  30.956  56.355  1.00  0.00     0.031 A 
HETATM   33  C   UNL     1       2.289  31.482  55.639  1.00  0.00     0.009 A 
HETATM   34  C   UNL     1       2.422  32.680  54.933  1.00  0.00    -0.062 A 
HETATM   35  C   UNL     1       1.251  33.260  54.198  1.00  0.00     0.048 C 
HETATM   36  C   UNL     1       3.650  33.347  54.963  1.00  0.00     0.009 A 
HETATM   37  C   UNL     1       4.730  32.819  55.681  1.00  0.00     0.031 A 
ENDBRANCH   1  31
TORSDOF 6
ENDMDL
MODEL 3
REMARK VINA RESULT:      -9.6      3.283      4.893
REMARK  6 active torsions:
REMARK  status: ('A' for Active; 'I' for Inactive)
REMARK    1  A    between atoms: C_5  and  N_6 
REMARK    2  A    between atoms: C_17  and  N_18 
REMARK    3  A    between atoms: C_17  and  C_29 
REMARK       I    between atoms: N_18  and  C_19 
REMARK    4  A    between atoms: C_19  and  C_20 
REMARK    5  A    between atoms: C_20  and  C_21 
REMARK    6  A    between atoms: C_21  and  C_22 
ROOT
HETATM    1  N   UNL     1       4.893  30.340  56.168  1.00  0.00    -0.248 N 
HETATM    2  C   UNL     1       3.691  29.649  56.448  1.00  0.00     0.335 A 
HETATM    3  O   UNL     1       2.575  30.150  56.585  1.00  0.00    -0.246 OA
HETATM    4  N   UNL     1       3.792  28.275  56.540  1.00  0.00    -0.274 N 
HETATM    5  C   UNL     1       4.901  27.513  56.315  1.00  0.00     0.262 A 
HETATM    6  O   UNL     1       4.902  26.291  56.322  1.00  0.00    -0.267 OA
HETATM    7  C   UNL     1       6.105  28.276  56.071  1.00  0.00     0.101 A 
HETATM    8  C   UNL     1       6.054  29.607  56.007  1.00  0.00     0.134 A 
HETATM    9  N   UNL     1       7.318  30.077  55.832  1.00  0.00    -0.309 N 
HETATM   10  C   UNL     1       8.240  29.045  55.708  1.00  0.00     0.266 A 
HETATM   11  O   UNL     1       9.425  29.195  55.458  1.00  0.00    -0.270 OA
HETATM   12  C   UNL     1       7.491  27.722  55.937  1.00  0.00     0.249 A 
HETATM   13  H   UNL     1       2.922  27.786  56.695  1.00  0.00     0.173 HD
HETATM   14  H   UNL     1       7.585  31.048  55.750  1.00  0.00     0.170 HD
ENDROOT
BRANCH  12  15
HETATM   15  N   UNL     1       7.622  26.764  54.824  1.00  0.00    -0.332 N 
HETATM   16  C   UNL     1       7.250  27.043  53.532  1.00  0.00     0.219 C 
HETATM   17  O   UNL     1       6.884  28.154  53.166  1.00  0.00    -0.274 OA
HETATM   18  H   UNL     1       7.765  25.791  55.076  1.00  0.00     0.164 HD
BRANCH  16  19
HETATM   19  C   UNL     1       7.274  25.844  52.613  1.00  0.00     0.107 C 
BRANCH  19  20
HETATM   20  C   UNL     1       6.337  24.760  53.143  1.00  0.00     0.047 C 
BRANCH  20  21
HETATM   21  C   UNL     1       7.077  23.570  53.702  1.00  0.00    -0.058 A 
HETATM   22  C   UNL     1       7.092  23.330  55.083  1.00  0.00     0.007 A 
HETATM   23  C   UNL     1       7.764  22.222  55.603  1.00  0.00     0.001 A 
HETATM   24  C   UNL     1       8.427  21.343  54.748  1.00  0.00     0.000 A 
HETATM   25  C   UNL     1       8.415  21.570  53.374  1.00  0.00     0.001 A 
HETATM   26  C   UNL     1       7.742  22.676  52.852  1.00  0.00     0.007 A 
ENDBRANCH  20  21
ENDBRANCH  19  20
ENDBRANCH  16  19
ENDBRANCH  12  15
BRANCH  12  27
HETATM   27  C   UNL     1       8.027  27.193  57.274  1.00  0.00     0.426 C 
HETATM   28  F   UNL     1       7.577  27.900  58.336  1.00  0.00    -0.167 F 
HETATM   29  F   UNL     1       7.651  25.904  57.470  1.00  0.00    -0.167 F 
HETATM   30  F   UNL     1       9.379  27.198  57.320  1.00  0.00    -0.167 F 
ENDBRANCH  12  27
BRANCH   1  31
HETATM   31  C   UNL     1       4.852  31.775  56.058  1.00  0.00     0.045 A 
HETATM   32  C   UNL     1       4.972  32.586  57.195  1.00  0.00     0.031 A 
HETATM   33  C   UNL     1       4.975  33.981  57.091  1.00  0.00     0.009 A 
HETATM   34  C   UNL     1       4.838  34.600  55.847  1.00  0.00    -0.062 A 
HETATM   35  C   UNL     1       4.879  36.095  55.736  1.00  0.00     0.048 C 
HETATM   36  C   UNL     1       4.707  33.801  54.707  1.00  0.00     0.009 A 
HETATM   37  C   UNL     1       4.705  32.404  54.814  1.00  0.00     0.031 A 
ENDBRANCH   1  31
TORSDOF 6
ENDMDL
MODEL 4
REMARK VINA RESULT:      -9.3      7.040     10.842
REMARK  6 active torsions:
REMARK  status: ('A' for Active; 'I' for Inactive)
REMARK    1  A    between atoms: C_5  and  N_6 
REMARK    2  A    between atoms: C_17  and  N_18 
REMARK    3  A    between atoms: C_17  and  C_29 
REMARK       I    between atoms: N_18  and  C_19 
REMARK    4  A    between atoms: C_19  and  C_20 
REMARK    5  A    between atoms: C_20  and  C_21 
REMARK    6  A    between atoms: C_21  and  C_22 
ROOT
HETATM    1  N   UNL     1       4.800  27.147  51.954  1.00  0.00    -0.248 N 
HETATM    2  C   UNL     1       4.097  27.858  52.956  1.00  0.00     0.335 A 
HETATM    3  O   UNL     1       4.207  27.706  54.172  1.00  0.00    -0.246 OA
HETATM    4  N   UNL     1       3.234  28.838  52.508  1.00  0.00    -0.274 N 
HETATM    5  C   UNL     1       3.045  29.242  51.219  1.00  0.00     0.262 A 
HETATM    6  O   UNL     1       2.331  30.181  50.896  1.00  0.00    -0.267 OA
HETATM    7  C   UNL     1       3.758  28.455  50.239  1.00  0.00     0.101 A 
HETATM    8  C   UNL     1       4.578  27.479  50.631  1.00  0.00     0.134 A 
HETATM    9  N   UNL     1       5.071  26.860  49.525  1.00  0.00    -0.309 N 
HETATM   10  C   UNL     1       4.631  27.469  48.355  1.00  0.00     0.266 A 
HETATM   11  O   UNL     1       4.995  27.163  47.231  1.00  0.00    -0.270 OA
HETATM   12  C   UNL     1       3.633  28.569  48.750  1.00  0.00     0.249 A 
HETATM   13  H   UNL     1       2.771  29.370  53.230  1.00  0.00     0.173 HD
HETATM   14  H   UNL     1       5.716  26.083  49.515  1.00  0.00     0.170 HD
ENDROOT
BRANCH  12  15
HETATM   15  N   UNL     1       3.992  29.907  48.244  1.00  0.00    -0.332 N 
HETATM   16  C   UNL     1       5.120  30.588  48.628  1.00  0.00     0.219 C 
HETATM   17  O   UNL     1       5.989  30.097  49.337  1.00  0.00    -0.274 OA
HETATM   18  H   UNL     1       3.253  30.432  47.786  1.00  0.00     0.164 HD
BRANCH  16  19
HETATM   19  C   UNL     1       5.166  32.021  48.148  1.00  0.00     0.107 C 
BRANCH  19  20
HETATM   20  C   UNL     1       6.414  32.714  48.691  1.00  0.00     0.047 C 
BRANCH  20  21
HETATM   21  C   UNL     1       7.087  33.593  47.665  1.00  0.00    -0.058 A 
HETATM   22  C   UNL     1       6.849  33.397  46.297  1.00  0.00     0.007 A 
HETATM   23  C   UNL     1       7.458  34.217  45.347  1.00  0.00     0.001 A 
HETATM   24  C   UNL     1       8.311  35.242  45.753  1.00  0.00     0.000 A 
HETATM   25  C   UNL     1       8.552  35.449  47.109  1.00  0.00     0.001 A 
HETATM   26  C   UNL     1       7.941  34.631  48.061  1.00  0.00     0.007 A 
ENDBRANCH  20  21
ENDBRANCH  19  20
ENDBRANCH  16  19
ENDBRANCH  12  15
BRANCH  12  27
HETATM   27  C   UNL     1       2.272  28.064  48.250  1.00  0.00     0.426 C 
HETATM   28  F   UNL     1       1.234  28.762  48.764  1.00  0.00    -0.167 F 
HETATM   29  F   UNL     1       2.185  28.165  46.900  1.00  0.00    -0.167 F 
HETATM   30  F   UNL     1       2.074  26.758  48.540  1.00  0.00    -0.167 F 
ENDBRANCH  12  27
BRANCH   1  31
HETATM   31  C   UNL     1       5.717  26.114  52.359  1.00  0.00     0.045 A 
HETATM   32  C   UNL     1       5.257  24.827  52.671  1.00  0.00     0.031 A 
HETATM   33  C   UNL     1       6.147  23.807  53.024  1.00  0.00     0.009 A 
HETATM   34  C   UNL     1       7.520  24.056  53.095  1.00  0.00    -0.062 A 
HETATM   35  C   UNL     1       8.473  22.950  53.438  1.00  0.00     0.048 C 
HETATM   36  C   UNL     1       7.988  25.339  52.796  1.00  0.00     0.009 A 
HETATM   37  C   UNL     1       7.095  26.358  52.442  1.00  0.00     0.031 A 
ENDBRANCH   1  31
TORSDOF 6
ENDMDL
MODEL 5
REMARK VINA RESULT:      -8.5      3.497      8.816
REMARK  6 active torsions:
REMARK  status: ('A' for Active; 'I' for Inactive)
REMARK    1  A    between atoms: C_5  and  N_6 
REMARK    2  A    between atoms: C_17  and  N_18 
REMARK    3  A    between atoms: C_17  and  C_29 
REMARK       I    between atoms: N_18  and  C_19 
REMARK    4  A    between atoms: C_19  and  C_20 
REMARK    5  A    between atoms: C_20  and  C_21 
REMARK    6  A    between atoms: C_21  and  C_22 
ROOT
HETATM    1  N   UNL     1       6.384  26.225  52.566  1.00  0.00    -0.248 N 
HETATM    2  C   UNL     1       7.408  25.259  52.419  1.00  0.00     0.335 A 
HETATM    3  O   UNL     1       7.852  24.821  51.359  1.00  0.00    -0.246 OA
HETATM    4  N   UNL     1       7.976  24.800  53.591  1.00  0.00    -0.274 N 
HETATM    5  C   UNL     1       7.713  25.229  54.859  1.00  0.00     0.262 A 
HETATM    6  O   UNL     1       8.319  24.845  55.849  1.00  0.00    -0.267 OA
HETATM    7  C   UNL     1       6.633  26.186  54.948  1.00  0.00     0.101 A 
HETATM    8  C   UNL     1       6.037  26.630  53.841  1.00  0.00     0.134 A 
HETATM    9  N   UNL     1       5.025  27.464  54.202  1.00  0.00    -0.309 N 
HETATM   10  C   UNL     1       4.972  27.644  55.580  1.00  0.00     0.266 A 
HETATM   11  O   UNL     1       4.215  28.410  56.154  1.00  0.00    -0.270 OA
HETATM   12  C   UNL     1       6.027  26.721  56.210  1.00  0.00     0.249 A 
HETATM   13  H   UNL     1       8.737  24.145  53.475  1.00  0.00     0.173 HD
HETATM   14  H   UNL     1       4.400  27.948  53.574  1.00  0.00     0.170 HD
ENDROOT
BRANCH  12  15
HETATM   15  N   UNL     1       7.002  27.427  57.062  1.00  0.00    -0.332 N 
HETATM   16  C   UNL     1       7.704  28.535  56.657  1.00  0.00     0.219 C 
HETATM   17  O   UNL     1       7.496  29.107  55.594  1.00  0.00    -0.274 OA
HETATM   18  H   UNL     1       7.337  26.926  57.880  1.00  0.00     0.164 HD
BRANCH  16  19
HETATM   19  C   UNL     1       8.796  28.954  57.614  1.00  0.00     0.107 C 
BRANCH  19  20
HETATM   20  C   UNL     1       8.971  30.471  57.576  1.00  0.00     0.047 C 
BRANCH  20  21
HETATM   21  C   UNL     1       8.667  31.127  58.901  1.00  0.00    -0.058 A 
HETATM   22  C   UNL     1       7.394  31.655  59.155  1.00  0.00     0.007 A 
HETATM   23  C   UNL     1       7.106  32.250  60.384  1.00  0.00     0.001 A 
HETATM   24  C   UNL     1       8.086  32.324  61.372  1.00  0.00     0.000 A 
HETATM   25  C   UNL     1       9.354  31.798  61.132  1.00  0.00     0.001 A 
HETATM   26  C   UNL     1       9.643  31.200  59.904  1.00  0.00     0.007 A 
ENDBRANCH  20  21
ENDBRANCH  19  20
ENDBRANCH  16  19
ENDBRANCH  12  15
BRANCH  12  27
HETATM   27  C   UNL     1       5.217  25.650  56.955  1.00  0.00     0.426 C 
HETATM   28  F   UNL     1       4.163  26.165  57.629  1.00  0.00    -0.167 F 
HETATM   29  F   UNL     1       4.721  24.730  56.091  1.00  0.00    -0.167 F 
HETATM   30  F   UNL     1       5.974  24.961  57.839  1.00  0.00    -0.167 F 
ENDBRANCH  12  27
BRANCH   1  31
HETATM   31  C   UNL     1       5.753  26.744  51.381  1.00  0.00     0.045 A 
HETATM   32  C   UNL     1       5.914  28.086  51.011  1.00  0.00     0.031 A 
HETATM   33  C   UNL     1       5.339  28.586  49.837  1.00  0.00     0.009 A 
HETATM   34  C   UNL     1       4.570  27.759  49.015  1.00  0.00    -0.062 A 
HETATM   35  C   UNL     1       3.988  28.290  47.739  1.00  0.00     0.048 C 
HETATM   36  C   UNL     1       4.395  26.421  49.380  1.00  0.00     0.009 A 
HETATM   37  C   UNL     1       4.973  25.922  50.554  1.00  0.00     0.031 A 
ENDBRANCH   1  31
TORSDOF 6
ENDMDL
