MODEL 1
REMARK VINA RESULT:     -10.0      0.000      0.000
REMARK  7 active torsions:
REMARK  status: ('A' for Active; 'I' for Inactive)
REMARK    1  A    between atoms: C_4  and  C_5 
REMARK    2  A    between atoms: C_5  and  N_6 
REMARK       I    between atoms: N_6  and  C_7 
REMARK    3  A    between atoms: N_6  and  C_22 
REMARK    4  A    between atoms: C_7  and  C_8 
REMARK    5  A    between atoms: C_13  and  C_14 
REMARK    6  A    between atoms: C_15  and  O_16 
REMARK    7  A    between atoms: C_22  and  C_23 
ROOT
HETATM    1  N   UNL     1       6.849  25.315  53.819  1.00  0.00    -0.343 N 
HETATM    2  C   UNL     1       6.937  25.951  55.060  1.00  0.00     0.235 C 
HETATM    3  O   UNL     1       7.972  25.884  55.727  1.00  0.00    -0.272 OA
ENDROOT
BRANCH   2   4
HETATM    4  C   UNL     1       5.750  26.744  55.563  1.00  0.00     0.195 C 
HETATM    5  C   UNL     1       5.144  26.287  56.853  1.00  0.00     0.247 C 
HETATM    6  O   UNL     1       5.020  25.146  57.264  1.00  0.00    -0.271 OA
HETATM    7  N   UNL     1       4.606  27.411  57.456  1.00  0.00    -0.290 N 
HETATM    8  N   UNL     1       4.898  28.604  56.783  1.00  0.00    -0.228 NA
HETATM    9  H   UNL     1       4.107  27.355  58.338  1.00  0.00     0.183 HD
HETATM   10  C   UNL     1       5.991  28.245  55.832  1.00  0.00     0.134 C 
HETATM   11  H   UNL     1       5.253  29.294  57.454  1.00  0.00     0.147 HD
BRANCH  10  12
HETATM   12  C   UNL     1       7.316  28.759  56.383  1.00  0.00    -0.004 A 
HETATM   13  C   UNL     1       8.426  29.005  55.553  1.00  0.00     0.073 A 
HETATM   14  C   UNL     1       9.614  29.538  56.063  1.00  0.00     0.037 A 
HETATM   15  C   UNL     1       9.720  29.862  57.411  1.00  0.00     0.003 A 
HETATM   16  C   UNL     1       8.631  29.658  58.248  1.00  0.00     0.001 A 
HETATM   17  C   UNL     1       7.442  29.125  57.738  1.00  0.00     0.012 A 
BRANCH  13  18
HETATM   18  O   UNL     1       8.446  28.786  54.203  1.00  0.00    -0.360 OA
HETATM   19  H   UNL     1       9.109  28.123  53.961  1.00  0.00     0.217 HD
ENDBRANCH  13  18
ENDBRANCH  10  12
ENDBRANCH   2   4
BRANCH   1  20
HETATM   20  C   UNL     1       8.011  24.545  53.362  1.00  0.00     0.164 C 
BRANCH  20  21
HETATM   21  C   UNL     1       7.945  23.088  53.768  1.00  0.00    -0.040 A 
HETATM   22  C   UNL     1       7.827  22.729  55.120  1.00  0.00     0.009 A 
HETATM   23  C   UNL     1       7.783  21.385  55.496  1.00  0.00     0.001 A 
HETATM   24  C   UNL     1       7.851  20.386  54.526  1.00  0.00     0.000 A 
HETATM   25  C   UNL     1       7.958  20.729  53.180  1.00  0.00     0.001 A 
HETATM   26  C   UNL     1       8.002  22.073  52.803  1.00  0.00     0.009 A 
ENDBRANCH  20  21
ENDBRANCH   1  20
BRANCH   1  27
HETATM   27  C   UNL     1       5.606  25.111  53.071  1.00  0.00     0.164 C 
BRANCH  27  28
HETATM   28  C   UNL     1       5.418  26.059  51.911  1.00  0.00    -0.040 A 
HETATM   29  C   UNL     1       4.892  25.622  50.686  1.00  0.00     0.009 A 
HETATM   30  C   UNL     1       4.686  26.524  49.640  1.00  0.00     0.001 A 
HETATM   31  C   UNL     1       4.993  27.873  49.808  1.00  0.00     0.000 A 
HETATM   32  C   UNL     1       5.502  28.322  51.024  1.00  0.00     0.001 A 
HETATM   33  C   UNL     1       5.707  27.423  52.072  1.00  0.00     0.009 A 
ENDBRANCH  27  28
ENDBRANCH   1  27
TORSDOF 7
ENDMDL
MODEL 2
REMARK VINA RESULT:      -9.8      1.764      2.623
REMARK  7 active torsions:
REMARK  status: ('A' for Active; 'I' for Inactive)
REMARK    1  A    between atoms: C_4  and  C_5 
REMARK    2  A    between atoms: C_5  and  N_6 
REMARK       I    between atoms: N_6  and  C_7 
REMARK    3  A    between atoms: N_6  and  C_22 
REMARK    4  A    between atoms: C_7  and  C_8 
REMARK    5  A    between atoms: C_13  and  C_14 
REMARK    6  A    between atoms: C_15  and  O_16 
REMARK    7  A    between atoms: C_22  and  C_23 
ROOT
HETATM    1  N   UNL     1       7.641  24.965  56.242  1.00  0.00    -0.343 N 
HETATM    2  C   UNL     1       7.756  26.323  56.547  1.00  0.00     0.235 C 
HETATM    3  O   UNL     1       8.611  26.717  57.346  1.00  0.00    -0.272 OA
ENDROOT
BRANCH   2   4
HETATM    4  C   UNL     1       6.831  27.308  55.866  1.00  0.00     0.195 C 
HETATM    5  C   UNL     1       5.590  27.682  56.616  1.00  0.00     0.247 C 
HETATM    6  O   UNL     1       4.905  26.976  57.336  1.00  0.00    -0.271 OA
HETATM    7  N   UNL     1       5.267  28.970  56.227  1.00  0.00    -0.290 N 
HETATM    8  N   UNL     1       6.227  29.565  55.398  1.00  0.00    -0.228 NA
HETATM    9  H   UNL     1       4.438  29.440  56.578  1.00  0.00     0.183 HD
HETATM   10  C   UNL     1       7.429  28.689  55.523  1.00  0.00     0.134 C 
HETATM   11  H   UNL     1       6.455  30.498  55.758  1.00  0.00     0.147 HD
BRANCH  10  12
HETATM   12  C   UNL     1       8.446  29.371  56.431  1.00  0.00    -0.004 A 
HETATM   13  C   UNL     1       8.111  29.829  57.720  1.00  0.00     0.073 A 
HETATM   14  C   UNL     1       9.070  30.394  58.566  1.00  0.00     0.037 A 
HETATM   15  C   UNL     1      10.396  30.497  58.158  1.00  0.00     0.003 A 
HETATM   16  C   UNL     1      10.762  30.028  56.905  1.00  0.00     0.001 A 
HETATM   17  C   UNL     1       9.802  29.462  56.058  1.00  0.00     0.012 A 
BRANCH  13  18
HETATM   18  O   UNL     1       6.862  29.742  58.270  1.00  0.00    -0.360 OA
HETATM   19  H   UNL     1       6.179  30.031  57.647  1.00  0.00     0.217 HD
ENDBRANCH  13  18
ENDBRANCH  10  12
ENDBRANCH   2   4
BRANCH   1  20
HETATM   20  C   UNL     1       8.544  24.032  56.925  1.00  0.00     0.164 C 
BRANCH  20  21
HETATM   21  C   UNL     1       8.612  22.680  56.247  1.00  0.00    -0.040 A 
HETATM   22  C   UNL     1       9.203  22.545  54.981  1.00  0.00     0.009 A 
HETATM   23  C   UNL     1       9.252  21.301  54.349  1.00  0.00     0.001 A 
HETATM   24  C   UNL     1       8.716  20.178  54.976  1.00  0.00     0.000 A 
HETATM   25  C   UNL     1       8.134  20.296  56.236  1.00  0.00     0.001 A 
HETATM   26  C   UNL     1       8.086  21.540  56.870  1.00  0.00     0.009 A 
ENDBRANCH  20  21
ENDBRANCH   1  20
BRANCH   1  27
HETATM   27  C   UNL     1       6.516  24.363  55.523  1.00  0.00     0.164 C 
BRANCH  27  28
HETATM   28  C   UNL     1       6.411  24.779  54.075  1.00  0.00    -0.040 A 
HETATM   29  C   UNL     1       7.539  24.832  53.244  1.00  0.00     0.009 A 
HETATM   30  C   UNL     1       7.414  25.177  51.897  1.00  0.00     0.001 A 
HETATM   31  C   UNL     1       6.159  25.464  51.363  1.00  0.00     0.000 A 
HETATM   32  C   UNL     1       5.028  25.400  52.172  1.00  0.00     0.001 A 
HETATM   33  C   UNL     1       5.151  25.054  53.519  1.00  0.00     0.009 A 
ENDBRANCH  27  28
ENDBRANCH   1  27
TORSDOF 7
ENDMDL
MODEL 3
REMARK VINA RESULT:      -9.2      2.042      5.332
REMARK  7 active torsions:
REMARK  status: ('A' for Active; 'I' for Inactive)
REMARK    1  A    between atoms: C_4  and  C_5 
REMARK    2  A    between atoms: C_5  and  N_6 
REMARK       I    between atoms: N_6  and  C_7 
REMARK    3  A    between atoms: N_6  and  C_22 
REMARK    4  A    between atoms: C_7  and  C_8 
REMARK    5  A    between atoms: C_13  and  C_14 
REMARK    6  A    between atoms: C_15  and  O_16 
REMARK    7  A    between atoms: C_22  and  C_23 
ROOT
HETATM    1  N   UNL     1       6.495  26.367  53.723  1.00  0.00    -0.343 N 
HETATM    2  C   UNL     1       6.955  27.418  54.521  1.00  0.00     0.235 C 
HETATM    3  O   UNL     1       7.704  28.279  54.052  1.00  0.00    -0.272 OA
ENDROOT
BRANCH   2   4
HETATM    4  C   UNL     1       6.501  27.497  55.962  1.00  0.00     0.195 C 
HETATM    5  C   UNL     1       7.395  28.248  56.899  1.00  0.00     0.247 C 
HETATM    6  O   UNL     1       8.612  28.302  56.897  1.00  0.00    -0.271 OA
HETATM    7  N   UNL     1       6.578  28.776  57.885  1.00  0.00    -0.290 N 
HETATM    8  N   UNL     1       5.212  28.581  57.647  1.00  0.00    -0.228 NA
HETATM    9  H   UNL     1       6.957  29.308  58.662  1.00  0.00     0.183 HD
HETATM   10  C   UNL     1       5.132  28.165  56.216  1.00  0.00     0.134 C 
HETATM   11  H   UNL     1       4.717  29.472  57.763  1.00  0.00     0.147 HD
BRANCH  10  12
HETATM   12  C   UNL     1       4.648  29.346  55.382  1.00  0.00    -0.004 A 
HETATM   13  C   UNL     1       3.874  29.174  54.219  1.00  0.00     0.073 A 
HETATM   14  C   UNL     1       3.383  30.268  53.501  1.00  0.00     0.037 A 
HETATM   15  C   UNL     1       3.631  31.565  53.936  1.00  0.00     0.003 A 
HETATM   16  C   UNL     1       4.367  31.766  55.096  1.00  0.00     0.001 A 
HETATM   17  C   UNL     1       4.858  30.671  55.815  1.00  0.00     0.012 A 
BRANCH  13  18
HETATM   18  O   UNL     1       3.508  27.960  53.707  1.00  0.00    -0.360 OA
HETATM   19  H   UNL     1       3.289  28.024  52.766  1.00  0.00     0.217 HD
ENDBRANCH  13  18
ENDBRANCH  10  12
ENDBRANCH   2   4
BRANCH   1  20
HETATM   20  C   UNL     1       6.959  26.309  52.333  1.00  0.00     0.164 C 
BRANCH  20  21
HETATM   21  C   UNL     1       5.925  26.812  51.348  1.00  0.00    -0.040 A 
HETATM   22  C   UNL     1       5.161  25.908  50.592  1.00  0.00     0.009 A 
HETATM   23  C   UNL     1       4.219  26.371  49.673  1.00  0.00     0.001 A 
HETATM   24  C   UNL     1       4.025  27.741  49.500  1.00  0.00     0.000 A 
HETATM   25  C   UNL     1       4.770  28.648  50.250  1.00  0.00     0.001 A 
HETATM   26  C   UNL     1       5.712  28.186  51.172  1.00  0.00     0.009 A 
ENDBRANCH  20  21
ENDBRANCH   1  20
BRANCH   1  27
HETATM   27  C   UNL     1       5.825  25.166  54.230  1.00  0.00     0.164 C 
BRANCH  27  28
HETATM   28  C   UNL     1       6.730  23.966  54.375  1.00  0.00    -0.040 A 
HETATM   29  C   UNL     1       7.168  23.238  53.259  1.00  0.00     0.009 A 
HETATM   30  C   UNL     1       8.040  22.159  53.413  1.00  0.00     0.001 A 
HETATM   31  C   UNL     1       8.492  21.799  54.682  1.00  0.00     0.000 A 
HETATM   32  C   UNL     1       8.076  22.522  55.797  1.00  0.00     0.001 A 
HETATM   33  C   UNL     1       7.207  23.603  55.645  1.00  0.00     0.009 A 
ENDBRANCH  27  28
ENDBRANCH   1  27
TORSDOF 7
ENDMDL
MODEL 4
REMARK VINA RESULT:      -9.0      2.074      5.576
REMARK  7 active torsions:
REMARK  status: ('A' for Active; 'I' for Inactive)
REMARK    1  A    between atoms: C_4  and  C_5 
REMARK    2  A    between atoms: C_5  and  N_6 
REMARK       I    between atoms: N_6  and  C_7 
REMARK    3  A    between atoms: N_6  and  C_22 
REMARK    4  A    between atoms: C_7  and  C_8 
REMARK    5  A    between atoms: C_13  and  C_14 
REMARK    6  A    between atoms: C_15  and  O_16 
REMARK    7  A    between atoms: C_22  and  C_23 
ROOT
HETATM    1  N   UNL     1       7.046  26.841  54.486  1.00  0.00    -0.343 N 
HETATM    2  C   UNL     1       7.830  27.892  54.967  1.00  0.00     0.235 C 
HETATM    3  O   UNL     1       8.237  28.771  54.202  1.00  0.00    -0.272 OA
ENDROOT
BRANCH   2   4
HETATM    4  C   UNL     1       8.153  27.951  56.444  1.00  0.00     0.195 C 
HETATM    5  C   UNL     1       9.197  28.940  56.857  1.00  0.00     0.247 C 
HETATM    6  O   UNL     1      10.202  29.271  56.251  1.00  0.00    -0.271 OA
HETATM    7  N   UNL     1       8.887  29.325  58.150  1.00  0.00    -0.290 N 
HETATM    8  N   UNL     1       7.671  28.809  58.614  1.00  0.00    -0.228 NA
HETATM    9  H   UNL     1       9.472  29.974  58.667  1.00  0.00     0.183 HD
HETATM   10  C   UNL     1       6.984  28.301  57.389  1.00  0.00     0.134 C 
HETATM   11  H   UNL     1       7.112  29.568  59.018  1.00  0.00     0.147 HD
BRANCH  10  12
HETATM   12  C   UNL     1       5.895  29.289  56.987  1.00  0.00    -0.004 A 
HETATM   13  C   UNL     1       4.589  28.873  56.663  1.00  0.00     0.073 A 
HETATM   14  C   UNL     1       3.584  29.795  56.358  1.00  0.00     0.037 A 
HETATM   15  C   UNL     1       3.846  31.160  56.391  1.00  0.00     0.003 A 
HETATM   16  C   UNL     1       5.116  31.602  56.736  1.00  0.00     0.001 A 
HETATM   17  C   UNL     1       6.122  30.679  57.041  1.00  0.00     0.012 A 
BRANCH  13  18
HETATM   18  O   UNL     1       4.176  27.569  56.644  1.00  0.00    -0.360 OA
HETATM   19  H   UNL     1       3.820  27.298  57.504  1.00  0.00     0.217 HD
ENDBRANCH  13  18
ENDBRANCH  10  12
ENDBRANCH   2   4
BRANCH   1  20
HETATM   20  C   UNL     1       6.758  26.804  53.049  1.00  0.00     0.164 C 
BRANCH  20  21
HETATM   21  C   UNL     1       5.598  27.696  52.660  1.00  0.00    -0.040 A 
HETATM   22  C   UNL     1       5.768  28.712  51.706  1.00  0.00     0.009 A 
HETATM   23  C   UNL     1       4.703  29.545  51.359  1.00  0.00     0.001 A 
HETATM   24  C   UNL     1       3.455  29.369  51.956  1.00  0.00     0.000 A 
HETATM   25  C   UNL     1       3.271  28.359  52.897  1.00  0.00     0.001 A 
HETATM   26  C   UNL     1       4.335  27.524  53.245  1.00  0.00     0.009 A 
ENDBRANCH  20  21
ENDBRANCH   1  20
BRANCH   1  27
HETATM   27  C   UNL     1       6.730  25.624  55.239  1.00  0.00     0.164 C 
BRANCH  27  28
HETATM   28  C   UNL     1       7.469  24.394  54.768  1.00  0.00    -0.040 A 
HETATM   29  C   UNL     1       8.507  23.828  55.523  1.00  0.00     0.009 A 
HETATM   30  C   UNL     1       9.147  22.666  55.090  1.00  0.00     0.001 A 
HETATM   31  C   UNL     1       8.753  22.050  53.904  1.00  0.00     0.000 A 
HETATM   32  C   UNL     1       7.715  22.592  53.151  1.00  0.00     0.001 A 
HETATM   33  C   UNL     1       7.071  23.753  53.583  1.00  0.00     0.009 A 
ENDBRANCH  27  28
ENDBRANCH   1  27
TORSDOF 7
ENDMDL
MODEL 5
REMARK VINA RESULT:      -8.9      2.041      5.371
REMARK  7 active torsions:
REMARK  status: ('A' for Active; 'I' for Inactive)
REMARK    1  A    between atoms: C_4  and  C_5 
REMARK    2  A    between atoms: C_5  and  N_6 
REMARK       I    between atoms: N_6  and  C_7 
REMARK    3  A    between atoms: N_6  and  C_22 
REMARK    4  A    between atoms: C_7  and  C_8 
REMARK    5  A    between atoms: C_13  and  C_14 
REMARK    6  A    between atoms: C_15  and  O_16 
REMARK    7  A    between atoms: C_22  and  C_23 
ROOT
HETATM    1  N   UNL     1       6.291  26.415  53.519  1.00  0.00    -0.343 N 
HETATM    2  C   UNL     1       6.690  27.464  54.351  1.00  0.00     0.235 C 
HETATM    3  O   UNL     1       7.386  28.383  53.912  1.00  0.00    -0.272 OA
ENDROOT
BRANCH   2   4
HETATM    4  C   UNL     1       6.235  27.468  55.795  1.00  0.00     0.195 C 
HETATM    5  C   UNL     1       7.171  28.090  56.784  1.00  0.00     0.247 C 
HETATM    6  O   UNL     1       8.389  28.066  56.785  1.00  0.00    -0.271 OA
HETATM    7  N   UNL     1       6.385  28.596  57.805  1.00  0.00    -0.290 N 
HETATM    8  N   UNL     1       5.010  28.506  57.554  1.00  0.00    -0.228 NA
HETATM    9  H   UNL     1       6.794  29.045  58.619  1.00  0.00     0.183 HD
HETATM   10  C   UNL     1       4.911  28.200  56.097  1.00  0.00     0.134 C 
HETATM   11  H   UNL     1       4.572  29.416  57.734  1.00  0.00     0.147 HD
BRANCH  10  12
HETATM   12  C   UNL     1       4.506  29.467  55.351  1.00  0.00    -0.004 A 
HETATM   13  C   UNL     1       4.936  30.745  55.758  1.00  0.00     0.073 A 
HETATM   14  C   UNL     1       4.610  31.891  55.027  1.00  0.00     0.037 A 
HETATM   15  C   UNL     1       3.866  31.793  53.857  1.00  0.00     0.003 A 
HETATM   16  C   UNL     1       3.453  30.543  53.415  1.00  0.00     0.001 A 
HETATM   17  C   UNL     1       3.779  29.396  54.146  1.00  0.00     0.012 A 
BRANCH  13  18
HETATM   18  O   UNL     1       5.717  30.985  56.855  1.00  0.00    -0.360 OA
HETATM   19  H   UNL     1       6.556  31.400  56.608  1.00  0.00     0.217 HD
ENDBRANCH  13  18
ENDBRANCH  10  12
ENDBRANCH   2   4
BRANCH   1  20
HETATM   20  C   UNL     1       6.754  26.433  52.128  1.00  0.00     0.164 C 
BRANCH  20  21
HETATM   21  C   UNL     1       5.689  26.903  51.160  1.00  0.00    -0.040 A 
HETATM   22  C   UNL     1       5.034  25.988  50.320  1.00  0.00     0.009 A 
HETATM   23  C   UNL     1       4.063  26.423  49.417  1.00  0.00     0.001 A 
HETATM   24  C   UNL     1       3.731  27.775  49.345  1.00  0.00     0.000 A 
HETATM   25  C   UNL     1       4.366  28.692  50.180  1.00  0.00     0.001 A 
HETATM   26  C   UNL     1       5.337  28.258  51.085  1.00  0.00     0.009 A 
ENDBRANCH  20  21
ENDBRANCH   1  20
BRANCH   1  27
HETATM   27  C   UNL     1       5.694  25.161  53.984  1.00  0.00     0.164 C 
BRANCH  27  28
HETATM   28  C   UNL     1       6.690  24.051  54.220  1.00  0.00    -0.040 A 
HETATM   29  C   UNL     1       7.179  23.267  53.164  1.00  0.00     0.009 A 
HETATM   30  C   UNL     1       8.132  22.275  53.398  1.00  0.00     0.001 A 
HETATM   31  C   UNL     1       8.615  22.059  54.687  1.00  0.00     0.000 A 
HETATM   32  C   UNL     1       8.150  22.839  55.743  1.00  0.00     0.001 A 
HETATM   33  C   UNL     1       7.198  23.833  55.511  1.00  0.00     0.009 A 
ENDBRANCH  27  28
ENDBRANCH   1  27
TORSDOF 7
ENDMDL
MODEL 6
REMARK VINA RESULT:      -8.9      1.972      6.571
REMARK  7 active torsions:
REMARK  status: ('A' for Active; 'I' for Inactive)
REMARK    1  A    between atoms: C_4  and  C_5 
REMARK    2  A    between atoms: C_5  and  N_6 
REMARK       I    between atoms: N_6  and  C_7 
REMARK    3  A    between atoms: N_6  and  C_22 
REMARK    4  A    between atoms: C_7  and  C_8 
REMARK    5  A    between atoms: C_13  and  C_14 
REMARK    6  A    between atoms: C_15  and  O_16 
REMARK    7  A    between atoms: C_22  and  C_23 
ROOT
HETATM    1  N   UNL     1       6.784  26.483  53.474  1.00  0.00    -0.343 N 
HETATM    2  C   UNL     1       6.558  25.468  54.408  1.00  0.00     0.235 C 
HETATM    3  O   UNL     1       5.654  24.646  54.234  1.00  0.00    -0.272 OA
ENDROOT
BRANCH   2   4
HETATM    4  C   UNL     1       7.455  25.377  55.623  1.00  0.00     0.195 C 
HETATM    5  C   UNL     1       6.785  25.047  56.920  1.00  0.00     0.247 C 
HETATM    6  O   UNL     1       5.682  25.392  57.306  1.00  0.00    -0.271 OA
HETATM    7  N   UNL     1       7.721  24.374  57.687  1.00  0.00    -0.290 N 
HETATM    8  N   UNL     1       8.910  24.091  57.004  1.00  0.00    -0.228 NA
HETATM    9  H   UNL     1       7.513  24.068  58.632  1.00  0.00     0.183 HD
HETATM   10  C   UNL     1       8.585  24.327  55.566  1.00  0.00     0.134 C 
HETATM   11  H   UNL     1       9.149  23.102  57.134  1.00  0.00     0.147 HD
BRANCH  10  12
HETATM   12  C   UNL     1       8.396  22.982  54.874  1.00  0.00    -0.004 A 
HETATM   13  C   UNL     1       8.199  21.789  55.596  1.00  0.00     0.073 A 
HETATM   14  C   UNL     1       7.963  20.574  54.947  1.00  0.00     0.037 A 
HETATM   15  C   UNL     1       7.895  20.517  53.559  1.00  0.00     0.003 A 
HETATM   16  C   UNL     1       8.057  21.682  52.821  1.00  0.00     0.001 A 
HETATM   17  C   UNL     1       8.292  22.899  53.470  1.00  0.00     0.012 A 
BRANCH  13  18
HETATM   18  O   UNL     1       8.185  21.706  56.961  1.00  0.00    -0.360 OA
HETATM   19  H   UNL     1       9.047  21.433  57.308  1.00  0.00     0.217 HD
ENDBRANCH  13  18
ENDBRANCH  10  12
ENDBRANCH   2   4
BRANCH   1  20
HETATM   20  C   UNL     1       5.893  26.554  52.312  1.00  0.00     0.164 C 
BRANCH  20  21
HETATM   21  C   UNL     1       5.109  27.847  52.251  1.00  0.00    -0.040 A 
HETATM   22  C   UNL     1       3.919  27.995  52.981  1.00  0.00     0.009 A 
HETATM   23  C   UNL     1       3.187  29.183  52.912  1.00  0.00     0.001 A 
HETATM   24  C   UNL     1       3.638  30.236  52.119  1.00  0.00     0.000 A 
HETATM   25  C   UNL     1       4.823  30.106  51.397  1.00  0.00     0.001 A 
HETATM   26  C   UNL     1       5.556  28.919  51.465  1.00  0.00     0.009 A 
ENDBRANCH  20  21
ENDBRANCH   1  20
BRANCH   1  27
HETATM   27  C   UNL     1       7.643  27.649  53.700  1.00  0.00     0.164 C 
BRANCH  27  28
HETATM   28  C   UNL     1       7.374  28.376  54.996  1.00  0.00    -0.040 A 
HETATM   29  C   UNL     1       6.067  28.616  55.444  1.00  0.00     0.009 A 
HETATM   30  C   UNL     1       5.841  29.251  56.667  1.00  0.00     0.001 A 
HETATM   31  C   UNL     1       6.917  29.645  57.460  1.00  0.00     0.000 A 
HETATM   32  C   UNL     1       8.220  29.400  57.034  1.00  0.00     0.001 A 
HETATM   33  C   UNL     1       8.448  28.763  55.813  1.00  0.00     0.009 A 
ENDBRANCH  27  28
ENDBRANCH   1  27
TORSDOF 7
ENDMDL
MODEL 7
REMARK VINA RESULT:      -8.8      2.794      6.700
REMARK  7 active torsions:
REMARK  status: ('A' for Active; 'I' for Inactive)
REMARK    1  A    between atoms: C_4  and  C_5 
REMARK    2  A    between atoms: C_5  and  N_6 
REMARK       I    between atoms: N_6  and  C_7 
REMARK    3  A    between atoms: N_6  and  C_22 
REMARK    4  A    between atoms: C_7  and  C_8 
REMARK    5  A    between atoms: C_13  and  C_14 
REMARK    6  A    between atoms: C_15  and  O_16 
REMARK    7  A    between atoms: C_22  and  C_23 
ROOT
HETATM    1  N   UNL     1       6.068  26.883  54.157  1.00  0.00    -0.343 N 
HETATM    2  C   UNL     1       5.176  27.049  53.095  1.00  0.00     0.235 C 
HETATM    3  O   UNL     1       3.985  27.289  53.309  1.00  0.00    -0.272 OA
ENDROOT
BRANCH   2   4
HETATM    4  C   UNL     1       5.697  26.953  51.678  1.00  0.00     0.195 C 
HETATM    5  C   UNL     1       5.032  25.946  50.792  1.00  0.00     0.247 C 
HETATM    6  O   UNL     1       4.596  24.848  51.095  1.00  0.00    -0.271 OA
HETATM    7  N   UNL     1       5.125  26.434  49.500  1.00  0.00    -0.290 N 
HETATM    8  N   UNL     1       5.660  27.726  49.425  1.00  0.00    -0.228 NA
HETATM    9  H   UNL     1       4.770  25.911  48.706  1.00  0.00     0.183 HD
HETATM   10  C   UNL     1       5.613  28.238  50.826  1.00  0.00     0.134 C 
HETATM   11  H   UNL     1       5.055  28.310  48.837  1.00  0.00     0.147 HD
BRANCH  10  12
HETATM   12  C   UNL     1       4.450  29.214  50.959  1.00  0.00    -0.004 A 
HETATM   13  C   UNL     1       3.180  28.944  50.414  1.00  0.00     0.073 A 
HETATM   14  C   UNL     1       2.106  29.819  50.599  1.00  0.00     0.037 A 
HETATM   15  C   UNL     1       2.262  30.977  51.353  1.00  0.00     0.003 A 
HETATM   16  C   UNL     1       3.494  31.255  51.927  1.00  0.00     0.001 A 
HETATM   17  C   UNL     1       4.570  30.379  51.742  1.00  0.00     0.012 A 
BRANCH  13  18
HETATM   18  O   UNL     1       2.869  27.821  49.698  1.00  0.00    -0.360 OA
HETATM   19  H   UNL     1       3.263  27.029  50.093  1.00  0.00     0.217 HD
ENDBRANCH  13  18
ENDBRANCH  10  12
ENDBRANCH   2   4
BRANCH   1  20
HETATM   20  C   UNL     1       5.534  26.971  55.520  1.00  0.00     0.164 C 
BRANCH  20  21
HETATM   21  C   UNL     1       6.140  28.107  56.315  1.00  0.00    -0.040 A 
HETATM   22  C   UNL     1       7.079  27.849  57.327  1.00  0.00     0.009 A 
HETATM   23  C   UNL     1       7.626  28.896  58.071  1.00  0.00     0.001 A 
HETATM   24  C   UNL     1       7.245  30.211  57.811  1.00  0.00     0.000 A 
HETATM   25  C   UNL     1       6.321  30.482  56.805  1.00  0.00     0.001 A 
HETATM   26  C   UNL     1       5.774  29.436  56.058  1.00  0.00     0.009 A 
ENDBRANCH  20  21
ENDBRANCH   1  20
BRANCH   1  27
HETATM   27  C   UNL     1       7.426  26.346  54.030  1.00  0.00     0.164 C 
BRANCH  27  28
HETATM   28  C   UNL     1       7.500  24.838  54.034  1.00  0.00    -0.040 A 
HETATM   29  C   UNL     1       7.710  24.112  52.853  1.00  0.00     0.009 A 
HETATM   30  C   UNL     1       7.818  22.720  52.885  1.00  0.00     0.001 A 
HETATM   31  C   UNL     1       7.728  22.039  54.097  1.00  0.00     0.000 A 
HETATM   32  C   UNL     1       7.534  22.749  55.280  1.00  0.00     0.001 A 
HETATM   33  C   UNL     1       7.427  24.140  55.250  1.00  0.00     0.009 A 
ENDBRANCH  27  28
ENDBRANCH   1  27
TORSDOF 7
ENDMDL
MODEL 8
REMARK VINA RESULT:      -8.6      2.801      6.503
REMARK  7 active torsions:
REMARK  status: ('A' for Active; 'I' for Inactive)
REMARK    1  A    between atoms: C_4  and  C_5 
REMARK    2  A    between atoms: C_5  and  N_6 
REMARK       I    between atoms: N_6  and  C_7 
REMARK    3  A    between atoms: N_6  and  C_22 
REMARK    4  A    between atoms: C_7  and  C_8 
REMARK    5  A    between atoms: C_13  and  C_14 
REMARK    6  A    between atoms: C_15  and  O_16 
REMARK    7  A    between atoms: C_22  and  C_23 
ROOT
HETATM    1  N   UNL     1       5.892  28.031  53.706  1.00  0.00    -0.343 N 
HETATM    2  C   UNL     1       5.421  28.714  52.582  1.00  0.00     0.235 C 
HETATM    3  O   UNL     1       6.174  28.958  51.635  1.00  0.00    -0.272 OA
ENDROOT
BRANCH   2   4
HETATM    4  C   UNL     1       3.966  29.129  52.533  1.00  0.00     0.195 C 
HETATM    5  C   UNL     1       3.698  30.598  52.426  1.00  0.00     0.247 C 
HETATM    6  O   UNL     1       4.322  31.516  52.931  1.00  0.00    -0.271 OA
HETATM    7  N   UNL     1       2.499  30.731  51.748  1.00  0.00    -0.290 N 
HETATM    8  N   UNL     1       1.989  29.520  51.263  1.00  0.00    -0.228 NA
HETATM    9  H   UNL     1       2.083  31.641  51.576  1.00  0.00     0.183 HD
HETATM   10  C   UNL     1       3.129  28.562  51.367  1.00  0.00     0.134 C 
HETATM   11  H   UNL     1       1.736  29.630  50.275  1.00  0.00     0.147 HD
BRANCH  10  12
HETATM   12  C   UNL     1       3.724  28.347  49.981  1.00  0.00    -0.004 A 
HETATM   13  C   UNL     1       4.253  27.107  49.577  1.00  0.00     0.073 A 
HETATM   14  C   UNL     1       4.737  26.907  48.281  1.00  0.00     0.037 A 
HETATM   15  C   UNL     1       4.686  27.932  47.343  1.00  0.00     0.003 A 
HETATM   16  C   UNL     1       4.143  29.158  47.704  1.00  0.00     0.001 A 
HETATM   17  C   UNL     1       3.658  29.358  49.001  1.00  0.00     0.012 A 
BRANCH  13  18
HETATM   18  O   UNL     1       4.316  25.997  50.374  1.00  0.00    -0.360 OA
HETATM   19  H   UNL     1       5.233  25.733  50.542  1.00  0.00     0.217 HD
ENDBRANCH  13  18
ENDBRANCH  10  12
ENDBRANCH   2   4
BRANCH   1  20
HETATM   20  C   UNL     1       7.308  27.650  53.730  1.00  0.00     0.164 C 
BRANCH  20  21
HETATM   21  C   UNL     1       7.516  26.155  53.615  1.00  0.00    -0.040 A 
HETATM   22  C   UNL     1       7.640  25.361  54.766  1.00  0.00     0.009 A 
HETATM   23  C   UNL     1       7.847  23.985  54.661  1.00  0.00     0.001 A 
HETATM   24  C   UNL     1       7.928  23.385  53.405  1.00  0.00     0.000 A 
HETATM   25  C   UNL     1       7.796  24.159  52.254  1.00  0.00     0.001 A 
HETATM   26  C   UNL     1       7.588  25.537  52.359  1.00  0.00     0.009 A 
ENDBRANCH  20  21
ENDBRANCH   1  20
BRANCH   1  27
HETATM   27  C   UNL     1       5.172  27.917  54.976  1.00  0.00     0.164 C 
BRANCH  27  28
HETATM   28  C   UNL     1       5.738  28.767  56.088  1.00  0.00    -0.040 A 
HETATM   29  C   UNL     1       6.673  28.254  57.000  1.00  0.00     0.009 A 
HETATM   30  C   UNL     1       7.217  29.070  57.994  1.00  0.00     0.001 A 
HETATM   31  C   UNL     1       6.841  30.409  58.083  1.00  0.00     0.000 A 
HETATM   32  C   UNL     1       5.925  30.935  57.176  1.00  0.00     0.001 A 
HETATM   33  C   UNL     1       5.381  30.122  56.180  1.00  0.00     0.009 A 
ENDBRANCH  27  28
ENDBRANCH   1  27
TORSDOF 7
ENDMDL
MODEL 9
REMARK VINA RESULT:      -8.6      2.249      5.575
REMARK  7 active torsions:
REMARK  status: ('A' for Active; 'I' for Inactive)
REMARK    1  A    between atoms: C_4  and  C_5 
REMARK    2  A    between atoms: C_5  and  N_6 
REMARK       I    between atoms: N_6  and  C_7 
REMARK    3  A    between atoms: N_6  and  C_22 
REMARK    4  A    between atoms: C_7  and  C_8 
REMARK    5  A    between atoms: C_13  and  C_14 
REMARK    6  A    between atoms: C_15  and  O_16 
REMARK    7  A    between atoms: C_22  and  C_23 
ROOT
HETATM    1  N   UNL     1       6.897  24.740  53.162  1.00  0.00    -0.343 N 
HETATM    2  C   UNL     1       6.577  25.927  52.499  1.00  0.00     0.235 C 
HETATM    3  O   UNL     1       7.276  26.332  51.566  1.00  0.00    -0.272 OA
ENDROOT
BRANCH   2   4
HETATM    4  C   UNL     1       5.346  26.697  52.925  1.00  0.00     0.195 C 
HETATM    5  C   UNL     1       5.580  28.063  53.490  1.00  0.00     0.247 C 
HETATM    6  O   UNL     1       6.506  28.442  54.186  1.00  0.00    -0.271 OA
HETATM    7  N   UNL     1       4.455  28.812  53.190  1.00  0.00    -0.290 N 
HETATM    8  N   UNL     1       3.539  28.145  52.366  1.00  0.00    -0.228 NA
HETATM    9  H   UNL     1       4.358  29.775  53.496  1.00  0.00     0.183 HD
HETATM   10  C   UNL     1       4.295  26.975  51.830  1.00  0.00     0.134 C 
HETATM   11  H   UNL     1       3.276  28.757  51.586  1.00  0.00     0.147 HD
BRANCH  10  12
HETATM   12  C   UNL     1       4.696  27.263  50.387  1.00  0.00    -0.004 A 
HETATM   13  C   UNL     1       4.405  26.372  49.337  1.00  0.00     0.073 A 
HETATM   14  C   UNL     1       4.721  26.679  48.010  1.00  0.00     0.037 A 
HETATM   15  C   UNL     1       5.317  27.894  47.691  1.00  0.00     0.003 A 
HETATM   16  C   UNL     1       5.590  28.805  48.702  1.00  0.00     0.001 A 
HETATM   17  C   UNL     1       5.273  28.498  50.030  1.00  0.00     0.012 A 
BRANCH  13  18
HETATM   18  O   UNL     1       3.774  25.169  49.497  1.00  0.00    -0.360 OA
HETATM   19  H   UNL     1       2.821  25.284  49.633  1.00  0.00     0.217 HD
ENDBRANCH  13  18
ENDBRANCH  10  12
ENDBRANCH   2   4
BRANCH   1  20
HETATM   20  C   UNL     1       8.101  24.021  52.734  1.00  0.00     0.164 C 
BRANCH  20  21
HETATM   21  C   UNL     1       8.268  22.688  53.434  1.00  0.00    -0.040 A 
HETATM   22  C   UNL     1       8.991  22.598  54.634  1.00  0.00     0.009 A 
HETATM   23  C   UNL     1       9.158  21.367  55.271  1.00  0.00     0.001 A 
HETATM   24  C   UNL     1       8.602  20.214  54.719  1.00  0.00     0.000 A 
HETATM   25  C   UNL     1       7.874  20.291  53.534  1.00  0.00     0.001 A 
HETATM   26  C   UNL     1       7.705  21.522  52.896  1.00  0.00     0.009 A 
ENDBRANCH  20  21
ENDBRANCH   1  20
BRANCH   1  27
HETATM   27  C   UNL     1       6.302  24.306  54.429  1.00  0.00     0.164 C 
BRANCH  27  28
HETATM   28  C   UNL     1       6.557  25.240  55.587  1.00  0.00    -0.040 A 
HETATM   29  C   UNL     1       7.853  25.667  55.913  1.00  0.00     0.009 A 
HETATM   30  C   UNL     1       8.061  26.566  56.961  1.00  0.00     0.001 A 
HETATM   31  C   UNL     1       6.979  27.056  57.688  1.00  0.00     0.000 A 
HETATM   32  C   UNL     1       5.686  26.653  57.366  1.00  0.00     0.001 A 
HETATM   33  C   UNL     1       5.474  25.756  56.317  1.00  0.00     0.009 A 
ENDBRANCH  27  28
ENDBRANCH   1  27
TORSDOF 7
ENDMDL
MODEL 10
REMARK VINA RESULT:      -8.4      2.296      6.123
REMARK  7 active torsions:
REMARK  status: ('A' for Active; 'I' for Inactive)
REMARK    1  A    between atoms: C_4  and  C_5 
REMARK    2  A    between atoms: C_5  and  N_6 
REMARK       I    between atoms: N_6  and  C_7 
REMARK    3  A    between atoms: N_6  and  C_22 
REMARK    4  A    between atoms: C_7  and  C_8 
REMARK    5  A    between atoms: C_13  and  C_14 
REMARK    6  A    between atoms: C_15  and  O_16 
REMARK    7  A    between atoms: C_22  and  C_23 
ROOT
HETATM    1  N   UNL     1       5.326  27.369  54.000  1.00  0.00    -0.343 N 
HETATM    2  C   UNL     1       5.522  26.179  54.706  1.00  0.00     0.235 C 
HETATM    3  O   UNL     1       4.862  25.173  54.434  1.00  0.00    -0.272 OA
ENDROOT
BRANCH   2   4
HETATM    4  C   UNL     1       6.574  26.137  55.793  1.00  0.00     0.195 C 
HETATM    5  C   UNL     1       6.149  25.558  57.106  1.00  0.00     0.247 C 
HETATM    6  O   UNL     1       5.063  25.648  57.652  1.00  0.00    -0.271 OA
HETATM    7  N   UNL     1       7.281  25.000  57.676  1.00  0.00    -0.290 N 
HETATM    8  N   UNL     1       8.400  25.016  56.834  1.00  0.00    -0.228 NA
HETATM    9  H   UNL     1       7.256  24.566  58.593  1.00  0.00     0.183 HD
HETATM   10  C   UNL     1       7.852  25.330  55.482  1.00  0.00     0.134 C 
HETATM   11  H   UNL     1       8.823  24.082  56.814  1.00  0.00     0.147 HD
BRANCH  10  12
HETATM   12  C   UNL     1       7.812  24.050  54.654  1.00  0.00    -0.004 A 
HETATM   13  C   UNL     1       7.969  24.058  53.255  1.00  0.00     0.073 A 
HETATM   14  C   UNL     1       7.994  22.871  52.517  1.00  0.00     0.037 A 
HETATM   15  C   UNL     1       7.887  21.641  53.157  1.00  0.00     0.003 A 
HETATM   16  C   UNL     1       7.760  21.600  54.539  1.00  0.00     0.001 A 
HETATM   17  C   UNL     1       7.735  22.788  55.278  1.00  0.00     0.012 A 
BRANCH  13  18
HETATM   18  O   UNL     1       8.140  25.187  52.503  1.00  0.00    -0.360 OA
HETATM   19  H   UNL     1       8.971  25.160  52.006  1.00  0.00     0.217 HD
ENDBRANCH  13  18
ENDBRANCH  10  12
ENDBRANCH   2   4
BRANCH   1  20
HETATM   20  C   UNL     1       4.293  27.384  52.958  1.00  0.00     0.164 C 
BRANCH  20  21
HETATM   21  C   UNL     1       4.810  27.885  51.627  1.00  0.00    -0.040 A 
HETATM   22  C   UNL     1       5.148  29.237  51.455  1.00  0.00     0.009 A 
HETATM   23  C   UNL     1       5.610  29.702  50.223  1.00  0.00     0.001 A 
HETATM   24  C   UNL     1       5.744  28.823  49.150  1.00  0.00     0.000 A 
HETATM   25  C   UNL     1       5.421  27.477  49.309  1.00  0.00     0.001 A 
HETATM   26  C   UNL     1       4.960  27.009  50.542  1.00  0.00     0.009 A 
ENDBRANCH  20  21
ENDBRANCH   1  20
BRANCH   1  27
HETATM   27  C   UNL     1       5.857  28.675  54.400  1.00  0.00     0.164 C 
BRANCH  27  28
HETATM   28  C   UNL     1       4.925  29.481  55.274  1.00  0.00    -0.040 A 
HETATM   29  C   UNL     1       3.982  30.360  54.723  1.00  0.00     0.009 A 
HETATM   30  C   UNL     1       3.101  31.063  55.547  1.00  0.00     0.001 A 
HETATM   31  C   UNL     1       3.146  30.889  56.929  1.00  0.00     0.000 A 
HETATM   32  C   UNL     1       4.068  30.008  57.488  1.00  0.00     0.001 A 
HETATM   33  C   UNL     1       4.948  29.303  56.666  1.00  0.00     0.009 A 
ENDBRANCH  27  28
ENDBRANCH   1  27
TORSDOF 7
ENDMDL
