MODEL 1
REMARK VINA RESULT:      -9.7      0.000      0.000
REMARK  5 active torsions:
REMARK  status: ('A' for Active; 'I' for Inactive)
REMARK    1  A    between atoms: C_7  and  C_8 
REMARK    2  A    between atoms: N_9  and  N_10 
REMARK       I    between atoms: N_10  and  C_11 
REMARK    3  A    between atoms: C_11  and  C_12 
REMARK    4  A    between atoms: C_12  and  N_13 
REMARK       I    between atoms: N_13  and  C_14 
REMARK    5  A    between atoms: C_14  and  C_15 
ROOT
HETATM    1  N   UNL     1       5.495  26.083  56.328  1.00  0.00    -0.246 N 
HETATM    2  C   UNL     1       5.213  27.389  55.957  1.00  0.00     0.255 C 
HETATM    3  O   UNL     1       5.220  27.821  54.806  1.00  0.00    -0.270 OA
HETATM    4  H   UNL     1       5.592  25.861  57.322  1.00  0.00     0.192 HD
ENDROOT
BRANCH   1   5
HETATM    5  N   UNL     1       5.793  25.144  55.386  1.00  0.00    -0.184 NA
HETATM    6  C   UNL     1       7.032  24.774  55.348  1.00  0.00     0.153 C 
BRANCH   6   7
HETATM    7  C   UNL     1       7.478  23.801  54.368  1.00  0.00     0.018 A 
HETATM    8  C   UNL     1       7.616  23.994  52.998  1.00  0.00     0.018 A 
HETATM    9  C   UNL     1       7.361  25.190  52.149  1.00  0.00     0.069 C 
HETATM   10  N   UNL     1       8.078  22.823  52.454  1.00  0.00    -0.358 N 
HETATM   11  H   UNL     1       8.274  22.677  51.474  1.00  0.00     0.166 HD
HETATM   12  C   UNL     1       8.243  21.867  53.427  1.00  0.00     0.043 A 
HETATM   13  C   UNL     1       7.872  22.448  54.639  1.00  0.00     0.004 A 
HETATM   14  C   UNL     1       8.690  20.544  53.322  1.00  0.00     0.030 A 
HETATM   15  C   UNL     1       7.946  21.657  55.808  1.00  0.00     0.014 A 
HETATM   16  C   UNL     1       8.386  20.331  55.720  1.00  0.00     0.001 A 
HETATM   17  C   UNL     1       8.753  19.785  54.493  1.00  0.00     0.002 A 
ENDBRANCH   6   7
ENDBRANCH   1   5
BRANCH   2  18
HETATM   18  C   UNL     1       5.004  28.322  57.153  1.00  0.00     0.227 C 
BRANCH  18  19
HETATM   19  N   UNL     1       6.144  29.182  57.455  1.00  0.00    -0.348 N 
HETATM   20  C   UNL     1       7.358  28.669  57.849  1.00  0.00     0.252 C 
HETATM   21  O   UNL     1       7.485  27.476  58.114  1.00  0.00    -0.268 OA
HETATM   22  H   UNL     1       5.973  30.177  57.459  1.00  0.00     0.163 HD
BRANCH  20  23
HETATM   23  C   UNL     1       8.508  29.606  58.009  1.00  0.00     0.033 A 
HETATM   24  C   UNL     1       8.527  30.422  59.150  1.00  0.00     0.041 A 
HETATM   25  C   UNL     1       9.584  31.307  59.360  1.00  0.00     0.035 A 
HETATM   26 CL   UNL     1       9.599  32.299  60.765  1.00  0.00    -0.084 Cl
HETATM   27  C   UNL     1      10.629  31.390  58.445  1.00  0.00     0.024 A 
HETATM   28  C   UNL     1      10.623  30.576  57.313  1.00  0.00     0.003 A 
HETATM   29  C   UNL     1       9.570  29.682  57.095  1.00  0.00     0.017 A 
ENDBRANCH  20  23
ENDBRANCH  18  19
ENDBRANCH   2  18
TORSDOF 5
ENDMDL
MODEL 2
REMARK VINA RESULT:      -9.5      2.239      2.903
REMARK  5 active torsions:
REMARK  status: ('A' for Active; 'I' for Inactive)
REMARK    1  A    between atoms: C_7  and  C_8 
REMARK    2  A    between atoms: N_9  and  N_10 
REMARK       I    between atoms: N_10  and  C_11 
REMARK    3  A    between atoms: C_11  and  C_12 
REMARK    4  A    between atoms: C_12  and  N_13 
REMARK       I    between atoms: N_13  and  C_14 
REMARK    5  A    between atoms: C_14  and  C_15 
ROOT
HETATM    1  N   UNL     1       7.178  27.541  55.695  1.00  0.00    -0.246 N 
HETATM    2  C   UNL     1       7.696  28.087  56.860  1.00  0.00     0.255 C 
HETATM    3  O   UNL     1       8.673  27.663  57.475  1.00  0.00    -0.270 OA
HETATM    4  H   UNL     1       6.286  27.890  55.340  1.00  0.00     0.192 HD
ENDROOT
BRANCH   1   5
HETATM    5  N   UNL     1       7.766  26.453  55.120  1.00  0.00    -0.184 NA
HETATM    6  C   UNL     1       7.005  25.415  55.000  1.00  0.00     0.153 C 
BRANCH   6   7
HETATM    7  C   UNL     1       7.524  24.185  54.428  1.00  0.00     0.018 A 
HETATM    8  C   UNL     1       7.747  23.917  53.083  1.00  0.00     0.018 A 
HETATM    9  C   UNL     1       7.534  24.754  51.870  1.00  0.00     0.069 C 
HETATM   10  N   UNL     1       8.257  22.647  52.988  1.00  0.00    -0.358 N 
HETATM   11  H   UNL     1       8.516  22.190  52.125  1.00  0.00     0.166 HD
HETATM   12  C   UNL     1       8.370  22.075  54.231  1.00  0.00     0.043 A 
HETATM   13  C   UNL     1       7.915  23.013  55.157  1.00  0.00     0.004 A 
HETATM   14  C   UNL     1       8.838  20.807  54.599  1.00  0.00     0.030 A 
HETATM   15  C   UNL     1       7.923  22.659  56.525  1.00  0.00     0.014 A 
HETATM   16  C   UNL     1       8.383  21.393  56.909  1.00  0.00     0.001 A 
HETATM   17  C   UNL     1       8.835  20.483  55.958  1.00  0.00     0.002 A 
ENDBRANCH   6   7
ENDBRANCH   1   5
BRANCH   2  18
HETATM   18  C   UNL     1       6.848  29.235  57.414  1.00  0.00     0.227 C 
BRANCH  18  19
HETATM   19  N   UNL     1       7.317  29.775  58.686  1.00  0.00    -0.348 N 
HETATM   20  C   UNL     1       7.155  31.101  59.017  1.00  0.00     0.252 C 
HETATM   21  O   UNL     1       6.754  31.916  58.190  1.00  0.00    -0.268 OA
HETATM   22  H   UNL     1       7.854  29.153  59.273  1.00  0.00     0.163 HD
BRANCH  20  23
HETATM   23  C   UNL     1       7.541  31.544  60.389  1.00  0.00     0.033 A 
HETATM   24  C   UNL     1       6.843  32.628  60.942  1.00  0.00     0.041 A 
HETATM   25  C   UNL     1       7.149  33.076  62.226  1.00  0.00     0.035 A 
HETATM   26 CL   UNL     1       6.283  34.403  62.896  1.00  0.00    -0.084 Cl
HETATM   27  C   UNL     1       8.146  32.455  62.972  1.00  0.00     0.024 A 
HETATM   28  C   UNL     1       8.839  31.370  62.434  1.00  0.00     0.003 A 
HETATM   29  C   UNL     1       8.536  30.911  61.149  1.00  0.00     0.017 A 
ENDBRANCH  20  23
ENDBRANCH  18  19
ENDBRANCH   2  18
TORSDOF 5
ENDMDL
MODEL 3
REMARK VINA RESULT:      -9.4      5.034      7.768
REMARK  5 active torsions:
REMARK  status: ('A' for Active; 'I' for Inactive)
REMARK    1  A    between atoms: C_7  and  C_8 
REMARK    2  A    between atoms: N_9  and  N_10 
REMARK       I    between atoms: N_10  and  C_11 
REMARK    3  A    between atoms: C_11  and  C_12 
REMARK    4  A    between atoms: C_12  and  N_13 
REMARK       I    between atoms: N_13  and  C_14 
REMARK    5  A    between atoms: C_14  and  C_15 
ROOT
HETATM    1  N   UNL     1       4.814  26.227  53.543  1.00  0.00    -0.246 N 
HETATM    2  C   UNL     1       4.765  27.547  53.965  1.00  0.00     0.255 C 
HETATM    3  O   UNL     1       5.164  27.966  55.051  1.00  0.00    -0.270 OA
HETATM    4  H   UNL     1       4.335  25.967  52.679  1.00  0.00     0.192 HD
ENDROOT
BRANCH   1   5
HETATM    5  N   UNL     1       5.354  25.265  54.344  1.00  0.00    -0.184 NA
HETATM    6  C   UNL     1       6.606  25.014  54.136  1.00  0.00     0.153 C 
BRANCH   6   7
HETATM    7  C   UNL     1       7.287  23.989  54.906  1.00  0.00     0.018 A 
HETATM    8  C   UNL     1       7.647  24.051  56.247  1.00  0.00     0.018 A 
HETATM    9  C   UNL     1       7.464  25.125  57.261  1.00  0.00     0.069 C 
HETATM   10  N   UNL     1       8.254  22.864  56.573  1.00  0.00    -0.358 N 
HETATM   11  H   UNL     1       8.615  22.630  57.487  1.00  0.00     0.166 HD
HETATM   12  C   UNL     1       8.305  22.030  55.483  1.00  0.00     0.043 A 
HETATM   13  C   UNL     1       7.710  22.707  54.420  1.00  0.00     0.004 A 
HETATM   14  C   UNL     1       8.831  20.737  55.364  1.00  0.00     0.030 A 
HETATM   15  C   UNL     1       7.643  22.056  53.168  1.00  0.00     0.014 A 
HETATM   16  C   UNL     1       8.168  20.765  53.030  1.00  0.00     0.001 A 
HETATM   17  C   UNL     1       8.751  20.117  54.114  1.00  0.00     0.002 A 
ENDBRANCH   6   7
ENDBRANCH   1   5
BRANCH   2  18
HETATM   18  C   UNL     1       4.033  28.466  52.983  1.00  0.00     0.227 C 
BRANCH  18  19
HETATM   19  N   UNL     1       3.568  27.803  51.767  1.00  0.00    -0.348 N 
HETATM   20  C   UNL     1       3.802  28.331  50.518  1.00  0.00     0.252 C 
HETATM   21  O   UNL     1       4.271  29.458  50.384  1.00  0.00    -0.268 OA
HETATM   22  H   UNL     1       2.982  26.991  51.889  1.00  0.00     0.163 HD
BRANCH  20  23
HETATM   23  C   UNL     1       3.413  27.526  49.323  1.00  0.00     0.033 A 
HETATM   24  C   UNL     1       2.183  27.821  48.714  1.00  0.00     0.041 A 
HETATM   25  C   UNL     1       1.773  27.113  47.586  1.00  0.00     0.035 A 
HETATM   26 CL   UNL     1       0.266  27.485  46.845  1.00  0.00    -0.084 Cl
HETATM   27  C   UNL     1       2.576  26.110  47.051  1.00  0.00     0.024 A 
HETATM   28  C   UNL     1       3.804  25.816  47.643  1.00  0.00     0.003 A 
HETATM   29  C   UNL     1       4.225  26.524  48.773  1.00  0.00     0.017 A 
ENDBRANCH  20  23
ENDBRANCH  18  19
ENDBRANCH   2  18
TORSDOF 5
ENDMDL
MODEL 4
REMARK VINA RESULT:      -9.1      3.555      5.146
REMARK  5 active torsions:
REMARK  status: ('A' for Active; 'I' for Inactive)
REMARK    1  A    between atoms: C_7  and  C_8 
REMARK    2  A    between atoms: N_9  and  N_10 
REMARK       I    between atoms: N_10  and  C_11 
REMARK    3  A    between atoms: C_11  and  C_12 
REMARK    4  A    between atoms: C_12  and  N_13 
REMARK       I    between atoms: N_13  and  C_14 
REMARK    5  A    between atoms: C_14  and  C_15 
ROOT
HETATM    1  N   UNL     1       8.386  28.813  57.754  1.00  0.00    -0.246 N 
HETATM    2  C   UNL     1       7.773  29.828  58.474  1.00  0.00     0.255 C 
HETATM    3  O   UNL     1       6.728  30.395  58.161  1.00  0.00    -0.270 OA
HETATM    4  H   UNL     1       9.319  28.504  58.033  1.00  0.00     0.192 HD
ENDROOT
BRANCH   1   5
HETATM    5  N   UNL     1       7.824  28.345  56.603  1.00  0.00    -0.184 NA
HETATM    6  C   UNL     1       7.022  27.341  56.749  1.00  0.00     0.153 C 
BRANCH   6   7
HETATM    7  C   UNL     1       6.384  26.736  55.594  1.00  0.00     0.018 A 
HETATM    8  C   UNL     1       5.234  27.173  54.949  1.00  0.00     0.018 A 
HETATM    9  C   UNL     1       4.340  28.332  55.221  1.00  0.00     0.069 C 
HETATM   10  N   UNL     1       4.993  26.322  53.900  1.00  0.00    -0.358 N 
HETATM   11  H   UNL     1       4.221  26.404  53.254  1.00  0.00     0.166 HD
HETATM   12  C   UNL     1       5.950  25.339  53.843  1.00  0.00     0.043 A 
HETATM   13  C   UNL     1       6.836  25.567  54.895  1.00  0.00     0.004 A 
HETATM   14  C   UNL     1       6.092  24.273  52.945  1.00  0.00     0.030 A 
HETATM   15  C   UNL     1       7.920  24.676  55.060  1.00  0.00     0.014 A 
HETATM   16  C   UNL     1       8.074  23.603  54.174  1.00  0.00     0.001 A 
HETATM   17  C   UNL     1       7.173  23.407  53.132  1.00  0.00     0.002 A 
ENDBRANCH   6   7
ENDBRANCH   1   5
BRANCH   2  18
HETATM   18  C   UNL     1       8.598  30.293  59.677  1.00  0.00     0.227 C 
BRANCH  18  19
HETATM   19  N   UNL     1       7.812  30.876  60.761  1.00  0.00    -0.348 N 
HETATM   20  C   UNL     1       8.372  31.721  61.692  1.00  0.00     0.252 C 
HETATM   21  O   UNL     1       9.588  31.890  61.742  1.00  0.00    -0.268 OA
HETATM   22  H   UNL     1       6.859  30.555  60.855  1.00  0.00     0.163 HD
BRANCH  20  23
HETATM   23  C   UNL     1       7.474  32.379  62.685  1.00  0.00     0.033 A 
HETATM   24  C   UNL     1       6.117  32.502  62.352  1.00  0.00     0.041 A 
HETATM   25  C   UNL     1       5.227  33.095  63.247  1.00  0.00     0.035 A 
HETATM   26 CL   UNL     1       3.564  33.236  62.831  1.00  0.00    -0.084 Cl
HETATM   27  C   UNL     1       5.674  33.570  64.477  1.00  0.00     0.024 A 
HETATM   28  C   UNL     1       7.020  33.444  64.820  1.00  0.00     0.003 A 
HETATM   29  C   UNL     1       7.918  32.847  63.930  1.00  0.00     0.017 A 
ENDBRANCH  20  23
ENDBRANCH  18  19
ENDBRANCH   2  18
TORSDOF 5
ENDMDL
MODEL 5
REMARK VINA RESULT:      -9.0      3.373      9.390
REMARK  5 active torsions:
REMARK  status: ('A' for Active; 'I' for Inactive)
REMARK    1  A    between atoms: C_7  and  C_8 
REMARK    2  A    between atoms: N_9  and  N_10 
REMARK       I    between atoms: N_10  and  C_11 
REMARK    3  A    between atoms: C_11  and  C_12 
REMARK    4  A    between atoms: C_12  and  N_13 
REMARK       I    between atoms: N_13  and  C_14 
REMARK    5  A    between atoms: C_14  and  C_15 
ROOT
HETATM    1  N   UNL     1       6.050  29.033  56.338  1.00  0.00    -0.246 N 
HETATM    2  C   UNL     1       7.012  28.047  56.176  1.00  0.00     0.255 C 
HETATM    3  O   UNL     1       7.813  27.683  57.035  1.00  0.00    -0.270 OA
HETATM    4  H   UNL     1       5.526  29.350  55.520  1.00  0.00     0.192 HD
ENDROOT
BRANCH   1   5
HETATM    5  N   UNL     1       5.915  29.678  57.531  1.00  0.00    -0.184 NA
HETATM    6  C   UNL     1       6.515  30.821  57.611  1.00  0.00     0.153 C 
BRANCH   6   7
HETATM    7  C   UNL     1       6.467  31.592  58.840  1.00  0.00     0.018 A 
HETATM    8  C   UNL     1       5.509  32.531  59.202  1.00  0.00     0.018 A 
HETATM    9  C   UNL     1       4.300  33.021  58.487  1.00  0.00     0.069 C 
HETATM   10  N   UNL     1       5.837  33.005  60.448  1.00  0.00    -0.358 N 
HETATM   11  H   UNL     1       5.311  33.698  60.961  1.00  0.00     0.166 HD
HETATM   12  C   UNL     1       6.984  32.406  60.909  1.00  0.00     0.043 A 
HETATM   13  C   UNL     1       7.407  31.516  59.922  1.00  0.00     0.004 A 
HETATM   14  C   UNL     1       7.671  32.586  62.116  1.00  0.00     0.030 A 
HETATM   15  C   UNL     1       8.585  30.772  60.155  1.00  0.00     0.014 A 
HETATM   16  C   UNL     1       9.286  30.943  61.355  1.00  0.00     0.001 A 
HETATM   17  C   UNL     1       8.832  31.837  62.320  1.00  0.00     0.002 A 
ENDBRANCH   6   7
ENDBRANCH   1   5
BRANCH   2  18
HETATM   18  C   UNL     1       7.086  27.508  54.745  1.00  0.00     0.227 C 
BRANCH  18  19
HETATM   19  N   UNL     1       7.532  26.122  54.642  1.00  0.00    -0.348 N 
HETATM   20  C   UNL     1       6.642  25.075  54.573  1.00  0.00     0.252 C 
HETATM   21  O   UNL     1       5.440  25.253  54.755  1.00  0.00    -0.268 OA
HETATM   22  H   UNL     1       8.525  25.958  54.723  1.00  0.00     0.163 HD
BRANCH  20  23
HETATM   23  C   UNL     1       7.176  23.702  54.334  1.00  0.00     0.033 A 
HETATM   24  C   UNL     1       7.388  22.884  55.454  1.00  0.00     0.041 A 
HETATM   25  C   UNL     1       7.871  21.586  55.292  1.00  0.00     0.035 A 
HETATM   26 CL   UNL     1       8.121  20.590  56.671  1.00  0.00    -0.084 Cl
HETATM   27  C   UNL     1       8.148  21.089  54.022  1.00  0.00     0.024 A 
HETATM   28  C   UNL     1       7.932  21.893  52.902  1.00  0.00     0.003 A 
HETATM   29  C   UNL     1       7.443  23.194  53.055  1.00  0.00     0.017 A 
ENDBRANCH  20  23
ENDBRANCH  18  19
ENDBRANCH   2  18
TORSDOF 5
ENDMDL
MODEL 6
REMARK VINA RESULT:      -9.0      2.935      8.627
REMARK  5 active torsions:
REMARK  status: ('A' for Active; 'I' for Inactive)
REMARK    1  A    between atoms: C_7  and  C_8 
REMARK    2  A    between atoms: N_9  and  N_10 
REMARK       I    between atoms: N_10  and  C_11 
REMARK    3  A    between atoms: C_11  and  C_12 
REMARK    4  A    between atoms: C_12  and  N_13 
REMARK       I    between atoms: N_13  and  C_14 
REMARK    5  A    between atoms: C_14  and  C_15 
ROOT
HETATM    1  N   UNL     1       5.276  27.640  54.538  1.00  0.00    -0.246 N 
HETATM    2  C   UNL     1       6.211  27.053  53.700  1.00  0.00     0.255 C 
HETATM    3  O   UNL     1       7.358  27.457  53.515  1.00  0.00    -0.270 OA
HETATM    4  H   UNL     1       4.311  27.301  54.517  1.00  0.00     0.192 HD
ENDROOT
BRANCH   1   5
HETATM    5  N   UNL     1       5.595  28.749  55.263  1.00  0.00    -0.184 NA
HETATM    6  C   UNL     1       5.751  28.554  56.532  1.00  0.00     0.153 C 
BRANCH   6   7
HETATM    7  C   UNL     1       6.066  29.663  57.413  1.00  0.00     0.018 A 
HETATM    8  C   UNL     1       5.165  30.530  58.022  1.00  0.00     0.018 A 
HETATM    9  C   UNL     1       3.680  30.595  57.965  1.00  0.00     0.069 C 
HETATM   10  N   UNL     1       5.886  31.418  58.780  1.00  0.00    -0.358 N 
HETATM   11  H   UNL     1       5.487  32.160  59.337  1.00  0.00     0.166 HD
HETATM   12  C   UNL     1       7.231  31.160  58.682  1.00  0.00     0.043 A 
HETATM   13  C   UNL     1       7.379  30.067  57.829  1.00  0.00     0.004 A 
HETATM   14  C   UNL     1       8.318  31.810  59.282  1.00  0.00     0.030 A 
HETATM   15  C   UNL     1       8.685  29.605  57.556  1.00  0.00     0.014 A 
HETATM   16  C   UNL     1       9.783  30.246  58.144  1.00  0.00     0.001 A 
HETATM   17  C   UNL     1       9.599  31.331  58.995  1.00  0.00     0.002 A 
ENDBRANCH   6   7
ENDBRANCH   1   5
BRANCH   2  18
HETATM   18  C   UNL     1       5.644  25.883  52.892  1.00  0.00     0.227 C 
BRANCH  18  19
HETATM   19  N   UNL     1       6.065  24.565  53.358  1.00  0.00    -0.348 N 
HETATM   20  C   UNL     1       7.236  23.983  52.930  1.00  0.00     0.252 C 
HETATM   21  O   UNL     1       7.893  24.478  52.017  1.00  0.00    -0.268 OA
HETATM   22  H   UNL     1       5.410  24.057  53.934  1.00  0.00     0.163 HD
BRANCH  20  23
HETATM   23  C   UNL     1       7.660  22.696  53.555  1.00  0.00     0.033 A 
HETATM   24  C   UNL     1       7.777  22.661  54.953  1.00  0.00     0.041 A 
HETATM   25  C   UNL     1       8.155  21.482  55.595  1.00  0.00     0.035 A 
HETATM   26 CL   UNL     1       8.289  21.449  57.309  1.00  0.00    -0.084 Cl
HETATM   27  C   UNL     1       8.419  20.330  54.859  1.00  0.00     0.024 A 
HETATM   28  C   UNL     1       8.297  20.354  53.470  1.00  0.00     0.003 A 
HETATM   29  C   UNL     1       7.914  21.530  52.818  1.00  0.00     0.017 A 
ENDBRANCH  20  23
ENDBRANCH  18  19
ENDBRANCH   2  18
TORSDOF 5
ENDMDL
MODEL 7
REMARK VINA RESULT:      -8.6      4.056     10.308
REMARK  5 active torsions:
REMARK  status: ('A' for Active; 'I' for Inactive)
REMARK    1  A    between atoms: C_7  and  C_8 
REMARK    2  A    between atoms: N_9  and  N_10 
REMARK       I    between atoms: N_10  and  C_11 
REMARK    3  A    between atoms: C_11  and  C_12 
REMARK    4  A    between atoms: C_12  and  N_13 
REMARK       I    between atoms: N_13  and  C_14 
REMARK    5  A    between atoms: C_14  and  C_15 
ROOT
HETATM    1  N   UNL     1       7.182  30.244  57.910  1.00  0.00    -0.246 N 
HETATM    2  C   UNL     1       7.537  28.997  57.418  1.00  0.00     0.255 C 
HETATM    3  O   UNL     1       7.867  28.028  58.098  1.00  0.00    -0.270 OA
HETATM    4  H   UNL     1       7.054  31.016  57.253  1.00  0.00     0.192 HD
ENDROOT
BRANCH   1   5
HETATM    5  N   UNL     1       7.157  30.476  59.253  1.00  0.00    -0.184 NA
HETATM    6  C   UNL     1       7.600  31.634  59.621  1.00  0.00     0.153 C 
BRANCH   6   7
HETATM    7  C   UNL     1       7.651  31.989  61.028  1.00  0.00     0.018 A 
HETATM    8  C   UNL     1       8.470  31.431  62.002  1.00  0.00     0.018 A 
HETATM    9  C   UNL     1       9.494  30.354  61.920  1.00  0.00     0.069 C 
HETATM   10  N   UNL     1       8.204  32.069  63.187  1.00  0.00    -0.358 N 
HETATM   11  H   UNL     1       8.658  31.869  64.067  1.00  0.00     0.166 HD
HETATM   12  C   UNL     1       7.233  33.025  63.017  1.00  0.00     0.043 A 
HETATM   13  C   UNL     1       6.861  32.998  61.674  1.00  0.00     0.004 A 
HETATM   14  C   UNL     1       6.661  33.903  63.948  1.00  0.00     0.030 A 
HETATM   15  C   UNL     1       5.859  33.894  61.240  1.00  0.00     0.014 A 
HETATM   16  C   UNL     1       5.274  34.775  62.158  1.00  0.00     0.001 A 
HETATM   17  C   UNL     1       5.672  34.778  63.491  1.00  0.00     0.002 A 
ENDBRANCH   6   7
ENDBRANCH   1   5
BRANCH   2  18
HETATM   18  C   UNL     1       7.608  28.953  55.889  1.00  0.00     0.227 C 
BRANCH  18  19
HETATM   19  N   UNL     1       7.883  27.631  55.334  1.00  0.00    -0.348 N 
HETATM   20  C   UNL     1       6.876  26.812  54.874  1.00  0.00     0.252 C 
HETATM   21  O   UNL     1       5.695  27.096  55.058  1.00  0.00    -0.268 OA
HETATM   22  H   UNL     1       8.835  27.302  55.393  1.00  0.00     0.163 HD
BRANCH  20  23
HETATM   23  C   UNL     1       7.251  25.535  54.199  1.00  0.00     0.033 A 
HETATM   24  C   UNL     1       7.271  24.370  54.980  1.00  0.00     0.041 A 
HETATM   25  C   UNL     1       7.599  23.145  54.402  1.00  0.00     0.035 A 
HETATM   26 CL   UNL     1       7.615  21.721  55.367  1.00  0.00    -0.084 Cl
HETATM   27  C   UNL     1       7.908  23.063  53.047  1.00  0.00     0.024 A 
HETATM   28  C   UNL     1       7.882  24.215  52.261  1.00  0.00     0.003 A 
HETATM   29  C   UNL     1       7.550  25.448  52.832  1.00  0.00     0.017 A 
ENDBRANCH  20  23
ENDBRANCH  18  19
ENDBRANCH   2  18
TORSDOF 5
ENDMDL
MODEL 8
REMARK VINA RESULT:      -8.6      5.936      8.602
REMARK  5 active torsions:
REMARK  status: ('A' for Active; 'I' for Inactive)
REMARK    1  A    between atoms: C_7  and  C_8 
REMARK    2  A    between atoms: N_9  and  N_10 
REMARK       I    between atoms: N_10  and  C_11 
REMARK    3  A    between atoms: C_11  and  C_12 
REMARK    4  A    between atoms: C_12  and  N_13 
REMARK       I    between atoms: N_13  and  C_14 
REMARK    5  A    between atoms: C_14  and  C_15 
ROOT
HETATM    1  N   UNL     1       6.215  26.165  52.345  1.00  0.00    -0.246 N 
HETATM    2  C   UNL     1       5.272  26.048  51.335  1.00  0.00     0.255 C 
HETATM    3  O   UNL     1       4.608  25.043  51.090  1.00  0.00    -0.270 OA
HETATM    4  H   UNL     1       6.804  26.999  52.377  1.00  0.00     0.192 HD
ENDROOT
BRANCH   1   5
HETATM    5  N   UNL     1       6.462  25.119  53.185  1.00  0.00    -0.184 NA
HETATM    6  C   UNL     1       7.546  25.217  53.883  1.00  0.00     0.153 C 
BRANCH   6   7
HETATM    7  C   UNL     1       7.933  24.154  54.793  1.00  0.00     0.018 A 
HETATM    8  C   UNL     1       8.150  24.261  56.161  1.00  0.00     0.018 A 
HETATM    9  C   UNL     1       8.064  25.432  57.076  1.00  0.00     0.069 C 
HETATM   10  N   UNL     1       8.481  23.016  56.632  1.00  0.00    -0.358 N 
HETATM   11  H   UNL     1       8.688  22.798  57.596  1.00  0.00     0.166 HD
HETATM   12  C   UNL     1       8.490  22.097  55.611  1.00  0.00     0.043 A 
HETATM   13  C   UNL     1       8.154  22.780  54.442  1.00  0.00     0.004 A 
HETATM   14  C   UNL     1       8.771  20.725  55.637  1.00  0.00     0.030 A 
HETATM   15  C   UNL     1       8.102  22.049  53.234  1.00  0.00     0.014 A 
HETATM   16  C   UNL     1       8.384  20.678  53.242  1.00  0.00     0.001 A 
HETATM   17  C   UNL     1       8.712  20.028  54.428  1.00  0.00     0.002 A 
ENDBRANCH   6   7
ENDBRANCH   1   5
BRANCH   2  18
HETATM   18  C   UNL     1       5.204  27.282  50.431  1.00  0.00     0.227 C 
BRANCH  18  19
HETATM   19  N   UNL     1       4.118  27.260  49.457  1.00  0.00    -0.348 N 
HETATM   20  C   UNL     1       3.079  28.162  49.506  1.00  0.00     0.252 C 
HETATM   21  O   UNL     1       2.942  28.919  50.464  1.00  0.00    -0.268 OA
HETATM   22  H   UNL     1       4.110  26.492  48.802  1.00  0.00     0.163 HD
BRANCH  20  23
HETATM   23  C   UNL     1       2.081  28.157  48.396  1.00  0.00     0.033 A 
HETATM   24  C   UNL     1       1.482  29.380  48.056  1.00  0.00     0.041 A 
HETATM   25  C   UNL     1       0.554  29.440  47.018  1.00  0.00     0.035 A 
HETATM   26 CL   UNL     1      -0.170  30.945  46.606  1.00  0.00    -0.084 Cl
HETATM   27  C   UNL     1       0.212  28.292  46.309  1.00  0.00     0.024 A 
HETATM   28  C   UNL     1       0.809  27.074  46.634  1.00  0.00     0.003 A 
HETATM   29  C   UNL     1       1.745  27.005  47.671  1.00  0.00     0.017 A 
ENDBRANCH  20  23
ENDBRANCH  18  19
ENDBRANCH   2  18
TORSDOF 5
ENDMDL
MODEL 9
REMARK VINA RESULT:      -8.5      4.593     10.468
REMARK  5 active torsions:
REMARK  status: ('A' for Active; 'I' for Inactive)
REMARK    1  A    between atoms: C_7  and  C_8 
REMARK    2  A    between atoms: N_9  and  N_10 
REMARK       I    between atoms: N_10  and  C_11 
REMARK    3  A    between atoms: C_11  and  C_12 
REMARK    4  A    between atoms: C_12  and  N_13 
REMARK       I    between atoms: N_13  and  C_14 
REMARK    5  A    between atoms: C_14  and  C_15 
ROOT
HETATM    1  N   UNL     1       7.617  31.542  58.249  1.00  0.00    -0.246 N 
HETATM    2  C   UNL     1       8.140  30.262  58.351  1.00  0.00     0.255 C 
HETATM    3  O   UNL     1       8.452  29.700  59.399  1.00  0.00    -0.270 OA
HETATM    4  H   UNL     1       7.517  31.963  57.322  1.00  0.00     0.192 HD
ENDROOT
BRANCH   1   5
HETATM    5  N   UNL     1       7.387  32.288  59.367  1.00  0.00    -0.184 NA
HETATM    6  C   UNL     1       6.143  32.422  59.694  1.00  0.00     0.153 C 
BRANCH   6   7
HETATM    7  C   UNL     1       5.769  33.217  60.850  1.00  0.00     0.018 A 
HETATM    8  C   UNL     1       4.701  34.100  60.948  1.00  0.00     0.018 A 
HETATM    9  C   UNL     1       3.662  34.493  59.957  1.00  0.00     0.069 C 
HETATM   10  N   UNL     1       4.705  34.624  62.216  1.00  0.00    -0.358 N 
HETATM   11  H   UNL     1       4.036  35.293  62.568  1.00  0.00     0.166 HD
HETATM   12  C   UNL     1       5.747  34.111  62.950  1.00  0.00     0.043 A 
HETATM   13  C   UNL     1       6.437  33.228  62.120  1.00  0.00     0.004 A 
HETATM   14  C   UNL     1       6.125  34.365  64.274  1.00  0.00     0.030 A 
HETATM   15  C   UNL     1       7.570  32.567  62.645  1.00  0.00     0.014 A 
HETATM   16  C   UNL     1       7.965  32.813  63.966  1.00  0.00     0.001 A 
HETATM   17  C   UNL     1       7.250  33.698  64.767  1.00  0.00     0.002 A 
ENDBRANCH   6   7
ENDBRANCH   1   5
BRANCH   2  18
HETATM   18  C   UNL     1       8.426  29.619  56.991  1.00  0.00     0.227 C 
BRANCH  18  19
HETATM   19  N   UNL     1       8.526  28.163  57.019  1.00  0.00    -0.348 N 
HETATM   20  C   UNL     1       7.593  27.359  56.405  1.00  0.00     0.252 C 
HETATM   21  O   UNL     1       6.555  27.830  55.946  1.00  0.00    -0.268 OA
HETATM   22  H   UNL     1       9.256  27.769  57.593  1.00  0.00     0.163 HD
BRANCH  20  23
HETATM   23  C   UNL     1       7.839  25.888  56.365  1.00  0.00     0.033 A 
HETATM   24  C   UNL     1       7.530  25.210  55.176  1.00  0.00     0.041 A 
HETATM   25  C   UNL     1       7.753  23.837  55.074  1.00  0.00     0.035 A 
HETATM   26 CL   UNL     1       7.376  23.018  53.610  1.00  0.00    -0.084 Cl
HETATM   27  C   UNL     1       8.284  23.127  56.147  1.00  0.00     0.024 A 
HETATM   28  C   UNL     1       8.602  23.794  57.330  1.00  0.00     0.003 A 
HETATM   29  C   UNL     1       8.386  25.171  57.439  1.00  0.00     0.017 A 
ENDBRANCH  20  23
ENDBRANCH  18  19
ENDBRANCH   2  18
TORSDOF 5
ENDMDL
MODEL 10
REMARK VINA RESULT:      -8.2      3.293      4.656
REMARK  5 active torsions:
REMARK  status: ('A' for Active; 'I' for Inactive)
REMARK    1  A    between atoms: C_7  and  C_8 
REMARK    2  A    between atoms: N_9  and  N_10 
REMARK       I    between atoms: N_10  and  C_11 
REMARK    3  A    between atoms: C_11  and  C_12 
REMARK    4  A    between atoms: C_12  and  N_13 
REMARK       I    between atoms: N_13  and  C_14 
REMARK    5  A    between atoms: C_14  and  C_15 
ROOT
HETATM    1  N   UNL     1       7.732  28.825  58.081  1.00  0.00    -0.246 N 
HETATM    2  C   UNL     1       8.785  29.727  58.119  1.00  0.00     0.255 C 
HETATM    3  O   UNL     1       9.517  30.011  57.173  1.00  0.00    -0.270 OA
HETATM    4  H   UNL     1       7.273  28.564  58.956  1.00  0.00     0.192 HD
ENDROOT
BRANCH   1   5
HETATM    5  N   UNL     1       7.415  28.180  56.923  1.00  0.00    -0.184 NA
HETATM    6  C   UNL     1       7.149  26.920  57.048  1.00  0.00     0.153 C 
BRANCH   6   7
HETATM    7  C   UNL     1       6.825  26.118  55.882  1.00  0.00     0.018 A 
HETATM    8  C   UNL     1       5.854  26.387  54.926  1.00  0.00     0.018 A 
HETATM    9  C   UNL     1       4.890  27.514  54.799  1.00  0.00     0.069 C 
HETATM   10  N   UNL     1       5.896  25.382  53.993  1.00  0.00    -0.358 N 
HETATM   11  H   UNL     1       5.300  25.322  53.179  1.00  0.00     0.166 HD
HETATM   12  C   UNL     1       6.863  24.461  54.314  1.00  0.00     0.043 A 
HETATM   13  C   UNL     1       7.463  24.892  55.496  1.00  0.00     0.004 A 
HETATM   14  C   UNL     1       7.246  23.289  53.648  1.00  0.00     0.030 A 
HETATM   15  C   UNL     1       8.498  24.103  56.046  1.00  0.00     0.014 A 
HETATM   16  C   UNL     1       8.890  22.926  55.396  1.00  0.00     0.001 A 
HETATM   17  C   UNL     1       8.272  22.528  54.214  1.00  0.00     0.002 A 
ENDBRANCH   6   7
ENDBRANCH   1   5
BRANCH   2  18
HETATM   18  C   UNL     1       9.056  30.274  59.523  1.00  0.00     0.227 C 
BRANCH  18  19
HETATM   19  N   UNL     1       7.867  30.730  60.235  1.00  0.00    -0.348 N 
HETATM   20  C   UNL     1       7.580  32.068  60.388  1.00  0.00     0.252 C 
HETATM   21  O   UNL     1       8.394  32.931  60.071  1.00  0.00    -0.268 OA
HETATM   22  H   UNL     1       7.314  30.023  60.697  1.00  0.00     0.163 HD
BRANCH  20  23
HETATM   23  C   UNL     1       6.278  32.449  61.011  1.00  0.00     0.033 A 
HETATM   24  C   UNL     1       6.258  32.659  62.398  1.00  0.00     0.041 A 
HETATM   25  C   UNL     1       5.074  33.031  63.032  1.00  0.00     0.035 A 
HETATM   26 CL   UNL     1       5.062  33.292  64.733  1.00  0.00    -0.084 Cl
HETATM   27  C   UNL     1       3.902  33.199  62.300  1.00  0.00     0.024 A 
HETATM   28  C   UNL     1       3.915  33.001  60.919  1.00  0.00     0.003 A 
HETATM   29  C   UNL     1       5.099  32.632  60.274  1.00  0.00     0.017 A 
ENDBRANCH  20  23
ENDBRANCH  18  19
ENDBRANCH   2  18
TORSDOF 5
ENDMDL
