MODEL 1
REMARK VINA RESULT:      -8.7      0.000      0.000
REMARK  4 active torsions:
REMARK  status: ('A' for Active; 'I' for Inactive)
REMARK    1  A    between atoms: C_6  and  N_7 
REMARK       I    between atoms: N_7  and  C_8 
REMARK    2  A    between atoms: C_8  and  C_9 
REMARK    3  A    between atoms: C_9  and  S_10 
REMARK    4  A    between atoms: S_10  and  C_11 
ROOT
HETATM    1  C   UNL     1       8.125  20.650  53.551  1.00  0.00     0.001 A 
HETATM    2  C   UNL     1       8.059  21.891  52.925  1.00  0.00     0.018 A 
HETATM    3  C   UNL     1       7.810  23.050  53.682  1.00  0.00     0.049 A 
HETATM    4  C   UNL     1       7.615  22.974  55.060  1.00  0.00     0.024 A 
HETATM    5  S   UNL     1       7.258  24.356  56.112  1.00  0.00    -0.053 SA
HETATM    6  C   UNL     1       7.382  25.676  55.004  1.00  0.00     0.154 A 
HETATM    7  N   UNL     1       7.596  25.527  53.721  1.00  0.00    -0.303 N 
HETATM    8  H   UNL     1       7.624  26.380  53.163  1.00  0.00     0.171 HD
HETATM    9  C   UNL     1       7.776  24.340  52.987  1.00  0.00     0.259 A 
HETATM   10  O   UNL     1       7.913  24.472  51.786  1.00  0.00    -0.267 OA
HETATM   11  C   UNL     1       7.688  21.714  55.675  1.00  0.00     0.020 A 
HETATM   12  C   UNL     1       7.943  20.561  54.928  1.00  0.00     0.001 A 
ENDROOT
BRANCH   6  13
HETATM   13  N   UNL     1       7.240  26.858  55.559  1.00  0.00    -0.306 N 
HETATM   14  C   UNL     1       6.409  27.924  55.116  1.00  0.00     0.233 C 
HETATM   15  O   UNL     1       5.741  27.711  54.113  1.00  0.00    -0.272 OA
HETATM   16  H   UNL     1       7.739  26.984  56.434  1.00  0.00     0.171 HD
BRANCH  14  17
HETATM   17  C   UNL     1       6.400  29.224  55.892  1.00  0.00     0.184 C 
BRANCH  17  18
HETATM   18  S   UNL     1       6.827  29.021  57.653  1.00  0.00    -0.101 SA
BRANCH  18  19
HETATM   19  C   UNL     1       8.498  29.635  57.630  1.00  0.00     0.093 A 
HETATM   20  N   UNL     1       9.352  28.989  56.799  1.00  0.00    -0.254 NA
HETATM   21  C   UNL     1      10.628  29.445  56.771  1.00  0.00     0.118 A 
HETATM   22  C   UNL     1      11.074  30.539  57.494  1.00  0.00     0.019 A 
HETATM   23  C   UNL     1      10.162  31.206  58.303  1.00  0.00     0.004 A 
HETATM   24  C   UNL     1       8.849  30.751  58.375  1.00  0.00     0.039 A 
ENDBRANCH  18  19
ENDBRANCH  17  18
ENDBRANCH  14  17
ENDBRANCH   6  13
TORSDOF 4
ENDMDL
MODEL 2
REMARK VINA RESULT:      -8.5      2.212      2.730
REMARK  4 active torsions:
REMARK  status: ('A' for Active; 'I' for Inactive)
REMARK    1  A    between atoms: C_6  and  N_7 
REMARK       I    between atoms: N_7  and  C_8 
REMARK    2  A    between atoms: C_8  and  C_9 
REMARK    3  A    between atoms: C_9  and  S_10 
REMARK    4  A    between atoms: S_10  and  C_11 
ROOT
HETATM    1  C   UNL     1       8.759  19.959  54.039  1.00  0.00     0.001 A 
HETATM    2  C   UNL     1       8.675  20.567  55.288  1.00  0.00     0.018 A 
HETATM    3  C   UNL     1       8.165  21.872  55.403  1.00  0.00     0.049 A 
HETATM    4  C   UNL     1       7.749  22.578  54.276  1.00  0.00     0.024 A 
HETATM    5  S   UNL     1       7.124  24.238  54.290  1.00  0.00    -0.053 SA
HETATM    6  C   UNL     1       7.067  24.571  55.985  1.00  0.00     0.154 A 
HETATM    7  N   UNL     1       7.501  23.743  56.900  1.00  0.00    -0.303 N 
HETATM    8  H   UNL     1       7.438  24.062  57.867  1.00  0.00     0.171 HD
HETATM    9  C   UNL     1       8.068  22.466  56.740  1.00  0.00     0.259 A 
HETATM   10  O   UNL     1       8.436  21.914  57.759  1.00  0.00    -0.267 OA
HETATM   11  C   UNL     1       7.838  21.947  53.025  1.00  0.00     0.020 A 
HETATM   12  C   UNL     1       8.337  20.647  52.907  1.00  0.00     0.001 A 
ENDROOT
BRANCH   6  13
HETATM   13  N   UNL     1       6.548  25.741  56.283  1.00  0.00    -0.306 N 
HETATM   14  C   UNL     1       7.050  26.694  57.211  1.00  0.00     0.233 C 
HETATM   15  O   UNL     1       8.091  26.398  57.785  1.00  0.00    -0.272 OA
HETATM   16  H   UNL     1       5.733  26.001  55.738  1.00  0.00     0.171 HD
BRANCH  14  17
HETATM   17  C   UNL     1       6.290  27.985  57.428  1.00  0.00     0.184 C 
BRANCH  17  18
HETATM   18  S   UNL     1       6.680  29.273  56.197  1.00  0.00    -0.101 SA
BRANCH  18  19
HETATM   19  C   UNL     1       8.318  29.716  56.734  1.00  0.00     0.093 A 
HETATM   20  N   UNL     1       8.394  30.363  57.922  1.00  0.00    -0.254 NA
HETATM   21  C   UNL     1       9.636  30.707  58.344  1.00  0.00     0.118 A 
HETATM   22  C   UNL     1      10.798  30.394  57.660  1.00  0.00     0.019 A 
HETATM   23  C   UNL     1      10.688  29.691  56.467  1.00  0.00     0.004 A 
HETATM   24  C   UNL     1       9.428  29.342  55.991  1.00  0.00     0.039 A 
ENDBRANCH  18  19
ENDBRANCH  17  18
ENDBRANCH  14  17
ENDBRANCH   6  13
TORSDOF 4
ENDMDL
MODEL 3
REMARK VINA RESULT:      -8.2      4.367      6.699
REMARK  4 active torsions:
REMARK  status: ('A' for Active; 'I' for Inactive)
REMARK    1  A    between atoms: C_6  and  N_7 
REMARK       I    between atoms: N_7  and  C_8 
REMARK    2  A    between atoms: C_8  and  C_9 
REMARK    3  A    between atoms: C_9  and  S_10 
REMARK    4  A    between atoms: S_10  and  C_11 
ROOT
HETATM    1  C   UNL     1       8.637  22.159  55.008  1.00  0.00     0.001 A 
HETATM    2  C   UNL     1       7.814  23.075  55.657  1.00  0.00     0.018 A 
HETATM    3  C   UNL     1       6.984  23.929  54.910  1.00  0.00     0.049 A 
HETATM    4  C   UNL     1       6.980  23.882  53.518  1.00  0.00     0.024 A 
HETATM    5  S   UNL     1       6.007  24.931  52.469  1.00  0.00    -0.053 SA
HETATM    6  C   UNL     1       5.069  25.804  53.628  1.00  0.00     0.154 A 
HETATM    7  N   UNL     1       5.220  25.682  54.922  1.00  0.00    -0.303 N 
HETATM    8  H   UNL     1       4.625  26.269  55.506  1.00  0.00     0.171 HD
HETATM    9  C   UNL     1       6.112  24.859  55.633  1.00  0.00     0.259 A 
HETATM   10  O   UNL     1       6.086  24.967  56.845  1.00  0.00    -0.267 OA
HETATM   11  C   UNL     1       7.815  22.950  52.880  1.00  0.00     0.020 A 
HETATM   12  C   UNL     1       8.636  22.094  53.619  1.00  0.00     0.001 A 
ENDROOT
BRANCH   6  13
HETATM   13  N   UNL     1       4.181  26.614  53.097  1.00  0.00    -0.306 N 
HETATM   14  C   UNL     1       4.197  28.036  53.108  1.00  0.00     0.233 C 
HETATM   15  O   UNL     1       5.154  28.564  53.660  1.00  0.00    -0.272 OA
HETATM   16  H   UNL     1       3.441  26.157  52.575  1.00  0.00     0.171 HD
BRANCH  14  17
HETATM   17  C   UNL     1       3.061  28.792  52.452  1.00  0.00     0.184 C 
BRANCH  17  18
HETATM   18  S   UNL     1       3.535  29.599  50.886  1.00  0.00    -0.101 SA
BRANCH  18  19
HETATM   19  C   UNL     1       3.331  28.230  49.768  1.00  0.00     0.093 A 
HETATM   20  N   UNL     1       4.283  27.268  49.833  1.00  0.00    -0.254 NA
HETATM   21  C   UNL     1       4.141  26.218  48.988  1.00  0.00     0.118 A 
HETATM   22  C   UNL     1       3.073  26.065  48.119  1.00  0.00     0.019 A 
HETATM   23  C   UNL     1       2.090  27.048  48.108  1.00  0.00     0.004 A 
HETATM   24  C   UNL     1       2.216  28.151  48.947  1.00  0.00     0.039 A 
ENDBRANCH  18  19
ENDBRANCH  17  18
ENDBRANCH  14  17
ENDBRANCH   6  13
TORSDOF 4
ENDMDL
MODEL 4
REMARK VINA RESULT:      -8.2      1.573      1.986
REMARK  4 active torsions:
REMARK  status: ('A' for Active; 'I' for Inactive)
REMARK    1  A    between atoms: C_6  and  N_7 
REMARK       I    between atoms: N_7  and  C_8 
REMARK    2  A    between atoms: C_8  and  C_9 
REMARK    3  A    between atoms: C_9  and  S_10 
REMARK    4  A    between atoms: S_10  and  C_11 
ROOT
HETATM    1  C   UNL     1       8.118  20.713  53.243  1.00  0.00     0.001 A 
HETATM    2  C   UNL     1       8.011  22.042  52.844  1.00  0.00     0.018 A 
HETATM    3  C   UNL     1       7.805  23.051  53.801  1.00  0.00     0.049 A 
HETATM    4  C   UNL     1       7.694  22.739  55.155  1.00  0.00     0.024 A 
HETATM    5  S   UNL     1       7.397  23.917  56.447  1.00  0.00    -0.053 SA
HETATM    6  C   UNL     1       7.451  25.408  55.576  1.00  0.00     0.154 A 
HETATM    7  N   UNL     1       7.587  25.482  54.277  1.00  0.00    -0.303 N 
HETATM    8  H   UNL     1       7.580  26.418  53.872  1.00  0.00     0.171 HD
HETATM    9  C   UNL     1       7.726  24.441  53.341  1.00  0.00     0.259 A 
HETATM   10  O   UNL     1       7.791  24.777  52.174  1.00  0.00    -0.267 OA
HETATM   11  C   UNL     1       7.807  21.393  55.539  1.00  0.00     0.020 A 
HETATM   12  C   UNL     1       8.019  20.388  54.592  1.00  0.00     0.001 A 
ENDROOT
BRANCH   6  13
HETATM   13  N   UNL     1       7.339  26.476  56.333  1.00  0.00    -0.306 N 
HETATM   14  C   UNL     1       6.263  27.405  56.358  1.00  0.00     0.233 C 
HETATM   15  O   UNL     1       5.330  27.176  55.600  1.00  0.00    -0.272 OA
HETATM   16  H   UNL     1       8.084  26.601  57.011  1.00  0.00     0.171 HD
BRANCH  14  17
HETATM   17  C   UNL     1       6.333  28.590  57.298  1.00  0.00     0.184 C 
BRANCH  17  18
HETATM   18  S   UNL     1       7.866  29.564  57.124  1.00  0.00    -0.101 SA
BRANCH  18  19
HETATM   19  C   UNL     1       7.832  30.454  58.665  1.00  0.00     0.093 A 
HETATM   20  N   UNL     1       8.698  30.022  59.615  1.00  0.00    -0.254 NA
HETATM   21  C   UNL     1       8.684  30.690  60.794  1.00  0.00     0.118 A 
HETATM   22  C   UNL     1       7.883  31.791  61.049  1.00  0.00     0.019 A 
HETATM   23  C   UNL     1       7.038  32.235  60.039  1.00  0.00     0.004 A 
HETATM   24  C   UNL     1       7.009  31.559  58.823  1.00  0.00     0.039 A 
ENDBRANCH  18  19
ENDBRANCH  17  18
ENDBRANCH  14  17
ENDBRANCH   6  13
TORSDOF 4
ENDMDL
MODEL 5
REMARK VINA RESULT:      -8.1      3.775      9.290
REMARK  4 active torsions:
REMARK  status: ('A' for Active; 'I' for Inactive)
REMARK    1  A    between atoms: C_6  and  N_7 
REMARK       I    between atoms: N_7  and  C_8 
REMARK    2  A    between atoms: C_8  and  C_9 
REMARK    3  A    between atoms: C_9  and  S_10 
REMARK    4  A    between atoms: S_10  and  C_11 
ROOT
HETATM    1  C   UNL     1       7.352  33.105  63.742  1.00  0.00     0.001 A 
HETATM    2  C   UNL     1       8.095  32.043  63.234  1.00  0.00     0.018 A 
HETATM    3  C   UNL     1       7.956  31.667  61.887  1.00  0.00     0.049 A 
HETATM    4  C   UNL     1       7.071  32.339  61.046  1.00  0.00     0.024 A 
HETATM    5  S   UNL     1       6.783  31.934  59.344  1.00  0.00    -0.053 SA
HETATM    6  C   UNL     1       7.949  30.686  59.083  1.00  0.00     0.154 A 
HETATM    7  N   UNL     1       8.714  30.201  60.027  1.00  0.00    -0.303 N 
HETATM    8  H   UNL     1       9.346  29.447  59.758  1.00  0.00     0.171 HD
HETATM    9  C   UNL     1       8.777  30.561  61.386  1.00  0.00     0.259 A 
HETATM   10  O   UNL     1       9.549  29.919  62.072  1.00  0.00    -0.267 OA
HETATM   11  C   UNL     1       6.333  33.410  61.575  1.00  0.00     0.020 A 
HETATM   12  C   UNL     1       6.473  33.791  62.911  1.00  0.00     0.001 A 
ENDROOT
BRANCH   6  13
HETATM   13  N   UNL     1       8.004  30.254  57.843  1.00  0.00    -0.306 N 
HETATM   14  C   UNL     1       8.028  28.903  57.401  1.00  0.00     0.233 C 
HETATM   15  O   UNL     1       7.976  28.045  58.274  1.00  0.00    -0.272 OA
HETATM   16  H   UNL     1       7.963  30.980  57.134  1.00  0.00     0.171 HD
BRANCH  14  17
HETATM   17  C   UNL     1       8.112  28.612  55.918  1.00  0.00     0.184 C 
BRANCH  17  18
HETATM   18  S   UNL     1       6.563  27.949  55.219  1.00  0.00    -0.101 SA
BRANCH  18  19
HETATM   19  C   UNL     1       7.185  26.456  54.476  1.00  0.00     0.093 A 
HETATM   20  N   UNL     1       7.340  25.401  55.312  1.00  0.00    -0.254 NA
HETATM   21  C   UNL     1       7.812  24.257  54.760  1.00  0.00     0.118 A 
HETATM   22  C   UNL     1       8.091  24.107  53.412  1.00  0.00     0.019 A 
HETATM   23  C   UNL     1       7.880  25.195  52.573  1.00  0.00     0.004 A 
HETATM   24  C   UNL     1       7.417  26.393  53.110  1.00  0.00     0.039 A 
ENDBRANCH  18  19
ENDBRANCH  17  18
ENDBRANCH  14  17
ENDBRANCH   6  13
TORSDOF 4
ENDMDL
MODEL 6
REMARK VINA RESULT:      -8.0      2.670      3.318
REMARK  4 active torsions:
REMARK  status: ('A' for Active; 'I' for Inactive)
REMARK    1  A    between atoms: C_6  and  N_7 
REMARK       I    between atoms: N_7  and  C_8 
REMARK    2  A    between atoms: C_8  and  C_9 
REMARK    3  A    between atoms: C_9  and  S_10 
REMARK    4  A    between atoms: S_10  and  C_11 
ROOT
HETATM    1  C   UNL     1       8.493  22.282  53.394  1.00  0.00     0.001 A 
HETATM    2  C   UNL     1       8.036  23.574  53.152  1.00  0.00     0.018 A 
HETATM    3  C   UNL     1       7.848  24.467  54.222  1.00  0.00     0.049 A 
HETATM    4  C   UNL     1       8.104  24.072  55.534  1.00  0.00     0.024 A 
HETATM    5  S   UNL     1       7.871  25.094  56.965  1.00  0.00    -0.053 SA
HETATM    6  C   UNL     1       7.430  26.601  56.246  1.00  0.00     0.154 A 
HETATM    7  N   UNL     1       7.257  26.767  54.959  1.00  0.00    -0.303 N 
HETATM    8  H   UNL     1       6.972  27.698  54.655  1.00  0.00     0.171 HD
HETATM    9  C   UNL     1       7.392  25.827  53.921  1.00  0.00     0.259 A 
HETATM   10  O   UNL     1       7.128  26.225  52.803  1.00  0.00    -0.267 OA
HETATM   11  C   UNL     1       8.568  22.766  55.758  1.00  0.00     0.020 A 
HETATM   12  C   UNL     1       8.763  21.878  54.698  1.00  0.00     0.001 A 
ENDROOT
BRANCH   6  13
HETATM   13  N   UNL     1       7.275  27.582  57.107  1.00  0.00    -0.306 N 
HETATM   14  C   UNL     1       8.251  28.533  57.513  1.00  0.00     0.233 C 
HETATM   15  O   UNL     1       9.354  28.437  56.990  1.00  0.00    -0.272 OA
HETATM   16  H   UNL     1       6.333  27.692  57.467  1.00  0.00     0.171 HD
BRANCH  14  17
HETATM   17  C   UNL     1       7.877  29.581  58.540  1.00  0.00     0.184 C 
BRANCH  17  18
HETATM   18  S   UNL     1       9.240  30.726  58.939  1.00  0.00    -0.101 SA
BRANCH  18  19
HETATM   19  C   UNL     1       8.534  31.555  60.347  1.00  0.00     0.093 A 
HETATM   20  N   UNL     1       7.341  32.162  60.137  1.00  0.00    -0.254 NA
HETATM   21  C   UNL     1       6.791  32.798  61.200  1.00  0.00     0.118 A 
HETATM   22  C   UNL     1       7.353  32.814  62.465  1.00  0.00     0.019 A 
HETATM   23  C   UNL     1       8.555  32.145  62.658  1.00  0.00     0.004 A 
HETATM   24  C   UNL     1       9.160  31.501  61.583  1.00  0.00     0.039 A 
ENDBRANCH  18  19
ENDBRANCH  17  18
ENDBRANCH  14  17
ENDBRANCH   6  13
TORSDOF 4
ENDMDL
MODEL 7
REMARK VINA RESULT:      -8.0      5.592      8.492
REMARK  4 active torsions:
REMARK  status: ('A' for Active; 'I' for Inactive)
REMARK    1  A    between atoms: C_6  and  N_7 
REMARK       I    between atoms: N_7  and  C_8 
REMARK    2  A    between atoms: C_8  and  C_9 
REMARK    3  A    between atoms: C_9  and  S_10 
REMARK    4  A    between atoms: S_10  and  C_11 
ROOT
HETATM    1  C   UNL     1       0.708  28.229  47.072  1.00  0.00     0.001 A 
HETATM    2  C   UNL     1       1.381  27.028  47.280  1.00  0.00     0.018 A 
HETATM    3  C   UNL     1       2.488  26.982  48.145  1.00  0.00     0.049 A 
HETATM    4  C   UNL     1       2.934  28.131  48.795  1.00  0.00     0.024 A 
HETATM    5  S   UNL     1       4.338  28.205  49.877  1.00  0.00    -0.053 SA
HETATM    6  C   UNL     1       4.798  26.542  49.961  1.00  0.00     0.154 A 
HETATM    7  N   UNL     1       4.220  25.595  49.266  1.00  0.00    -0.303 N 
HETATM    8  H   UNL     1       4.597  24.654  49.381  1.00  0.00     0.171 HD
HETATM    9  C   UNL     1       3.152  25.692  48.357  1.00  0.00     0.259 A 
HETATM   10  O   UNL     1       2.828  24.659  47.802  1.00  0.00    -0.267 OA
HETATM   11  C   UNL     1       2.241  29.332  48.575  1.00  0.00     0.020 A 
HETATM   12  C   UNL     1       1.136  29.381  47.723  1.00  0.00     0.001 A 
ENDROOT
BRANCH   6  13
HETATM   13  N   UNL     1       5.792  26.302  50.787  1.00  0.00    -0.306 N 
HETATM   14  C   UNL     1       5.760  25.504  51.963  1.00  0.00     0.233 C 
HETATM   15  O   UNL     1       4.692  24.968  52.228  1.00  0.00    -0.272 OA
HETATM   16  H   UNL     1       6.687  26.688  50.505  1.00  0.00     0.171 HD
BRANCH  14  17
HETATM   17  C   UNL     1       7.017  25.366  52.795  1.00  0.00     0.184 C 
BRANCH  17  18
HETATM   18  S   UNL     1       6.709  24.736  54.479  1.00  0.00    -0.101 SA
BRANCH  18  19
HETATM   19  C   UNL     1       7.334  23.079  54.299  1.00  0.00     0.093 A 
HETATM   20  N   UNL     1       7.347  22.328  55.426  1.00  0.00    -0.254 NA
HETATM   21  C   UNL     1       7.821  21.064  55.305  1.00  0.00     0.118 A 
HETATM   22  C   UNL     1       8.235  20.506  54.107  1.00  0.00     0.019 A 
HETATM   23  C   UNL     1       8.167  21.288  52.961  1.00  0.00     0.004 A 
HETATM   24  C   UNL     1       7.708  22.599  53.052  1.00  0.00     0.039 A 
ENDBRANCH  18  19
ENDBRANCH  17  18
ENDBRANCH  14  17
ENDBRANCH   6  13
TORSDOF 4
ENDMDL
MODEL 8
REMARK VINA RESULT:      -7.7      3.658      9.369
REMARK  4 active torsions:
REMARK  status: ('A' for Active; 'I' for Inactive)
REMARK    1  A    between atoms: C_6  and  N_7 
REMARK       I    between atoms: N_7  and  C_8 
REMARK    2  A    between atoms: C_8  and  C_9 
REMARK    3  A    between atoms: C_9  and  S_10 
REMARK    4  A    between atoms: S_10  and  C_11 
ROOT
HETATM    1  C   UNL     1       6.583  33.809  63.214  1.00  0.00     0.001 A 
HETATM    2  C   UNL     1       6.167  33.534  61.915  1.00  0.00     0.018 A 
HETATM    3  C   UNL     1       6.825  32.547  61.159  1.00  0.00     0.049 A 
HETATM    4  C   UNL     1       7.902  31.841  61.690  1.00  0.00     0.024 A 
HETATM    5  S   UNL     1       8.831  30.603  60.824  1.00  0.00    -0.053 SA
HETATM    6  C   UNL     1       7.947  30.479  59.345  1.00  0.00     0.154 A 
HETATM    7  N   UNL     1       6.928  31.243  59.044  1.00  0.00    -0.303 N 
HETATM    8  H   UNL     1       6.502  31.093  58.130  1.00  0.00     0.171 HD
HETATM    9  C   UNL     1       6.338  32.269  59.805  1.00  0.00     0.259 A 
HETATM   10  O   UNL     1       5.420  32.865  59.274  1.00  0.00    -0.267 OA
HETATM   11  C   UNL     1       8.305  32.130  63.004  1.00  0.00     0.020 A 
HETATM   12  C   UNL     1       7.650  33.105  63.761  1.00  0.00     0.001 A 
ENDROOT
BRANCH   6  13
HETATM   13  N   UNL     1       8.390  29.546  58.532  1.00  0.00    -0.306 N 
HETATM   14  C   UNL     1       7.615  28.662  57.732  1.00  0.00     0.233 C 
HETATM   15  O   UNL     1       6.399  28.797  57.796  1.00  0.00    -0.272 OA
HETATM   16  H   UNL     1       9.399  29.506  58.434  1.00  0.00     0.171 HD
BRANCH  14  17
HETATM   17  C   UNL     1       8.320  27.636  56.871  1.00  0.00     0.184 C 
BRANCH  17  18
HETATM   18  S   UNL     1       7.980  25.914  57.367  1.00  0.00    -0.101 SA
BRANCH  18  19
HETATM   19  C   UNL     1       7.293  25.293  55.847  1.00  0.00     0.093 A 
HETATM   20  N   UNL     1       6.133  25.868  55.446  1.00  0.00    -0.254 NA
HETATM   21  C   UNL     1       5.598  25.406  54.290  1.00  0.00     0.118 A 
HETATM   22  C   UNL     1       6.189  24.434  53.499  1.00  0.00     0.019 A 
HETATM   23  C   UNL     1       7.400  23.896  53.917  1.00  0.00     0.004 A 
HETATM   24  C   UNL     1       7.968  24.331  55.111  1.00  0.00     0.039 A 
ENDBRANCH  18  19
ENDBRANCH  17  18
ENDBRANCH  14  17
ENDBRANCH   6  13
TORSDOF 4
ENDMDL
MODEL 9
REMARK VINA RESULT:      -7.5      2.192      8.325
REMARK  4 active torsions:
REMARK  status: ('A' for Active; 'I' for Inactive)
REMARK    1  A    between atoms: C_6  and  N_7 
REMARK       I    between atoms: N_7  and  C_8 
REMARK    2  A    between atoms: C_8  and  C_9 
REMARK    3  A    between atoms: C_9  and  S_10 
REMARK    4  A    between atoms: S_10  and  C_11 
ROOT
HETATM    1  C   UNL     1       8.092  32.370  60.785  1.00  0.00     0.001 A 
HETATM    2  C   UNL     1       7.100  31.975  59.892  1.00  0.00     0.018 A 
HETATM    3  C   UNL     1       7.423  31.154  58.798  1.00  0.00     0.049 A 
HETATM    4  C   UNL     1       8.734  30.732  58.584  1.00  0.00     0.024 A 
HETATM    5  S   UNL     1       9.268  29.727  57.224  1.00  0.00    -0.053 SA
HETATM    6  C   UNL     1       7.766  29.366  56.449  1.00  0.00     0.154 A 
HETATM    7  N   UNL     1       6.617  29.863  56.831  1.00  0.00    -0.303 N 
HETATM    8  H   UNL     1       5.801  29.597  56.280  1.00  0.00     0.171 HD
HETATM    9  C   UNL     1       6.343  30.739  57.897  1.00  0.00     0.259 A 
HETATM   10  O   UNL     1       5.185  31.091  58.014  1.00  0.00    -0.267 OA
HETATM   11  C   UNL     1       9.721  31.137  59.497  1.00  0.00     0.020 A 
HETATM   12  C   UNL     1       9.404  31.948  60.589  1.00  0.00     0.001 A 
ENDROOT
BRANCH   6  13
HETATM   13  N   UNL     1       7.873  28.545  55.429  1.00  0.00    -0.306 N 
HETATM   14  C   UNL     1       7.127  27.356  55.199  1.00  0.00     0.233 C 
HETATM   15  O   UNL     1       6.280  27.075  56.038  1.00  0.00    -0.272 OA
HETATM   16  H   UNL     1       8.522  28.839  54.707  1.00  0.00     0.171 HD
BRANCH  14  17
HETATM   17  C   UNL     1       7.416  26.532  53.963  1.00  0.00     0.184 C 
BRANCH  17  18
HETATM   18  S   UNL     1       6.099  25.335  53.564  1.00  0.00    -0.101 SA
BRANCH  18  19
HETATM   19  C   UNL     1       6.958  23.815  53.910  1.00  0.00     0.093 A 
HETATM   20  N   UNL     1       7.003  23.446  55.214  1.00  0.00    -0.254 NA
HETATM   21  C   UNL     1       7.654  22.291  55.493  1.00  0.00     0.118 A 
HETATM   22  C   UNL     1       8.219  21.471  54.531  1.00  0.00     0.019 A 
HETATM   23  C   UNL     1       8.118  21.855  53.199  1.00  0.00     0.004 A 
HETATM   24  C   UNL     1       7.476  23.048  52.878  1.00  0.00     0.039 A 
ENDBRANCH  18  19
ENDBRANCH  17  18
ENDBRANCH  14  17
ENDBRANCH   6  13
TORSDOF 4
ENDMDL
MODEL 10
REMARK VINA RESULT:      -7.1      3.168      8.749
REMARK  4 active torsions:
REMARK  status: ('A' for Active; 'I' for Inactive)
REMARK    1  A    between atoms: C_6  and  N_7 
REMARK       I    between atoms: N_7  and  C_8 
REMARK    2  A    between atoms: C_8  and  C_9 
REMARK    3  A    between atoms: C_9  and  S_10 
REMARK    4  A    between atoms: S_10  and  C_11 
ROOT
HETATM    1  C   UNL     1       7.791  32.526  62.505  1.00  0.00     0.001 A 
HETATM    2  C   UNL     1       6.777  32.693  61.566  1.00  0.00     0.018 A 
HETATM    3  C   UNL     1       6.835  32.012  60.338  1.00  0.00     0.049 A 
HETATM    4  C   UNL     1       7.906  31.173  60.037  1.00  0.00     0.024 A 
HETATM    5  S   UNL     1       8.107  30.292  58.511  1.00  0.00    -0.053 SA
HETATM    6  C   UNL     1       6.627  30.661  57.700  1.00  0.00     0.154 A 
HETATM    7  N   UNL     1       5.724  31.479  58.178  1.00  0.00    -0.303 N 
HETATM    8  H   UNL     1       4.901  31.638  57.597  1.00  0.00     0.171 HD
HETATM    9  C   UNL     1       5.733  32.196  59.389  1.00  0.00     0.259 A 
HETATM   10  O   UNL     1       4.783  32.931  59.580  1.00  0.00    -0.267 OA
HETATM   11  C   UNL     1       8.918  31.014  60.997  1.00  0.00     0.020 A 
HETATM   12  C   UNL     1       8.861  31.683  62.222  1.00  0.00     0.001 A 
ENDROOT
BRANCH   6  13
HETATM   13  N   UNL     1       6.480  30.049  56.547  1.00  0.00    -0.306 N 
HETATM   14  C   UNL     1       6.053  28.710  56.330  1.00  0.00     0.233 C 
HETATM   15  O   UNL     1       5.777  28.059  57.330  1.00  0.00    -0.272 OA
HETATM   16  H   UNL     1       6.636  30.630  55.729  1.00  0.00     0.171 HD
BRANCH  14  17
HETATM   17  C   UNL     1       5.967  28.183  54.914  1.00  0.00     0.184 C 
BRANCH  17  18
HETATM   18  S   UNL     1       7.595  27.922  54.135  1.00  0.00    -0.101 SA
BRANCH  18  19
HETATM   19  C   UNL     1       7.461  26.195  53.726  1.00  0.00     0.093 A 
HETATM   20  N   UNL     1       6.808  25.425  54.630  1.00  0.00    -0.254 NA
HETATM   21  C   UNL     1       6.697  24.107  54.332  1.00  0.00     0.118 A 
HETATM   22  C   UNL     1       7.165  23.538  53.160  1.00  0.00     0.019 A 
HETATM   23  C   UNL     1       7.792  24.363  52.234  1.00  0.00     0.004 A 
HETATM   24  C   UNL     1       7.943  25.718  52.517  1.00  0.00     0.039 A 
ENDBRANCH  18  19
ENDBRANCH  17  18
ENDBRANCH  14  17
ENDBRANCH   6  13
TORSDOF 4
ENDMDL
