MODEL 1
REMARK VINA RESULT:      -9.1      0.000      0.000
REMARK  6 active torsions:
REMARK  status: ('A' for Active; 'I' for Inactive)
REMARK    1  A    between atoms: O_2  and  C_3 
REMARK    2  A    between atoms: C_4  and  C_5 
REMARK    3  A    between atoms: C_5  and  N_6 
REMARK       I    between atoms: N_6  and  C_7 
REMARK    4  A    between atoms: C_7  and  C_8 
REMARK    5  A    between atoms: C_8  and  O_9 
REMARK    6  A    between atoms: N_10  and  C_11 
ROOT
HETATM    1  C   UNL     1       7.161  24.720  53.961  1.00  0.00     0.256 C 
HETATM    2  N   UNL     1       6.917  25.408  55.243  1.00  0.00    -0.254 N 
HETATM    3  C   UNL     1       7.220  24.791  56.449  1.00  0.00     0.330 C 
HETATM    4  O   UNL     1       7.233  25.344  57.550  1.00  0.00    -0.246 OA
HETATM    5  N   UNL     1       7.564  23.476  56.431  1.00  0.00    -0.308 N 
HETATM    6  C   UNL     1       7.638  22.668  55.312  1.00  0.00     0.048 A 
HETATM    7  C   UNL     1       7.439  23.233  54.062  1.00  0.00     0.034 A 
HETATM    8  C   UNL     1       7.926  21.309  55.463  1.00  0.00     0.030 A 
HETATM    9  C   UNL     1       8.013  20.491  54.340  1.00  0.00     0.002 A 
HETATM   10  C   UNL     1       7.825  21.035  53.074  1.00  0.00     0.001 A 
HETATM   11  C   UNL     1       7.550  22.397  52.935  1.00  0.00     0.015 A 
HETATM   12  H   UNL     1       7.739  23.085  57.347  1.00  0.00     0.170 HD
ENDROOT
BRANCH   1  13
HETATM   13  C   UNL     1       5.905  24.915  52.999  1.00  0.00     0.279 C 
HETATM   14  N   UNL     1       6.219  25.588  51.824  1.00  0.00    -0.352 N 
HETATM   15  H   UNL     1       7.140  26.015  51.779  1.00  0.00     0.162 HD
HETATM   16  O   UNL     1       4.777  24.497  53.253  1.00  0.00    -0.268 OA
BRANCH  14  17
HETATM   17  C   UNL     1       5.212  25.976  50.861  1.00  0.00     0.164 C 
BRANCH  17  18
HETATM   18  C   UNL     1       5.217  27.448  50.504  1.00  0.00    -0.007 A 
HETATM   19  C   UNL     1       5.059  27.816  49.151  1.00  0.00     0.076 A 
HETATM   20  C   UNL     1       5.076  29.168  48.786  1.00  0.00     0.037 A 
HETATM   21  C   UNL     1       5.257  30.157  49.752  1.00  0.00     0.003 A 
HETATM   22  C   UNL     1       5.412  29.805  51.088  1.00  0.00     0.001 A 
HETATM   23  C   UNL     1       5.391  28.462  51.463  1.00  0.00     0.011 A 
BRANCH  19  24
HETATM   24  O   UNL     1       4.874  26.780  48.271  1.00  0.00    -0.355 OA
HETATM   25  C   UNL     1       3.644  26.747  47.556  1.00  0.00     0.210 C 
ENDBRANCH  19  24
ENDBRANCH  17  18
ENDBRANCH  14  17
ENDBRANCH   1  13
BRANCH   1  26
HETATM   26  O   UNL     1       8.355  25.284  53.410  1.00  0.00    -0.359 OA
HETATM   27  H   UNL     1       8.142  26.232  53.347  1.00  0.00     0.213 HD
ENDBRANCH   1  26
BRANCH   2  28
HETATM   28  C   UNL     1       6.345  26.742  55.246  1.00  0.00     0.043 A 
HETATM   29  C   UNL     1       5.005  26.986  55.598  1.00  0.00     0.031 A 
HETATM   30  C   UNL     1       4.484  28.287  55.632  1.00  0.00     0.026 A 
HETATM   31  C   UNL     1       5.295  29.370  55.318  1.00  0.00     0.034 A 
HETATM   32 CL   UNL     1       4.656  30.966  55.368  1.00  0.00    -0.084 Cl
HETATM   33  C   UNL     1       6.622  29.162  54.969  1.00  0.00     0.026 A 
HETATM   34  C   UNL     1       7.138  27.861  54.934  1.00  0.00     0.031 A 
ENDBRANCH   2  28
TORSDOF 6
ENDMDL
MODEL 2
REMARK VINA RESULT:      -9.0      1.007      1.728
REMARK  6 active torsions:
REMARK  status: ('A' for Active; 'I' for Inactive)
REMARK    1  A    between atoms: O_2  and  C_3 
REMARK    2  A    between atoms: C_4  and  C_5 
REMARK    3  A    between atoms: C_5  and  N_6 
REMARK       I    between atoms: N_6  and  C_7 
REMARK    4  A    between atoms: C_7  and  C_8 
REMARK    5  A    between atoms: C_8  and  O_9 
REMARK    6  A    between atoms: N_10  and  C_11 
ROOT
HETATM    1  C   UNL     1       7.333  24.761  54.047  1.00  0.00     0.256 C 
HETATM    2  N   UNL     1       7.353  25.423  55.366  1.00  0.00    -0.254 N 
HETATM    3  C   UNL     1       7.948  24.810  56.459  1.00  0.00     0.330 C 
HETATM    4  O   UNL     1       8.184  25.353  57.540  1.00  0.00    -0.246 OA
HETATM    5  N   UNL     1       8.338  23.514  56.337  1.00  0.00    -0.308 N 
HETATM    6  C   UNL     1       8.195  22.721  55.214  1.00  0.00     0.048 A 
HETATM    7  C   UNL     1       7.694  23.288  54.053  1.00  0.00     0.034 A 
HETATM    8  C   UNL     1       8.571  21.377  55.268  1.00  0.00     0.030 A 
HETATM    9  C   UNL     1       8.439  20.575  54.137  1.00  0.00     0.002 A 
HETATM   10  C   UNL     1       7.946  21.122  52.957  1.00  0.00     0.001 A 
HETATM   11  C   UNL     1       7.585  22.470  52.912  1.00  0.00     0.015 A 
HETATM   12  H   UNL     1       8.734  23.123  57.182  1.00  0.00     0.170 HD
ENDROOT
BRANCH   1  13
HETATM   13  C   UNL     1       5.885  24.905  53.396  1.00  0.00     0.279 C 
HETATM   14  N   UNL     1       5.906  25.531  52.156  1.00  0.00    -0.352 N 
HETATM   15  H   UNL     1       6.783  25.964  51.882  1.00  0.00     0.162 HD
HETATM   16  O   UNL     1       4.854  24.487  53.922  1.00  0.00    -0.268 OA
BRANCH  14  17
HETATM   17  C   UNL     1       4.696  25.869  51.438  1.00  0.00     0.164 C 
BRANCH  17  18
HETATM   18  C   UNL     1       4.914  26.718  50.203  1.00  0.00    -0.007 A 
HETATM   19  C   UNL     1       5.394  28.034  50.365  1.00  0.00     0.076 A 
HETATM   20  C   UNL     1       5.590  28.851  49.245  1.00  0.00     0.037 A 
HETATM   21  C   UNL     1       5.306  28.375  47.965  1.00  0.00     0.003 A 
HETATM   22  C   UNL     1       4.835  27.078  47.795  1.00  0.00     0.001 A 
HETATM   23  C   UNL     1       4.641  26.254  48.904  1.00  0.00     0.011 A 
BRANCH  19  24
HETATM   24  O   UNL     1       5.659  28.416  51.656  1.00  0.00    -0.355 OA
HETATM   25  C   UNL     1       4.831  29.429  52.215  1.00  0.00     0.210 C 
ENDBRANCH  19  24
ENDBRANCH  17  18
ENDBRANCH  14  17
ENDBRANCH   1  13
BRANCH   1  26
HETATM   26  O   UNL     1       8.345  25.389  53.254  1.00  0.00    -0.359 OA
HETATM   27  H   UNL     1       8.341  24.863  52.435  1.00  0.00     0.213 HD
ENDBRANCH   1  26
BRANCH   2  28
HETATM   28  C   UNL     1       6.736  26.728  55.524  1.00  0.00     0.043 A 
HETATM   29  C   UNL     1       5.463  26.894  56.097  1.00  0.00     0.031 A 
HETATM   30  C   UNL     1       4.902  28.166  56.276  1.00  0.00     0.026 A 
HETATM   31  C   UNL     1       5.609  29.298  55.891  1.00  0.00     0.034 A 
HETATM   32 CL   UNL     1       4.923  30.859  56.120  1.00  0.00    -0.084 Cl
HETATM   33  C   UNL     1       6.869  29.168  55.326  1.00  0.00     0.026 A 
HETATM   34  C   UNL     1       7.424  27.895  55.146  1.00  0.00     0.031 A 
ENDBRANCH   2  28
TORSDOF 6
ENDMDL
MODEL 3
REMARK VINA RESULT:      -9.0      2.961      7.618
REMARK  6 active torsions:
REMARK  status: ('A' for Active; 'I' for Inactive)
REMARK    1  A    between atoms: O_2  and  C_3 
REMARK    2  A    between atoms: C_4  and  C_5 
REMARK    3  A    between atoms: C_5  and  N_6 
REMARK       I    between atoms: N_6  and  C_7 
REMARK    4  A    between atoms: C_7  and  C_8 
REMARK    5  A    between atoms: C_8  and  O_9 
REMARK    6  A    between atoms: N_10  and  C_11 
ROOT
HETATM    1  C   UNL     1       4.888  28.702  51.973  1.00  0.00     0.256 C 
HETATM    2  N   UNL     1       4.994  27.340  51.415  1.00  0.00    -0.254 N 
HETATM    3  C   UNL     1       4.344  27.003  50.236  1.00  0.00     0.330 C 
HETATM    4  O   UNL     1       4.522  25.966  49.595  1.00  0.00    -0.246 OA
HETATM    5  N   UNL     1       3.458  27.892  49.712  1.00  0.00    -0.308 N 
HETATM    6  C   UNL     1       3.124  29.121  50.247  1.00  0.00     0.048 A 
HETATM    7  C   UNL     1       3.797  29.568  51.373  1.00  0.00     0.034 A 
HETATM    8  C   UNL     1       2.130  29.890  49.635  1.00  0.00     0.030 A 
HETATM    9  C   UNL     1       1.795  31.135  50.163  1.00  0.00     0.002 A 
HETATM   10  C   UNL     1       2.462  31.609  51.288  1.00  0.00     0.001 A 
HETATM   11  C   UNL     1       3.462  30.837  51.883  1.00  0.00     0.015 A 
HETATM   12  H   UNL     1       2.999  27.566  48.872  1.00  0.00     0.170 HD
ENDROOT
BRANCH   1  13
HETATM   13  C   UNL     1       4.635  28.621  53.544  1.00  0.00     0.279 C 
HETATM   14  N   UNL     1       5.731  29.033  54.294  1.00  0.00    -0.352 N 
HETATM   15  H   UNL     1       6.598  29.177  53.786  1.00  0.00     0.162 HD
HETATM   16  O   UNL     1       3.576  28.253  54.049  1.00  0.00    -0.268 OA
BRANCH  14  17
HETATM   17  C   UNL     1       5.765  28.933  55.737  1.00  0.00     0.164 C 
BRANCH  17  18
HETATM   18  C   UNL     1       6.196  27.580  56.263  1.00  0.00    -0.007 A 
HETATM   19  C   UNL     1       7.576  27.309  56.378  1.00  0.00     0.076 A 
HETATM   20  C   UNL     1       8.008  26.062  56.844  1.00  0.00     0.037 A 
HETATM   21  C   UNL     1       7.082  25.078  57.191  1.00  0.00     0.003 A 
HETATM   22  C   UNL     1       5.720  25.336  57.083  1.00  0.00     0.001 A 
HETATM   23  C   UNL     1       5.279  26.578  56.624  1.00  0.00     0.011 A 
BRANCH  19  24
HETATM   24  O   UNL     1       8.415  28.336  56.028  1.00  0.00    -0.355 OA
HETATM   25  C   UNL     1       9.289  28.833  57.036  1.00  0.00     0.210 C 
ENDBRANCH  19  24
ENDBRANCH  17  18
ENDBRANCH  14  17
ENDBRANCH   1  13
BRANCH   1  26
HETATM   26  O   UNL     1       6.111  29.375  51.658  1.00  0.00    -0.359 OA
HETATM   27  H   UNL     1       6.116  30.126  52.277  1.00  0.00     0.213 HD
ENDBRANCH   1  26
BRANCH   2  28
HETATM   28  C   UNL     1       5.780  26.338  52.111  1.00  0.00     0.043 A 
HETATM   29  C   UNL     1       7.185  26.375  52.147  1.00  0.00     0.031 A 
HETATM   30  C   UNL     1       7.924  25.419  52.858  1.00  0.00     0.026 A 
HETATM   31  C   UNL     1       7.268  24.410  53.553  1.00  0.00     0.034 A 
HETATM   32 CL   UNL     1       8.175  23.242  54.432  1.00  0.00    -0.084 Cl
HETATM   33  C   UNL     1       5.883  24.348  53.539  1.00  0.00     0.026 A 
HETATM   34  C   UNL     1       5.149  25.304  52.825  1.00  0.00     0.031 A 
ENDBRANCH   2  28
TORSDOF 6
ENDMDL
MODEL 4
REMARK VINA RESULT:      -8.9      2.655      5.174
REMARK  6 active torsions:
REMARK  status: ('A' for Active; 'I' for Inactive)
REMARK    1  A    between atoms: O_2  and  C_3 
REMARK    2  A    between atoms: C_4  and  C_5 
REMARK    3  A    between atoms: C_5  and  N_6 
REMARK       I    between atoms: N_6  and  C_7 
REMARK    4  A    between atoms: C_7  and  C_8 
REMARK    5  A    between atoms: C_8  and  O_9 
REMARK    6  A    between atoms: N_10  and  C_11 
ROOT
HETATM    1  C   UNL     1       5.720  25.973  55.642  1.00  0.00     0.256 C 
HETATM    2  N   UNL     1       7.035  25.337  55.854  1.00  0.00    -0.254 N 
HETATM    3  C   UNL     1       7.944  25.869  56.758  1.00  0.00     0.330 C 
HETATM    4  O   UNL     1       8.974  25.316  57.144  1.00  0.00    -0.246 OA
HETATM    5  N   UNL     1       7.675  27.088  57.299  1.00  0.00    -0.308 N 
HETATM    6  C   UNL     1       6.570  27.874  57.031  1.00  0.00     0.048 A 
HETATM    7  C   UNL     1       5.574  27.372  56.209  1.00  0.00     0.034 A 
HETATM    8  C   UNL     1       6.475  29.145  57.604  1.00  0.00     0.030 A 
HETATM    9  C   UNL     1       5.360  29.938  57.346  1.00  0.00     0.002 A 
HETATM   10  C   UNL     1       4.342  29.454  56.531  1.00  0.00     0.001 A 
HETATM   11  C   UNL     1       4.443  28.177  55.974  1.00  0.00     0.015 A 
HETATM   12  H   UNL     1       8.395  27.427  57.923  1.00  0.00     0.170 HD
ENDROOT
BRANCH   1  13
HETATM   13  C   UNL     1       5.403  26.044  54.082  1.00  0.00     0.279 C 
HETATM   14  N   UNL     1       6.129  27.030  53.423  1.00  0.00    -0.352 N 
HETATM   15  H   UNL     1       6.637  27.685  54.009  1.00  0.00     0.162 HD
HETATM   16  O   UNL     1       4.615  25.293  53.509  1.00  0.00    -0.268 OA
BRANCH  14  17
HETATM   17  C   UNL     1       5.915  27.347  52.028  1.00  0.00     0.164 C 
BRANCH  17  18
HETATM   18  C   UNL     1       4.803  28.343  51.773  1.00  0.00    -0.007 A 
HETATM   19  C   UNL     1       4.007  28.186  50.619  1.00  0.00     0.076 A 
HETATM   20  C   UNL     1       2.982  29.100  50.345  1.00  0.00     0.037 A 
HETATM   21  C   UNL     1       2.746  30.173  51.203  1.00  0.00     0.003 A 
HETATM   22  C   UNL     1       3.524  30.336  52.344  1.00  0.00     0.001 A 
HETATM   23  C   UNL     1       4.544  29.428  52.629  1.00  0.00     0.011 A 
BRANCH  19  24
HETATM   24  O   UNL     1       4.300  27.097  49.838  1.00  0.00    -0.355 OA
HETATM   25  C   UNL     1       4.482  27.327  48.445  1.00  0.00     0.210 C 
ENDBRANCH  19  24
ENDBRANCH  17  18
ENDBRANCH  14  17
ENDBRANCH   1  13
BRANCH   1  26
HETATM   26  O   UNL     1       4.761  25.183  56.352  1.00  0.00    -0.359 OA
HETATM   27  H   UNL     1       4.335  25.829  56.941  1.00  0.00     0.213 HD
ENDBRANCH   1  26
BRANCH   2  28
HETATM   28  C   UNL     1       7.387  24.147  55.102  1.00  0.00     0.043 A 
HETATM   29  C   UNL     1       7.911  24.209  53.798  1.00  0.00     0.031 A 
HETATM   30  C   UNL     1       8.281  23.048  53.104  1.00  0.00     0.026 A 
HETATM   31  C   UNL     1       8.141  21.804  53.705  1.00  0.00     0.034 A 
HETATM   32 CL   UNL     1       8.604  20.382  52.855  1.00  0.00    -0.084 Cl
HETATM   33  C   UNL     1       7.630  21.710  54.991  1.00  0.00     0.026 A 
HETATM   34  C   UNL     1       7.258  22.872  55.679  1.00  0.00     0.031 A 
ENDBRANCH   2  28
TORSDOF 6
ENDMDL
MODEL 5
REMARK VINA RESULT:      -8.6      2.894      6.179
REMARK  6 active torsions:
REMARK  status: ('A' for Active; 'I' for Inactive)
REMARK    1  A    between atoms: O_2  and  C_3 
REMARK    2  A    between atoms: C_4  and  C_5 
REMARK    3  A    between atoms: C_5  and  N_6 
REMARK       I    between atoms: N_6  and  C_7 
REMARK    4  A    between atoms: C_7  and  C_8 
REMARK    5  A    between atoms: C_8  and  O_9 
REMARK    6  A    between atoms: N_10  and  C_11 
ROOT
HETATM    1  C   UNL     1       6.105  26.475  55.176  1.00  0.00     0.256 C 
HETATM    2  N   UNL     1       5.582  26.278  53.811  1.00  0.00    -0.254 N 
HETATM    3  C   UNL     1       5.651  25.037  53.195  1.00  0.00     0.330 C 
HETATM    4  O   UNL     1       5.080  24.725  52.149  1.00  0.00    -0.246 OA
HETATM    5  N   UNL     1       6.380  24.059  53.798  1.00  0.00    -0.308 N 
HETATM    6  C   UNL     1       7.081  24.178  54.983  1.00  0.00     0.048 A 
HETATM    7  C   UNL     1       6.985  25.359  55.703  1.00  0.00     0.034 A 
HETATM    8  C   UNL     1       7.854  23.106  55.436  1.00  0.00     0.030 A 
HETATM    9  C   UNL     1       8.554  23.215  56.635  1.00  0.00     0.002 A 
HETATM   10  C   UNL     1       8.468  24.386  57.380  1.00  0.00     0.001 A 
HETATM   11  C   UNL     1       7.683  25.447  56.923  1.00  0.00     0.015 A 
HETATM   12  H   UNL     1       6.413  23.193  53.278  1.00  0.00     0.170 HD
ENDROOT
BRANCH   1  13
HETATM   13  C   UNL     1       6.945  27.828  55.240  1.00  0.00     0.279 C 
HETATM   14  N   UNL     1       6.420  28.753  56.136  1.00  0.00    -0.352 N 
HETATM   15  H   UNL     1       5.501  28.545  56.514  1.00  0.00     0.162 HD
HETATM   16  O   UNL     1       7.965  28.032  54.584  1.00  0.00    -0.268 OA
BRANCH  14  17
HETATM   17  C   UNL     1       6.954  30.091  56.270  1.00  0.00     0.164 C 
BRANCH  17  18
HETATM   18  C   UNL     1       7.263  30.504  57.693  1.00  0.00    -0.007 A 
HETATM   19  C   UNL     1       8.400  29.956  58.324  1.00  0.00     0.076 A 
HETATM   20  C   UNL     1       8.704  30.304  59.646  1.00  0.00     0.037 A 
HETATM   21  C   UNL     1       7.885  31.187  60.350  1.00  0.00     0.003 A 
HETATM   22  C   UNL     1       6.763  31.734  59.736  1.00  0.00     0.001 A 
HETATM   23  C   UNL     1       6.455  31.397  58.418  1.00  0.00     0.011 A 
BRANCH  19  24
HETATM   24  O   UNL     1       9.156  29.108  57.555  1.00  0.00    -0.355 OA
HETATM   25  C   UNL     1      10.441  29.568  57.152  1.00  0.00     0.210 C 
ENDBRANCH  19  24
ENDBRANCH  17  18
ENDBRANCH  14  17
ENDBRANCH   1  13
BRANCH   1  26
HETATM   26  O   UNL     1       4.973  26.501  56.052  1.00  0.00    -0.359 OA
HETATM   27  H   UNL     1       4.928  25.586  56.381  1.00  0.00     0.213 HD
ENDBRANCH   1  26
BRANCH   2  28
HETATM   28  C   UNL     1       4.995  27.399  53.098  1.00  0.00     0.043 A 
HETATM   29  C   UNL     1       3.745  27.941  53.446  1.00  0.00     0.031 A 
HETATM   30  C   UNL     1       3.215  29.048  52.768  1.00  0.00     0.026 A 
HETATM   31  C   UNL     1       3.929  29.638  51.733  1.00  0.00     0.034 A 
HETATM   32 CL   UNL     1       3.281  31.002  50.910  1.00  0.00    -0.084 Cl
HETATM   33  C   UNL     1       5.166  29.128  51.368  1.00  0.00     0.026 A 
HETATM   34  C   UNL     1       5.691  28.020  52.046  1.00  0.00     0.031 A 
ENDBRANCH   2  28
TORSDOF 6
ENDMDL
MODEL 6
REMARK VINA RESULT:      -8.5      2.936      6.314
REMARK  6 active torsions:
REMARK  status: ('A' for Active; 'I' for Inactive)
REMARK    1  A    between atoms: O_2  and  C_3 
REMARK    2  A    between atoms: C_4  and  C_5 
REMARK    3  A    between atoms: C_5  and  N_6 
REMARK       I    between atoms: N_6  and  C_7 
REMARK    4  A    between atoms: C_7  and  C_8 
REMARK    5  A    between atoms: C_8  and  O_9 
REMARK    6  A    between atoms: N_10  and  C_11 
ROOT
HETATM    1  C   UNL     1       6.540  26.159  55.775  1.00  0.00     0.256 C 
HETATM    2  N   UNL     1       5.523  26.554  54.781  1.00  0.00    -0.254 N 
HETATM    3  C   UNL     1       5.154  25.690  53.760  1.00  0.00     0.330 C 
HETATM    4  O   UNL     1       4.193  25.846  53.006  1.00  0.00    -0.246 OA
HETATM    5  N   UNL     1       5.882  24.555  53.584  1.00  0.00    -0.308 N 
HETATM    6  C   UNL     1       6.981  24.166  54.326  1.00  0.00     0.048 A 
HETATM    7  C   UNL     1       7.355  24.931  55.420  1.00  0.00     0.034 A 
HETATM    8  C   UNL     1       7.678  23.009  53.970  1.00  0.00     0.030 A 
HETATM    9  C   UNL     1       8.780  22.606  54.720  1.00  0.00     0.002 A 
HETATM   10  C   UNL     1       9.171  23.353  55.827  1.00  0.00     0.001 A 
HETATM   11  C   UNL     1       8.459  24.501  56.180  1.00  0.00     0.015 A 
HETATM   12  H   UNL     1       5.576  23.989  52.803  1.00  0.00     0.170 HD
ENDROOT
BRANCH   1  13
HETATM   13  C   UNL     1       7.554  27.365  56.014  1.00  0.00     0.279 C 
HETATM   14  N   UNL     1       7.684  27.710  57.354  1.00  0.00    -0.352 N 
HETATM   15  H   UNL     1       7.019  27.289  57.996  1.00  0.00     0.162 HD
HETATM   16  O   UNL     1       8.179  27.922  55.112  1.00  0.00    -0.268 OA
BRANCH  14  17
HETATM   17  C   UNL     1       8.462  28.849  57.789  1.00  0.00     0.164 C 
BRANCH  17  18
HETATM   18  C   UNL     1       7.639  30.035  58.246  1.00  0.00    -0.007 A 
HETATM   19  C   UNL     1       7.961  30.647  59.476  1.00  0.00     0.076 A 
HETATM   20  C   UNL     1       7.208  31.734  59.937  1.00  0.00     0.037 A 
HETATM   21  C   UNL     1       6.134  32.215  59.189  1.00  0.00     0.003 A 
HETATM   22  C   UNL     1       5.809  31.621  57.975  1.00  0.00     0.001 A 
HETATM   23  C   UNL     1       6.556  30.540  57.505  1.00  0.00     0.011 A 
BRANCH  19  24
HETATM   24  O   UNL     1       9.039  30.118  60.139  1.00  0.00    -0.355 OA
HETATM   25  C   UNL     1       9.218  30.501  61.498  1.00  0.00     0.210 C 
ENDBRANCH  19  24
ENDBRANCH  17  18
ENDBRANCH  14  17
ENDBRANCH   1  13
BRANCH   1  26
HETATM   26  O   UNL     1       5.834  25.804  56.968  1.00  0.00    -0.359 OA
HETATM   27  H   UNL     1       4.935  25.618  56.646  1.00  0.00     0.213 HD
ENDBRANCH   1  26
BRANCH   2  28
HETATM   28  C   UNL     1       4.908  27.866  54.865  1.00  0.00     0.043 A 
HETATM   29  C   UNL     1       4.118  28.259  55.960  1.00  0.00     0.031 A 
HETATM   30  C   UNL     1       3.565  29.545  56.039  1.00  0.00     0.026 A 
HETATM   31  C   UNL     1       3.799  30.466  55.026  1.00  0.00     0.034 A 
HETATM   32 CL   UNL     1       3.127  32.046  55.129  1.00  0.00    -0.084 Cl
HETATM   33  C   UNL     1       4.576  30.110  53.934  1.00  0.00     0.026 A 
HETATM   34  C   UNL     1       5.124  28.823  53.857  1.00  0.00     0.031 A 
ENDBRANCH   2  28
TORSDOF 6
ENDMDL
MODEL 7
REMARK VINA RESULT:      -8.4      2.061      2.889
REMARK  6 active torsions:
REMARK  status: ('A' for Active; 'I' for Inactive)
REMARK    1  A    between atoms: O_2  and  C_3 
REMARK    2  A    between atoms: C_4  and  C_5 
REMARK    3  A    between atoms: C_5  and  N_6 
REMARK       I    between atoms: N_6  and  C_7 
REMARK    4  A    between atoms: C_7  and  C_8 
REMARK    5  A    between atoms: C_8  and  O_9 
REMARK    6  A    between atoms: N_10  and  C_11 
ROOT
HETATM    1  C   UNL     1       7.149  27.269  54.432  1.00  0.00     0.256 C 
HETATM    2  N   UNL     1       7.025  27.384  55.898  1.00  0.00    -0.254 N 
HETATM    3  C   UNL     1       7.464  26.364  56.729  1.00  0.00     0.330 C 
HETATM    4  O   UNL     1       7.580  26.441  57.954  1.00  0.00    -0.246 OA
HETATM    5  N   UNL     1       7.832  25.184  56.162  1.00  0.00    -0.308 N 
HETATM    6  C   UNL     1       7.807  24.885  54.813  1.00  0.00     0.048 A 
HETATM    7  C   UNL     1       7.467  25.881  53.911  1.00  0.00     0.034 A 
HETATM    8  C   UNL     1       8.138  23.596  54.388  1.00  0.00     0.030 A 
HETATM    9  C   UNL     1       8.125  23.290  53.029  1.00  0.00     0.002 A 
HETATM   10  C   UNL     1       7.795  24.275  52.104  1.00  0.00     0.001 A 
HETATM   11  C   UNL     1       7.478  25.563  52.540  1.00  0.00     0.015 A 
HETATM   12  H   UNL     1       8.110  24.477  56.830  1.00  0.00     0.170 HD
ENDROOT
BRANCH   1  13
HETATM   13  C   UNL     1       5.796  27.750  53.739  1.00  0.00     0.279 C 
HETATM   14  N   UNL     1       5.965  28.873  52.937  1.00  0.00    -0.352 N 
HETATM   15  H   UNL     1       6.859  29.349  53.007  1.00  0.00     0.162 HD
HETATM   16  O   UNL     1       4.716  27.179  53.878  1.00  0.00    -0.268 OA
BRANCH  14  17
HETATM   17  C   UNL     1       4.852  29.547  52.305  1.00  0.00     0.164 C 
BRANCH  17  18
HETATM   18  C   UNL     1       4.615  29.153  50.862  1.00  0.00    -0.007 A 
HETATM   19  C   UNL     1       5.311  29.846  49.849  1.00  0.00     0.076 A 
HETATM   20  C   UNL     1       5.102  29.518  48.504  1.00  0.00     0.037 A 
HETATM   21  C   UNL     1       4.202  28.512  48.155  1.00  0.00     0.003 A 
HETATM   22  C   UNL     1       3.512  27.821  49.146  1.00  0.00     0.001 A 
HETATM   23  C   UNL     1       3.718  28.137  50.489  1.00  0.00     0.011 A 
BRANCH  19  24
HETATM   24  O   UNL     1       6.185  30.811  50.282  1.00  0.00    -0.355 OA
HETATM   25  C   UNL     1       6.204  32.039  49.563  1.00  0.00     0.210 C 
ENDBRANCH  19  24
ENDBRANCH  17  18
ENDBRANCH  14  17
ENDBRANCH   1  13
BRANCH   1  26
HETATM   26  O   UNL     1       8.267  28.076  54.048  1.00  0.00    -0.359 OA
HETATM   27  H   UNL     1       8.624  27.604  53.275  1.00  0.00     0.213 HD
ENDBRANCH   1  26
BRANCH   2  28
HETATM   28  C   UNL     1       6.428  28.573  56.477  1.00  0.00     0.043 A 
HETATM   29  C   UNL     1       5.073  28.631  56.848  1.00  0.00     0.031 A 
HETATM   30  C   UNL     1       4.526  29.777  57.443  1.00  0.00     0.026 A 
HETATM   31  C   UNL     1       5.327  30.885  57.684  1.00  0.00     0.034 A 
HETATM   32 CL   UNL     1       4.657  32.287  58.422  1.00  0.00    -0.084 Cl
HETATM   33  C   UNL     1       6.669  30.859  57.333  1.00  0.00     0.026 A 
HETATM   34  C   UNL     1       7.211  29.713  56.736  1.00  0.00     0.031 A 
ENDBRANCH   2  28
TORSDOF 6
ENDMDL
MODEL 8
REMARK VINA RESULT:      -8.2      3.295      7.734
REMARK  6 active torsions:
REMARK  status: ('A' for Active; 'I' for Inactive)
REMARK    1  A    between atoms: O_2  and  C_3 
REMARK    2  A    between atoms: C_4  and  C_5 
REMARK    3  A    between atoms: C_5  and  N_6 
REMARK       I    between atoms: N_6  and  C_7 
REMARK    4  A    between atoms: C_7  and  C_8 
REMARK    5  A    between atoms: C_8  and  O_9 
REMARK    6  A    between atoms: N_10  and  C_11 
ROOT
HETATM    1  C   UNL     1       5.268  28.602  52.435  1.00  0.00     0.256 C 
HETATM    2  N   UNL     1       5.219  27.226  51.903  1.00  0.00    -0.254 N 
HETATM    3  C   UNL     1       4.408  26.912  50.821  1.00  0.00     0.330 C 
HETATM    4  O   UNL     1       4.439  25.854  50.190  1.00  0.00    -0.246 OA
HETATM    5  N   UNL     1       3.523  27.848  50.387  1.00  0.00    -0.308 N 
HETATM    6  C   UNL     1       3.335  29.106  50.927  1.00  0.00     0.048 A 
HETATM    7  C   UNL     1       4.169  29.527  51.951  1.00  0.00     0.034 A 
HETATM    8  C   UNL     1       2.324  29.928  50.421  1.00  0.00     0.030 A 
HETATM    9  C   UNL     1       2.136  31.201  50.954  1.00  0.00     0.002 A 
HETATM   10  C   UNL     1       2.966  31.650  51.977  1.00  0.00     0.001 A 
HETATM   11  C   UNL     1       3.980  30.824  52.465  1.00  0.00     0.015 A 
HETATM   12  H   UNL     1       2.944  27.538  49.617  1.00  0.00     0.170 HD
ENDROOT
BRANCH   1  13
HETATM   13  C   UNL     1       5.207  28.564  54.027  1.00  0.00     0.279 C 
HETATM   14  N   UNL     1       6.383  28.998  54.627  1.00  0.00    -0.352 N 
HETATM   15  H   UNL     1       7.183  29.128  54.015  1.00  0.00     0.162 HD
HETATM   16  O   UNL     1       4.217  28.211  54.665  1.00  0.00    -0.268 OA
BRANCH  14  17
HETATM   17  C   UNL     1       6.590  28.939  56.058  1.00  0.00     0.164 C 
BRANCH  17  18
HETATM   18  C   UNL     1       7.956  29.407  56.515  1.00  0.00    -0.007 A 
HETATM   19  C   UNL     1       8.060  30.090  57.745  1.00  0.00     0.076 A 
HETATM   20  C   UNL     1       9.305  30.551  58.189  1.00  0.00     0.037 A 
HETATM   21  C   UNL     1      10.448  30.347  57.417  1.00  0.00     0.003 A 
HETATM   22  C   UNL     1      10.357  29.674  56.204  1.00  0.00     0.001 A 
HETATM   23  C   UNL     1       9.122  29.205  55.756  1.00  0.00     0.011 A 
BRANCH  19  24
HETATM   24  O   UNL     1       6.888  30.235  58.445  1.00  0.00    -0.355 OA
HETATM   25  C   UNL     1       6.501  31.559  58.794  1.00  0.00     0.210 C 
ENDBRANCH  19  24
ENDBRANCH  17  18
ENDBRANCH  14  17
ENDBRANCH   1  13
BRANCH   1  26
HETATM   26  O   UNL     1       6.484  29.186  51.956  1.00  0.00    -0.359 OA
HETATM   27  H   UNL     1       6.173  29.841  51.307  1.00  0.00     0.213 HD
ENDBRANCH   1  26
BRANCH   2  28
HETATM   28  C   UNL     1       6.020  26.187  52.523  1.00  0.00     0.043 A 
HETATM   29  C   UNL     1       5.498  25.315  53.496  1.00  0.00     0.031 A 
HETATM   30  C   UNL     1       6.279  24.292  54.054  1.00  0.00     0.026 A 
HETATM   31  C   UNL     1       7.594  24.119  53.644  1.00  0.00     0.034 A 
HETATM   32 CL   UNL     1       8.547  22.858  54.323  1.00  0.00    -0.084 Cl
HETATM   33  C   UNL     1       8.137  24.960  52.684  1.00  0.00     0.026 A 
HETATM   34  C   UNL     1       7.355  25.982  52.131  1.00  0.00     0.031 A 
ENDBRANCH   2  28
TORSDOF 6
ENDMDL
MODEL 9
REMARK VINA RESULT:      -8.2      3.391      6.427
REMARK  6 active torsions:
REMARK  status: ('A' for Active; 'I' for Inactive)
REMARK    1  A    between atoms: O_2  and  C_3 
REMARK    2  A    between atoms: C_4  and  C_5 
REMARK    3  A    between atoms: C_5  and  N_6 
REMARK       I    between atoms: N_6  and  C_7 
REMARK    4  A    between atoms: C_7  and  C_8 
REMARK    5  A    between atoms: C_8  and  O_9 
REMARK    6  A    between atoms: N_10  and  C_11 
ROOT
HETATM    1  C   UNL     1       5.555  29.233  57.005  1.00  0.00     0.256 C 
HETATM    2  N   UNL     1       6.920  28.694  56.848  1.00  0.00    -0.254 N 
HETATM    3  C   UNL     1       7.963  29.164  57.633  1.00  0.00     0.330 C 
HETATM    4  O   UNL     1       9.082  28.654  57.713  1.00  0.00    -0.246 OA
HETATM    5  N   UNL     1       7.742  30.258  58.410  1.00  0.00    -0.308 N 
HETATM    6  C   UNL     1       6.562  30.972  58.496  1.00  0.00     0.048 A 
HETATM    7  C   UNL     1       5.448  30.512  57.812  1.00  0.00     0.034 A 
HETATM    8  C   UNL     1       6.513  32.129  59.279  1.00  0.00     0.030 A 
HETATM    9  C   UNL     1       5.324  32.848  59.378  1.00  0.00     0.002 A 
HETATM   10  C   UNL     1       4.190  32.401  58.708  1.00  0.00     0.001 A 
HETATM   11  C   UNL     1       4.248  31.237  57.939  1.00  0.00     0.015 A 
HETATM   12  H   UNL     1       8.554  30.563  58.929  1.00  0.00     0.170 HD
ENDROOT
BRANCH   1  13
HETATM   13  C   UNL     1       4.918  29.508  55.570  1.00  0.00     0.279 C 
HETATM   14  N   UNL     1       4.127  28.460  55.115  1.00  0.00    -0.352 N 
HETATM   15  H   UNL     1       4.171  27.596  55.646  1.00  0.00     0.162 HD
HETATM   16  O   UNL     1       5.088  30.548  54.934  1.00  0.00    -0.268 OA
BRANCH  14  17
HETATM   17  C   UNL     1       3.545  28.447  53.791  1.00  0.00     0.164 C 
BRANCH  17  18
HETATM   18  C   UNL     1       4.226  27.511  52.814  1.00  0.00    -0.007 A 
HETATM   19  C   UNL     1       4.828  28.058  51.662  1.00  0.00     0.076 A 
HETATM   20  C   UNL     1       5.451  27.218  50.730  1.00  0.00     0.037 A 
HETATM   21  C   UNL     1       5.474  25.838  50.930  1.00  0.00     0.003 A 
HETATM   22  C   UNL     1       4.885  25.289  52.064  1.00  0.00     0.001 A 
HETATM   23  C   UNL     1       4.267  26.118  53.000  1.00  0.00     0.011 A 
BRANCH  19  24
HETATM   24  O   UNL     1       4.769  29.424  51.552  1.00  0.00    -0.355 OA
HETATM   25  C   UNL     1       5.334  30.006  50.382  1.00  0.00     0.210 C 
ENDBRANCH  19  24
ENDBRANCH  17  18
ENDBRANCH  14  17
ENDBRANCH   1  13
BRANCH   1  26
HETATM   26  O   UNL     1       4.810  28.261  57.747  1.00  0.00    -0.359 OA
HETATM   27  H   UNL     1       4.618  28.722  58.582  1.00  0.00     0.213 HD
ENDBRANCH   1  26
BRANCH   2  28
HETATM   28  C   UNL     1       7.178  27.667  55.855  1.00  0.00     0.043 A 
HETATM   29  C   UNL     1       7.605  27.972  54.551  1.00  0.00     0.031 A 
HETATM   30  C   UNL     1       7.886  26.963  53.619  1.00  0.00     0.026 A 
HETATM   31  C   UNL     1       7.751  25.628  53.978  1.00  0.00     0.034 A 
HETATM   32 CL   UNL     1       8.105  24.391  52.837  1.00  0.00    -0.084 Cl
HETATM   33  C   UNL     1       7.334  25.294  55.258  1.00  0.00     0.026 A 
HETATM   34  C   UNL     1       7.051  26.306  56.185  1.00  0.00     0.031 A 
ENDBRANCH   2  28
TORSDOF 6
ENDMDL
MODEL 10
REMARK VINA RESULT:      -8.1     10.070     13.654
REMARK  6 active torsions:
REMARK  status: ('A' for Active; 'I' for Inactive)
REMARK    1  A    between atoms: O_2  and  C_3 
REMARK    2  A    between atoms: C_4  and  C_5 
REMARK    3  A    between atoms: C_5  and  N_6 
REMARK       I    between atoms: N_6  and  C_7 
REMARK    4  A    between atoms: C_7  and  C_8 
REMARK    5  A    between atoms: C_8  and  O_9 
REMARK    6  A    between atoms: N_10  and  C_11 
ROOT
HETATM    1  C   UNL     1       3.617  35.215  62.517  1.00  0.00     0.256 C 
HETATM    2  N   UNL     1       4.469  35.977  63.450  1.00  0.00    -0.254 N 
HETATM    3  C   UNL     1       5.031  37.189  63.071  1.00  0.00     0.330 C 
HETATM    4  O   UNL     1       5.591  37.983  63.828  1.00  0.00    -0.246 OA
HETATM    5  N   UNL     1       4.936  37.562  61.767  1.00  0.00    -0.308 N 
HETATM    6  C   UNL     1       4.332  36.841  60.754  1.00  0.00     0.048 A 
HETATM    7  C   UNL     1       3.670  35.665  61.070  1.00  0.00     0.034 A 
HETATM    8  C   UNL     1       4.388  37.319  59.442  1.00  0.00     0.030 A 
HETATM    9  C   UNL     1       3.772  36.604  58.418  1.00  0.00     0.002 A 
HETATM   10  C   UNL     1       3.095  35.425  58.711  1.00  0.00     0.001 A 
HETATM   11  C   UNL     1       3.036  34.964  60.028  1.00  0.00     0.015 A 
HETATM   12  H   UNL     1       5.394  38.439  61.557  1.00  0.00     0.170 HD
ENDROOT
BRANCH   1  13
HETATM   13  C   UNL     1       4.017  33.673  62.562  1.00  0.00     0.279 C 
HETATM   14  N   UNL     1       5.299  33.429  62.086  1.00  0.00    -0.352 N 
HETATM   15  H   UNL     1       5.765  34.203  61.622  1.00  0.00     0.162 HD
HETATM   16  O   UNL     1       3.279  32.787  62.993  1.00  0.00    -0.268 OA
BRANCH  14  17
HETATM   17  C   UNL     1       5.826  32.091  61.928  1.00  0.00     0.164 C 
BRANCH  17  18
HETATM   18  C   UNL     1       7.234  32.030  61.374  1.00  0.00    -0.007 A 
HETATM   19  C   UNL     1       7.413  32.096  59.976  1.00  0.00     0.076 A 
HETATM   20  C   UNL     1       8.700  32.026  59.430  1.00  0.00     0.037 A 
HETATM   21  C   UNL     1       9.811  31.882  60.260  1.00  0.00     0.003 A 
HETATM   22  C   UNL     1       9.646  31.818  61.639  1.00  0.00     0.001 A 
HETATM   23  C   UNL     1       8.368  31.893  62.193  1.00  0.00     0.011 A 
BRANCH  19  24
HETATM   24  O   UNL     1       6.267  32.250  59.236  1.00  0.00    -0.355 OA
HETATM   25  C   UNL     1       6.157  31.481  58.044  1.00  0.00     0.210 C 
ENDBRANCH  19  24
ENDBRANCH  17  18
ENDBRANCH  14  17
ENDBRANCH   1  13
BRANCH   1  26
HETATM   26  O   UNL     1       2.262  35.433  62.925  1.00  0.00    -0.359 OA
HETATM   27  H   UNL     1       1.804  35.604  62.084  1.00  0.00     0.213 HD
ENDBRANCH   1  26
BRANCH   2  28
HETATM   28  C   UNL     1       4.733  35.450  64.776  1.00  0.00     0.043 A 
HETATM   29  C   UNL     1       5.888  34.705  65.074  1.00  0.00     0.031 A 
HETATM   30  C   UNL     1       6.142  34.239  66.372  1.00  0.00     0.026 A 
HETATM   31  C   UNL     1       5.247  34.515  67.398  1.00  0.00     0.034 A 
HETATM   32 CL   UNL     1       5.565  33.949  68.991  1.00  0.00    -0.084 Cl
HETATM   33  C   UNL     1       4.100  35.250  67.137  1.00  0.00     0.026 A 
HETATM   34  C   UNL     1       3.849  35.711  65.838  1.00  0.00     0.031 A 
ENDBRANCH   2  28
TORSDOF 6
ENDMDL
