MODEL 1
REMARK VINA RESULT:      -9.0      0.000      0.000
REMARK  9 active torsions:
REMARK  status: ('A' for Active; 'I' for Inactive)
REMARK    1  A    between atoms: C_2  and  C_3 
REMARK    2  A    between atoms: C_3  and  O_4 
REMARK    3  A    between atoms: O_4  and  C_5 
REMARK    4  A    between atoms: C_8  and  C_9 
REMARK    5  A    between atoms: N_11  and  C_12 
REMARK    6  A    between atoms: C_19  and  C_20 
REMARK    7  A    between atoms: C_20  and  S_21 
REMARK    8  A    between atoms: S_21  and  C_22 
REMARK    9  A    between atoms: C_22  and  N_23 
ROOT
HETATM    1  C   UNL     1       6.648  25.853  55.285  1.00  0.00     0.096 C 
HETATM    2  N   UNL     1       7.433  24.777  55.416  1.00  0.00    -0.167 NA
HETATM    3  N   UNL     1       6.989  23.868  54.521  1.00  0.00    -0.244 N 
HETATM    4  C   UNL     1       6.051  24.433  53.687  1.00  0.00     0.129 C 
HETATM    5  C   UNL     1       5.822  25.724  54.125  1.00  0.00     0.001 C 
ENDROOT
BRANCH   1   6
HETATM    6  C   UNL     1       6.829  27.005  56.173  1.00  0.00    -0.005 A 
HETATM    7  C   UNL     1       8.121  27.391  56.562  1.00  0.00     0.016 A 
HETATM    8  C   UNL     1       8.326  28.532  57.347  1.00  0.00     0.037 A 
HETATM    9  C   UNL     1       7.241  29.303  57.754  1.00  0.00     0.068 A 
HETATM   10  C   UNL     1       5.949  28.895  57.414  1.00  0.00     0.037 A 
HETATM   11  C   UNL     1       5.741  27.749  56.637  1.00  0.00     0.016 A 
BRANCH   9  12
HETATM   12  O   UNL     1       7.299  30.457  58.481  1.00  0.00    -0.351 OA
BRANCH  12  13
HETATM   13  C   UNL     1       8.148  30.467  59.632  1.00  0.00     0.179 C 
BRANCH  13  14
HETATM   14  C   UNL     1       9.006  31.740  59.604  1.00  0.00     0.002 C 
HETATM   15  C   UNL     1      10.104  31.641  58.543  1.00  0.00     0.011 C 
HETATM   16  C   UNL     1       9.621  31.996  60.979  1.00  0.00     0.011 C 
ENDBRANCH  13  14
ENDBRANCH  12  13
ENDBRANCH   9  12
ENDBRANCH   1   6
BRANCH   5  17
HETATM   17  C   UNL     1       4.926  26.720  53.473  1.00  0.00     0.125 C 
BRANCH  17  18
HETATM   18  S   UNL     1       5.780  27.749  52.239  1.00  0.00    -0.090 SA
BRANCH  18  19
HETATM   19  C   UNL     1       5.248  27.054  50.765  1.00  0.00     0.131 C 
HETATM   20  N   UNL     1       5.597  27.636  49.647  1.00  0.00    -0.380 N 
HETATM   21  H   UNL     1       6.177  28.467  49.699  1.00  0.00     0.158 HD
HETATM   22  H   UNL     1       5.352  27.272  48.739  1.00  0.00     0.158 HD
BRANCH  19  23
HETATM   23  N   UNL     1       4.556  25.944  50.781  1.00  0.00    -0.380 N 
HETATM   24  H   UNL     1       4.861  25.187  51.386  1.00  0.00     0.158 HD
HETATM   25  H   UNL     1       3.728  25.794  50.223  1.00  0.00     0.158 HD
ENDBRANCH  19  23
ENDBRANCH  18  19
ENDBRANCH  17  18
ENDBRANCH   5  17
BRANCH   3  26
HETATM   26  C   UNL     1       7.549  22.562  54.462  1.00  0.00     0.058 A 
HETATM   27  C   UNL     1       7.903  22.021  53.216  1.00  0.00     0.031 A 
HETATM   28  C   UNL     1       8.441  20.735  53.133  1.00  0.00     0.002 A 
HETATM   29  C   UNL     1       8.632  19.983  54.289  1.00  0.00     0.000 A 
HETATM   30  C   UNL     1       8.291  20.516  55.532  1.00  0.00     0.002 A 
HETATM   31  C   UNL     1       7.752  21.802  55.623  1.00  0.00     0.031 A 
ENDBRANCH   3  26
TORSDOF 9
ENDMDL
MODEL 2
REMARK VINA RESULT:      -8.8      0.453      1.187
REMARK  9 active torsions:
REMARK  status: ('A' for Active; 'I' for Inactive)
REMARK    1  A    between atoms: C_2  and  C_3 
REMARK    2  A    between atoms: C_3  and  O_4 
REMARK    3  A    between atoms: O_4  and  C_5 
REMARK    4  A    between atoms: C_8  and  C_9 
REMARK    5  A    between atoms: N_11  and  C_12 
REMARK    6  A    between atoms: C_19  and  C_20 
REMARK    7  A    between atoms: C_20  and  S_21 
REMARK    8  A    between atoms: S_21  and  C_22 
REMARK    9  A    between atoms: C_22  and  N_23 
ROOT
HETATM    1  C   UNL     1       6.690  25.837  55.313  1.00  0.00     0.096 C 
HETATM    2  N   UNL     1       7.466  24.751  55.406  1.00  0.00    -0.167 NA
HETATM    3  N   UNL     1       7.003  23.870  54.492  1.00  0.00    -0.244 N 
HETATM    4  C   UNL     1       6.061  24.467  53.684  1.00  0.00     0.129 C 
HETATM    5  C   UNL     1       5.851  25.748  54.159  1.00  0.00     0.001 C 
ENDROOT
BRANCH   1   6
HETATM    6  C   UNL     1       6.894  26.963  56.230  1.00  0.00    -0.005 A 
HETATM    7  C   UNL     1       8.190  27.297  56.650  1.00  0.00     0.016 A 
HETATM    8  C   UNL     1       8.418  28.413  57.464  1.00  0.00     0.037 A 
HETATM    9  C   UNL     1       7.352  29.211  57.869  1.00  0.00     0.068 A 
HETATM   10  C   UNL     1       6.054  28.854  57.496  1.00  0.00     0.037 A 
HETATM   11  C   UNL     1       5.822  27.733  56.691  1.00  0.00     0.016 A 
BRANCH   9  12
HETATM   12  O   UNL     1       7.435  30.346  58.622  1.00  0.00    -0.351 OA
BRANCH  12  13
HETATM   13  C   UNL     1       8.476  30.411  59.601  1.00  0.00     0.179 C 
BRANCH  13  14
HETATM   14  C   UNL     1       8.606  31.860  60.091  1.00  0.00     0.002 C 
HETATM   15  C   UNL     1       9.580  31.958  61.268  1.00  0.00     0.011 C 
HETATM   16  C   UNL     1       7.238  32.412  60.489  1.00  0.00     0.011 C 
ENDBRANCH  13  14
ENDBRANCH  12  13
ENDBRANCH   9  12
ENDBRANCH   1   6
BRANCH   5  17
HETATM   17  C   UNL     1       4.958  26.770  53.545  1.00  0.00     0.125 C 
BRANCH  17  18
HETATM   18  S   UNL     1       5.798  27.797  52.300  1.00  0.00    -0.090 SA
BRANCH  18  19
HETATM   19  C   UNL     1       5.238  27.109  50.834  1.00  0.00     0.131 C 
HETATM   20  N   UNL     1       5.580  27.687  49.711  1.00  0.00    -0.380 N 
HETATM   21  H   UNL     1       6.171  28.511  49.755  1.00  0.00     0.158 HD
HETATM   22  H   UNL     1       5.319  27.326  48.806  1.00  0.00     0.158 HD
BRANCH  19  23
HETATM   23  N   UNL     1       4.533  26.008  50.859  1.00  0.00    -0.380 N 
HETATM   24  H   UNL     1       4.959  25.163  51.230  1.00  0.00     0.158 HD
HETATM   25  H   UNL     1       3.581  25.946  50.528  1.00  0.00     0.158 HD
ENDBRANCH  19  23
ENDBRANCH  18  19
ENDBRANCH  17  18
ENDBRANCH   5  17
BRANCH   3  26
HETATM   26  C   UNL     1       7.549  22.561  54.391  1.00  0.00     0.058 A 
HETATM   27  C   UNL     1       7.739  21.804  55.559  1.00  0.00     0.031 A 
HETATM   28  C   UNL     1       8.288  20.522  55.485  1.00  0.00     0.002 A 
HETATM   29  C   UNL     1       8.648  19.987  54.252  1.00  0.00     0.000 A 
HETATM   30  C   UNL     1       8.456  20.729  53.087  1.00  0.00     0.002 A 
HETATM   31  C   UNL     1       7.907  22.013  53.151  1.00  0.00     0.031 A 
ENDBRANCH   3  26
TORSDOF 9
ENDMDL
MODEL 3
REMARK VINA RESULT:      -8.5      3.738      7.234
REMARK  9 active torsions:
REMARK  status: ('A' for Active; 'I' for Inactive)
REMARK    1  A    between atoms: C_2  and  C_3 
REMARK    2  A    between atoms: C_3  and  O_4 
REMARK    3  A    between atoms: O_4  and  C_5 
REMARK    4  A    between atoms: C_8  and  C_9 
REMARK    5  A    between atoms: N_11  and  C_12 
REMARK    6  A    between atoms: C_19  and  C_20 
REMARK    7  A    between atoms: C_20  and  S_21 
REMARK    8  A    between atoms: S_21  and  C_22 
REMARK    9  A    between atoms: C_22  and  N_23 
ROOT
HETATM    1  C   UNL     1       6.316  25.679  53.220  1.00  0.00     0.096 C 
HETATM    2  N   UNL     1       6.388  24.343  53.219  1.00  0.00    -0.167 NA
HETATM    3  N   UNL     1       7.253  24.006  54.202  1.00  0.00    -0.244 N 
HETATM    4  C   UNL     1       7.581  25.112  54.953  1.00  0.00     0.129 C 
HETATM    5  C   UNL     1       6.973  26.210  54.373  1.00  0.00     0.001 C 
ENDROOT
BRANCH   1   6
HETATM    6  C   UNL     1       5.502  26.369  52.215  1.00  0.00    -0.005 A 
HETATM    7  C   UNL     1       4.759  27.503  52.575  1.00  0.00     0.016 A 
HETATM    8  C   UNL     1       4.034  28.224  51.618  1.00  0.00     0.037 A 
HETATM    9  C   UNL     1       4.043  27.820  50.286  1.00  0.00     0.068 A 
HETATM   10  C   UNL     1       4.738  26.662  49.931  1.00  0.00     0.037 A 
HETATM   11  C   UNL     1       5.455  25.934  50.887  1.00  0.00     0.016 A 
BRANCH   9  12
HETATM   12  O   UNL     1       3.420  28.451  49.248  1.00  0.00    -0.351 OA
BRANCH  12  13
HETATM   13  C   UNL     1       3.729  28.002  47.926  1.00  0.00     0.179 C 
BRANCH  13  14
HETATM   14  C   UNL     1       2.458  27.421  47.289  1.00  0.00     0.002 C 
HETATM   15  C   UNL     1       1.245  27.621  48.202  1.00  0.00     0.011 C 
HETATM   16  C   UNL     1       2.649  25.938  46.979  1.00  0.00     0.011 C 
ENDBRANCH  13  14
ENDBRANCH  12  13
ENDBRANCH   9  12
ENDBRANCH   1   6
BRANCH   5  17
HETATM   17  C   UNL     1       7.008  27.604  54.898  1.00  0.00     0.125 C 
BRANCH  17  18
HETATM   18  S   UNL     1       6.549  27.718  56.655  1.00  0.00    -0.090 SA
BRANCH  18  19
HETATM   19  C   UNL     1       4.906  27.231  56.627  1.00  0.00     0.131 C 
HETATM   20  N   UNL     1       4.021  28.077  56.167  1.00  0.00    -0.380 N 
HETATM   21  H   UNL     1       4.344  28.980  55.837  1.00  0.00     0.158 HD
HETATM   22  H   UNL     1       3.039  27.855  56.087  1.00  0.00     0.158 HD
BRANCH  19  23
HETATM   23  N   UNL     1       4.578  26.025  57.011  1.00  0.00    -0.380 N 
HETATM   24  H   UNL     1       3.848  25.917  57.710  1.00  0.00     0.158 HD
HETATM   25  H   UNL     1       5.009  25.187  56.650  1.00  0.00     0.158 HD
ENDBRANCH  19  23
ENDBRANCH  18  19
ENDBRANCH  17  18
ENDBRANCH   5  17
BRANCH   3  26
HETATM   26  C   UNL     1       7.633  22.652  54.411  1.00  0.00     0.058 A 
HETATM   27  C   UNL     1       7.654  22.138  55.718  1.00  0.00     0.031 A 
HETATM   28  C   UNL     1       8.038  20.816  55.949  1.00  0.00     0.002 A 
HETATM   29  C   UNL     1       8.401  19.999  54.882  1.00  0.00     0.000 A 
HETATM   30  C   UNL     1       8.377  20.499  53.580  1.00  0.00     0.002 A 
HETATM   31  C   UNL     1       7.993  21.821  53.340  1.00  0.00     0.031 A 
ENDBRANCH   3  26
TORSDOF 9
ENDMDL
MODEL 4
REMARK VINA RESULT:      -8.2      3.360      8.008
REMARK  9 active torsions:
REMARK  status: ('A' for Active; 'I' for Inactive)
REMARK    1  A    between atoms: C_2  and  C_3 
REMARK    2  A    between atoms: C_3  and  O_4 
REMARK    3  A    between atoms: O_4  and  C_5 
REMARK    4  A    between atoms: C_8  and  C_9 
REMARK    5  A    between atoms: N_11  and  C_12 
REMARK    6  A    between atoms: C_19  and  C_20 
REMARK    7  A    between atoms: C_20  and  S_21 
REMARK    8  A    between atoms: S_21  and  C_22 
REMARK    9  A    between atoms: C_22  and  N_23 
ROOT
HETATM    1  C   UNL     1       5.334  26.435  51.623  1.00  0.00     0.096 C 
HETATM    2  N   UNL     1       4.809  25.973  50.483  1.00  0.00    -0.167 NA
HETATM    3  N   UNL     1       4.047  26.970  49.981  1.00  0.00    -0.244 N 
HETATM    4  C   UNL     1       4.240  28.130  50.697  1.00  0.00     0.129 C 
HETATM    5  C   UNL     1       5.089  27.838  51.749  1.00  0.00     0.001 C 
ENDROOT
BRANCH   1   6
HETATM    6  C   UNL     1       6.167  25.560  52.453  1.00  0.00    -0.005 A 
HETATM    7  C   UNL     1       7.396  25.093  51.964  1.00  0.00     0.016 A 
HETATM    8  C   UNL     1       8.244  24.319  52.764  1.00  0.00     0.037 A 
HETATM    9  C   UNL     1       7.874  24.000  54.068  1.00  0.00     0.068 A 
HETATM   10  C   UNL     1       6.629  24.418  54.544  1.00  0.00     0.037 A 
HETATM   11  C   UNL     1       5.775  25.184  53.742  1.00  0.00     0.016 A 
BRANCH   9  12
HETATM   12  O   UNL     1       8.619  23.294  54.968  1.00  0.00    -0.351 OA
BRANCH  12  13
HETATM   13  C   UNL     1       9.241  22.092  54.506  1.00  0.00     0.179 C 
BRANCH  13  14
HETATM   14  C   UNL     1       8.166  21.007  54.345  1.00  0.00     0.002 C 
HETATM   15  C   UNL     1       8.312  19.924  55.417  1.00  0.00     0.011 C 
HETATM   16  C   UNL     1       8.242  20.387  52.951  1.00  0.00     0.011 C 
ENDBRANCH  13  14
ENDBRANCH  12  13
ENDBRANCH   9  12
ENDBRANCH   1   6
BRANCH   5  17
HETATM   17  C   UNL     1       5.617  28.817  52.740  1.00  0.00     0.125 C 
BRANCH  17  18
HETATM   18  S   UNL     1       4.683  28.827  54.301  1.00  0.00    -0.090 SA
BRANCH  18  19
HETATM   19  C   UNL     1       5.927  29.043  55.460  1.00  0.00     0.131 C 
HETATM   20  N   UNL     1       6.583  27.986  55.864  1.00  0.00    -0.380 N 
HETATM   21  H   UNL     1       6.336  27.086  55.467  1.00  0.00     0.158 HD
HETATM   22  H   UNL     1       7.350  28.033  56.519  1.00  0.00     0.158 HD
BRANCH  19  23
HETATM   23  N   UNL     1       6.229  30.246  55.875  1.00  0.00    -0.380 N 
HETATM   24  H   UNL     1       5.931  30.531  56.804  1.00  0.00     0.158 HD
HETATM   25  H   UNL     1       6.746  30.914  55.322  1.00  0.00     0.158 HD
ENDBRANCH  19  23
ENDBRANCH  18  19
ENDBRANCH  17  18
ENDBRANCH   5  17
BRANCH   3  26
HETATM   26  C   UNL     1       3.263  26.776  48.810  1.00  0.00     0.058 A 
HETATM   27  C   UNL     1       2.268  27.712  48.486  1.00  0.00     0.031 A 
HETATM   28  C   UNL     1       1.477  27.534  47.349  1.00  0.00     0.002 A 
HETATM   29  C   UNL     1       1.673  26.426  46.530  1.00  0.00     0.000 A 
HETATM   30  C   UNL     1       2.664  25.495  46.840  1.00  0.00     0.002 A 
HETATM   31  C   UNL     1       3.460  25.666  47.976  1.00  0.00     0.031 A 
ENDBRANCH   3  26
TORSDOF 9
ENDMDL
MODEL 5
REMARK VINA RESULT:      -8.1      1.804      2.419
REMARK  9 active torsions:
REMARK  status: ('A' for Active; 'I' for Inactive)
REMARK    1  A    between atoms: C_2  and  C_3 
REMARK    2  A    between atoms: C_3  and  O_4 
REMARK    3  A    between atoms: O_4  and  C_5 
REMARK    4  A    between atoms: C_8  and  C_9 
REMARK    5  A    between atoms: N_11  and  C_12 
REMARK    6  A    between atoms: C_19  and  C_20 
REMARK    7  A    between atoms: C_20  and  S_21 
REMARK    8  A    between atoms: S_21  and  C_22 
REMARK    9  A    between atoms: C_22  and  N_23 
ROOT
HETATM    1  C   UNL     1       7.487  26.270  55.534  1.00  0.00     0.096 C 
HETATM    2  N   UNL     1       7.850  25.096  56.063  1.00  0.00    -0.167 NA
HETATM    3  N   UNL     1       7.743  24.181  55.074  1.00  0.00    -0.244 N 
HETATM    4  C   UNL     1       7.501  24.802  53.869  1.00  0.00     0.129 C 
HETATM    5  C   UNL     1       7.359  26.155  54.114  1.00  0.00     0.001 C 
ENDROOT
BRANCH   1   6
HETATM    6  C   UNL     1       7.430  27.467  56.378  1.00  0.00    -0.005 A 
HETATM    7  C   UNL     1       6.203  28.111  56.597  1.00  0.00     0.016 A 
HETATM    8  C   UNL     1       6.109  29.209  57.459  1.00  0.00     0.037 A 
HETATM    9  C   UNL     1       7.242  29.680  58.115  1.00  0.00     0.068 A 
HETATM   10  C   UNL     1       8.476  29.077  57.861  1.00  0.00     0.037 A 
HETATM   11  C   UNL     1       8.574  27.984  56.992  1.00  0.00     0.016 A 
BRANCH   9  12
HETATM   12  O   UNL     1       7.287  30.710  59.011  1.00  0.00    -0.351 OA
BRANCH  12  13
HETATM   13  C   UNL     1       6.543  31.889  58.694  1.00  0.00     0.179 C 
BRANCH  13  14
HETATM   14  C   UNL     1       5.435  32.073  59.742  1.00  0.00     0.002 C 
HETATM   15  C   UNL     1       4.135  32.550  59.090  1.00  0.00     0.011 C 
HETATM   16  C   UNL     1       5.881  33.061  60.819  1.00  0.00     0.011 C 
ENDBRANCH  13  14
ENDBRANCH  12  13
ENDBRANCH   9  12
ENDBRANCH   1   6
BRANCH   5  17
HETATM   17  C   UNL     1       7.151  27.211  53.084  1.00  0.00     0.125 C 
BRANCH  17  18
HETATM   18  S   UNL     1       5.757  26.856  51.969  1.00  0.00    -0.090 SA
BRANCH  18  19
HETATM   19  C   UNL     1       4.471  26.609  53.075  1.00  0.00     0.131 C 
HETATM   20  N   UNL     1       4.022  25.392  53.236  1.00  0.00    -0.380 N 
HETATM   21  H   UNL     1       4.460  24.644  52.709  1.00  0.00     0.158 HD
HETATM   22  H   UNL     1       3.289  25.158  53.890  1.00  0.00     0.158 HD
BRANCH  19  23
HETATM   23  N   UNL     1       4.002  27.617  53.764  1.00  0.00    -0.380 N 
HETATM   24  H   UNL     1       3.240  28.163  53.374  1.00  0.00     0.158 HD
HETATM   25  H   UNL     1       4.356  27.886  54.671  1.00  0.00     0.158 HD
ENDBRANCH  19  23
ENDBRANCH  18  19
ENDBRANCH  17  18
ENDBRANCH   5  17
BRANCH   3  26
HETATM   26  C   UNL     1       7.966  22.799  55.325  1.00  0.00     0.058 A 
HETATM   27  C   UNL     1       7.845  21.880  54.271  1.00  0.00     0.031 A 
HETATM   28  C   UNL     1       8.046  20.517  54.498  1.00  0.00     0.002 A 
HETATM   29  C   UNL     1       8.370  20.063  55.773  1.00  0.00     0.000 A 
HETATM   30  C   UNL     1       8.500  20.970  56.824  1.00  0.00     0.002 A 
HETATM   31  C   UNL     1       8.301  22.336  56.606  1.00  0.00     0.031 A 
ENDBRANCH   3  26
TORSDOF 9
ENDMDL
MODEL 6
REMARK VINA RESULT:      -8.0      1.685      2.375
REMARK  9 active torsions:
REMARK  status: ('A' for Active; 'I' for Inactive)
REMARK    1  A    between atoms: C_2  and  C_3 
REMARK    2  A    between atoms: C_3  and  O_4 
REMARK    3  A    between atoms: O_4  and  C_5 
REMARK    4  A    between atoms: C_8  and  C_9 
REMARK    5  A    between atoms: N_11  and  C_12 
REMARK    6  A    between atoms: C_19  and  C_20 
REMARK    7  A    between atoms: C_20  and  S_21 
REMARK    8  A    between atoms: S_21  and  C_22 
REMARK    9  A    between atoms: C_22  and  N_23 
ROOT
HETATM    1  C   UNL     1       6.487  25.968  54.837  1.00  0.00     0.096 C 
HETATM    2  N   UNL     1       7.302  24.924  55.029  1.00  0.00    -0.167 NA
HETATM    3  N   UNL     1       6.869  23.944  54.205  1.00  0.00    -0.244 N 
HETATM    4  C   UNL     1       5.904  24.427  53.351  1.00  0.00     0.129 C 
HETATM    5  C   UNL     1       5.648  25.739  53.703  1.00  0.00     0.001 C 
ENDROOT
BRANCH   1   6
HETATM    6  C   UNL     1       6.652  27.183  55.641  1.00  0.00    -0.005 A 
HETATM    7  C   UNL     1       7.696  28.075  55.354  1.00  0.00     0.016 A 
HETATM    8  C   UNL     1       7.829  29.278  56.057  1.00  0.00     0.037 A 
HETATM    9  C   UNL     1       6.919  29.607  57.057  1.00  0.00     0.068 A 
HETATM   10  C   UNL     1       5.908  28.700  57.382  1.00  0.00     0.037 A 
HETATM   11  C   UNL     1       5.778  27.492  56.688  1.00  0.00     0.016 A 
BRANCH   9  12
HETATM   12  O   UNL     1       6.904  30.760  57.788  1.00  0.00    -0.351 OA
BRANCH  12  13
HETATM   13  C   UNL     1       5.629  31.272  58.183  1.00  0.00     0.179 C 
BRANCH  13  14
HETATM   14  C   UNL     1       5.211  32.374  57.199  1.00  0.00     0.002 C 
HETATM   15  C   UNL     1       4.781  33.641  57.943  1.00  0.00     0.011 C 
HETATM   16  C   UNL     1       4.081  31.880  56.297  1.00  0.00     0.011 C 
ENDBRANCH  13  14
ENDBRANCH  12  13
ENDBRANCH   9  12
ENDBRANCH   1   6
BRANCH   5  17
HETATM   17  C   UNL     1       4.716  26.665  52.999  1.00  0.00     0.125 C 
BRANCH  17  18
HETATM   18  S   UNL     1       5.572  27.862  51.929  1.00  0.00    -0.090 SA
BRANCH  18  19
HETATM   19  C   UNL     1       4.746  27.662  50.440  1.00  0.00     0.131 C 
HETATM   20  N   UNL     1       5.435  27.261  49.403  1.00  0.00    -0.380 N 
HETATM   21  H   UNL     1       6.424  27.074  49.526  1.00  0.00     0.158 HD
HETATM   22  H   UNL     1       5.018  27.088  48.500  1.00  0.00     0.158 HD
BRANCH  19  23
HETATM   23  N   UNL     1       3.456  27.862  50.379  1.00  0.00    -0.380 N 
HETATM   24  H   UNL     1       3.013  27.925  49.467  1.00  0.00     0.158 HD
HETATM   25  H   UNL     1       2.866  27.959  51.194  1.00  0.00     0.158 HD
ENDBRANCH  19  23
ENDBRANCH  18  19
ENDBRANCH  17  18
ENDBRANCH   5  17
BRANCH   3  26
HETATM   26  C   UNL     1       7.463  22.652  54.227  1.00  0.00     0.058 A 
HETATM   27  C   UNL     1       7.684  22.018  55.460  1.00  0.00     0.031 A 
HETATM   28  C   UNL     1       8.280  20.756  55.506  1.00  0.00     0.002 A 
HETATM   29  C   UNL     1       8.654  20.118  54.327  1.00  0.00     0.000 A 
HETATM   30  C   UNL     1       8.430  20.737  53.098  1.00  0.00     0.002 A 
HETATM   31  C   UNL     1       7.835  22.001  53.043  1.00  0.00     0.031 A 
ENDBRANCH   3  26
TORSDOF 9
ENDMDL
MODEL 7
REMARK VINA RESULT:      -8.0      3.597      6.908
REMARK  9 active torsions:
REMARK  status: ('A' for Active; 'I' for Inactive)
REMARK    1  A    between atoms: C_2  and  C_3 
REMARK    2  A    between atoms: C_3  and  O_4 
REMARK    3  A    between atoms: O_4  and  C_5 
REMARK    4  A    between atoms: C_8  and  C_9 
REMARK    5  A    between atoms: N_11  and  C_12 
REMARK    6  A    between atoms: C_19  and  C_20 
REMARK    7  A    between atoms: C_20  and  S_21 
REMARK    8  A    between atoms: S_21  and  C_22 
REMARK    9  A    between atoms: C_22  and  N_23 
ROOT
HETATM    1  C   UNL     1       6.357  25.847  52.913  1.00  0.00     0.096 C 
HETATM    2  N   UNL     1       6.455  24.513  52.883  1.00  0.00    -0.167 NA
HETATM    3  N   UNL     1       7.189  24.159  53.961  1.00  0.00    -0.244 N 
HETATM    4  C   UNL     1       7.393  25.246  54.781  1.00  0.00     0.129 C 
HETATM    5  C   UNL     1       6.846  26.352  54.158  1.00  0.00     0.001 C 
ENDROOT
BRANCH   1   6
HETATM    6  C   UNL     1       5.670  26.555  51.829  1.00  0.00    -0.005 A 
HETATM    7  C   UNL     1       5.545  27.952  51.874  1.00  0.00     0.016 A 
HETATM    8  C   UNL     1       4.961  28.659  50.816  1.00  0.00     0.037 A 
HETATM    9  C   UNL     1       4.494  27.977  49.696  1.00  0.00     0.068 A 
HETATM   10  C   UNL     1       4.569  26.583  49.667  1.00  0.00     0.037 A 
HETATM   11  C   UNL     1       5.143  25.874  50.728  1.00  0.00     0.016 A 
BRANCH   9  12
HETATM   12  O   UNL     1       3.945  28.541  48.580  1.00  0.00    -0.351 OA
BRANCH  12  13
HETATM   13  C   UNL     1       4.839  29.145  47.642  1.00  0.00     0.179 C 
BRANCH  13  14
HETATM   14  C   UNL     1       4.424  30.609  47.434  1.00  0.00     0.002 C 
HETATM   15  C   UNL     1       5.152  31.533  48.414  1.00  0.00     0.011 C 
HETATM   16  C   UNL     1       2.911  30.760  47.589  1.00  0.00     0.011 C 
ENDBRANCH  13  14
ENDBRANCH  12  13
ENDBRANCH   9  12
ENDBRANCH   1   6
BRANCH   5  17
HETATM   17  C   UNL     1       6.783  27.729  54.723  1.00  0.00     0.125 C 
BRANCH  17  18
HETATM   18  S   UNL     1       6.966  27.768  56.533  1.00  0.00    -0.090 SA
BRANCH  18  19
HETATM   19  C   UNL     1       5.336  27.873  57.053  1.00  0.00     0.131 C 
HETATM   20  N   UNL     1       4.964  28.947  57.700  1.00  0.00    -0.380 N 
HETATM   21  H   UNL     1       5.651  29.677  57.857  1.00  0.00     0.158 HD
HETATM   22  H   UNL     1       4.016  29.100  58.011  1.00  0.00     0.158 HD
BRANCH  19  23
HETATM   23  N   UNL     1       4.494  26.918  56.755  1.00  0.00    -0.380 N 
HETATM   24  H   UNL     1       4.072  26.909  55.831  1.00  0.00     0.158 HD
HETATM   25  H   UNL     1       4.238  26.180  57.395  1.00  0.00     0.158 HD
ENDBRANCH  19  23
ENDBRANCH  18  19
ENDBRANCH  17  18
ENDBRANCH   5  17
BRANCH   3  26
HETATM   26  C   UNL     1       7.565  22.805  54.180  1.00  0.00     0.058 A 
HETATM   27  C   UNL     1       7.592  22.303  55.491  1.00  0.00     0.031 A 
HETATM   28  C   UNL     1       7.972  20.980  55.731  1.00  0.00     0.002 A 
HETATM   29  C   UNL     1       8.324  20.152  54.669  1.00  0.00     0.000 A 
HETATM   30  C   UNL     1       8.292  20.641  53.363  1.00  0.00     0.002 A 
HETATM   31  C   UNL     1       7.913  21.963  53.114  1.00  0.00     0.031 A 
ENDBRANCH   3  26
TORSDOF 9
ENDMDL
MODEL 8
REMARK VINA RESULT:      -7.9      3.202      7.196
REMARK  9 active torsions:
REMARK  status: ('A' for Active; 'I' for Inactive)
REMARK    1  A    between atoms: C_2  and  C_3 
REMARK    2  A    between atoms: C_3  and  O_4 
REMARK    3  A    between atoms: O_4  and  C_5 
REMARK    4  A    between atoms: C_8  and  C_9 
REMARK    5  A    between atoms: N_11  and  C_12 
REMARK    6  A    between atoms: C_19  and  C_20 
REMARK    7  A    between atoms: C_20  and  S_21 
REMARK    8  A    between atoms: S_21  and  C_22 
REMARK    9  A    between atoms: C_22  and  N_23 
ROOT
HETATM    1  C   UNL     1       6.241  26.014  53.520  1.00  0.00     0.096 C 
HETATM    2  N   UNL     1       6.281  24.685  53.366  1.00  0.00    -0.167 NA
HETATM    3  N   UNL     1       7.204  24.225  54.239  1.00  0.00    -0.244 N 
HETATM    4  C   UNL     1       7.610  25.233  55.084  1.00  0.00     0.129 C 
HETATM    5  C   UNL     1       6.990  26.399  54.676  1.00  0.00     0.001 C 
ENDROOT
BRANCH   1   6
HETATM    6  C   UNL     1       5.377  26.825  52.659  1.00  0.00    -0.005 A 
HETATM    7  C   UNL     1       4.322  27.561  53.221  1.00  0.00     0.016 A 
HETATM    8  C   UNL     1       3.530  28.403  52.432  1.00  0.00     0.037 A 
HETATM    9  C   UNL     1       3.782  28.522  51.068  1.00  0.00     0.068 A 
HETATM   10  C   UNL     1       4.796  27.753  50.494  1.00  0.00     0.037 A 
HETATM   11  C   UNL     1       5.583  26.903  51.279  1.00  0.00     0.016 A 
BRANCH   9  12
HETATM   12  O   UNL     1       3.119  29.334  50.194  1.00  0.00    -0.351 OA
BRANCH  12  13
HETATM   13  C   UNL     1       1.839  28.896  49.731  1.00  0.00     0.179 C 
BRANCH  13  14
HETATM   14  C   UNL     1       1.946  28.535  48.242  1.00  0.00     0.002 C 
HETATM   15  C   UNL     1       0.814  29.177  47.437  1.00  0.00     0.011 C 
HETATM   16  C   UNL     1       1.931  27.018  48.061  1.00  0.00     0.011 C 
ENDBRANCH  13  14
ENDBRANCH  12  13
ENDBRANCH   9  12
ENDBRANCH   1   6
BRANCH   5  17
HETATM   17  C   UNL     1       7.095  27.725  55.349  1.00  0.00     0.125 C 
BRANCH  17  18
HETATM   18  S   UNL     1       6.721  27.654  57.128  1.00  0.00    -0.090 SA
BRANCH  18  19
HETATM   19  C   UNL     1       7.947  28.652  57.789  1.00  0.00     0.131 C 
HETATM   20  N   UNL     1       9.117  28.661  57.204  1.00  0.00    -0.380 N 
HETATM   21  H   UNL     1       9.246  28.086  56.379  1.00  0.00     0.158 HD
HETATM   22  H   UNL     1       9.881  29.245  57.512  1.00  0.00     0.158 HD
BRANCH  19  23
HETATM   23  N   UNL     1       7.683  29.413  58.819  1.00  0.00    -0.380 N 
HETATM   24  H   UNL     1       8.456  29.809  59.346  1.00  0.00     0.158 HD
HETATM   25  H   UNL     1       6.745  29.634  59.125  1.00  0.00     0.158 HD
ENDBRANCH  19  23
ENDBRANCH  18  19
ENDBRANCH  17  18
ENDBRANCH   5  17
BRANCH   3  26
HETATM   26  C   UNL     1       7.564  22.850  54.269  1.00  0.00     0.058 A 
HETATM   27  C   UNL     1       7.632  22.183  55.503  1.00  0.00     0.031 A 
HETATM   28  C   UNL     1       7.999  20.837  55.557  1.00  0.00     0.002 A 
HETATM   29  C   UNL     1       8.297  20.147  54.385  1.00  0.00     0.000 A 
HETATM   30  C   UNL     1       8.225  20.800  53.155  1.00  0.00     0.002 A 
HETATM   31  C   UNL     1       7.858  22.148  53.091  1.00  0.00     0.031 A 
ENDBRANCH   3  26
TORSDOF 9
ENDMDL
MODEL 9
REMARK VINA RESULT:      -7.8      1.974      2.509
REMARK  9 active torsions:
REMARK  status: ('A' for Active; 'I' for Inactive)
REMARK    1  A    between atoms: C_2  and  C_3 
REMARK    2  A    between atoms: C_3  and  O_4 
REMARK    3  A    between atoms: O_4  and  C_5 
REMARK    4  A    between atoms: C_8  and  C_9 
REMARK    5  A    between atoms: N_11  and  C_12 
REMARK    6  A    between atoms: C_19  and  C_20 
REMARK    7  A    between atoms: C_20  and  S_21 
REMARK    8  A    between atoms: S_21  and  C_22 
REMARK    9  A    between atoms: C_22  and  N_23 
ROOT
HETATM    1  C   UNL     1       6.410  27.704  56.053  1.00  0.00     0.096 C 
HETATM    2  N   UNL     1       7.249  26.681  55.850  1.00  0.00    -0.167 NA
HETATM    3  N   UNL     1       6.600  25.806  55.050  1.00  0.00    -0.244 N 
HETATM    4  C   UNL     1       5.427  26.358  54.587  1.00  0.00     0.129 C 
HETATM    5  C   UNL     1       5.280  27.596  55.185  1.00  0.00     0.001 C 
ENDROOT
BRANCH   1   6
HETATM    6  C   UNL     1       6.795  28.801  56.945  1.00  0.00    -0.005 A 
HETATM    7  C   UNL     1       7.988  28.720  57.679  1.00  0.00     0.016 A 
HETATM    8  C   UNL     1       8.417  29.786  58.479  1.00  0.00     0.037 A 
HETATM    9  C   UNL     1       7.657  30.950  58.555  1.00  0.00     0.068 A 
HETATM   10  C   UNL     1       6.444  31.017  57.867  1.00  0.00     0.037 A 
HETATM   11  C   UNL     1       6.008  29.949  57.075  1.00  0.00     0.016 A 
BRANCH   9  12
HETATM   12  O   UNL     1       7.976  32.077  59.257  1.00  0.00    -0.351 OA
BRANCH  12  13
HETATM   13  C   UNL     1       8.612  31.902  60.526  1.00  0.00     0.179 C 
BRANCH  13  14
HETATM   14  C   UNL     1       7.542  31.948  61.627  1.00  0.00     0.002 C 
HETATM   15  C   UNL     1       6.477  33.002  61.316  1.00  0.00     0.011 C 
HETATM   16  C   UNL     1       8.187  32.230  62.983  1.00  0.00     0.011 C 
ENDBRANCH  13  14
ENDBRANCH  12  13
ENDBRANCH   9  12
ENDBRANCH   1   6
BRANCH   5  17
HETATM   17  C   UNL     1       4.181  28.567  54.919  1.00  0.00     0.125 C 
BRANCH  17  18
HETATM   18  S   UNL     1       3.624  28.559  53.187  1.00  0.00    -0.090 SA
BRANCH  18  19
HETATM   19  C   UNL     1       4.710  29.666  52.458  1.00  0.00     0.131 C 
HETATM   20  N   UNL     1       4.489  30.945  52.622  1.00  0.00    -0.380 N 
HETATM   21  H   UNL     1       3.692  31.227  53.182  1.00  0.00     0.158 HD
HETATM   22  H   UNL     1       5.099  31.659  52.253  1.00  0.00     0.158 HD
BRANCH  19  23
HETATM   23  N   UNL     1       5.751  29.222  51.804  1.00  0.00    -0.380 N 
HETATM   24  H   UNL     1       5.602  28.678  50.959  1.00  0.00     0.158 HD
HETATM   25  H   UNL     1       6.705  29.389  52.092  1.00  0.00     0.158 HD
ENDBRANCH  19  23
ENDBRANCH  18  19
ENDBRANCH  17  18
ENDBRANCH   5  17
BRANCH   3  26
HETATM   26  C   UNL     1       7.179  24.552  54.713  1.00  0.00     0.058 A 
HETATM   27  C   UNL     1       7.511  24.286  53.375  1.00  0.00     0.031 A 
HETATM   28  C   UNL     1       8.067  23.055  53.019  1.00  0.00     0.002 A 
HETATM   29  C   UNL     1       8.298  22.086  53.991  1.00  0.00     0.000 A 
HETATM   30  C   UNL     1       7.978  22.345  55.323  1.00  0.00     0.002 A 
HETATM   31  C   UNL     1       7.421  23.574  55.689  1.00  0.00     0.031 A 
ENDBRANCH   3  26
TORSDOF 9
ENDMDL
MODEL 10
REMARK VINA RESULT:      -7.5      3.105      8.353
REMARK  9 active torsions:
REMARK  status: ('A' for Active; 'I' for Inactive)
REMARK    1  A    between atoms: C_2  and  C_3 
REMARK    2  A    between atoms: C_3  and  O_4 
REMARK    3  A    between atoms: O_4  and  C_5 
REMARK    4  A    between atoms: C_8  and  C_9 
REMARK    5  A    between atoms: N_11  and  C_12 
REMARK    6  A    between atoms: C_19  and  C_20 
REMARK    7  A    between atoms: C_20  and  S_21 
REMARK    8  A    between atoms: S_21  and  C_22 
REMARK    9  A    between atoms: C_22  and  N_23 
ROOT
HETATM    1  C   UNL     1       6.605  27.072  54.419  1.00  0.00     0.096 C 
HETATM    2  N   UNL     1       7.226  28.156  54.899  1.00  0.00    -0.167 NA
HETATM    3  N   UNL     1       7.754  27.799  56.090  1.00  0.00    -0.244 N 
HETATM    4  C   UNL     1       7.639  26.441  56.279  1.00  0.00     0.129 C 
HETATM    5  C   UNL     1       6.931  25.926  55.210  1.00  0.00     0.001 C 
ENDROOT
BRANCH   1   6
HETATM    6  C   UNL     1       5.865  27.150  53.157  1.00  0.00    -0.005 A 
HETATM    7  C   UNL     1       4.899  28.152  52.974  1.00  0.00     0.016 A 
HETATM    8  C   UNL     1       4.233  28.295  51.751  1.00  0.00     0.037 A 
HETATM    9  C   UNL     1       4.523  27.438  50.693  1.00  0.00     0.068 A 
HETATM   10  C   UNL     1       5.446  26.408  50.886  1.00  0.00     0.037 A 
HETATM   11  C   UNL     1       6.106  26.256  52.110  1.00  0.00     0.016 A 
BRANCH   9  12
HETATM   12  O   UNL     1       3.984  27.492  49.440  1.00  0.00    -0.351 OA
BRANCH  12  13
HETATM   13  C   UNL     1       4.574  26.664  48.435  1.00  0.00     0.179 C 
BRANCH  13  14
HETATM   14  C   UNL     1       3.467  26.151  47.502  1.00  0.00     0.002 C 
HETATM   15  C   UNL     1       2.294  27.133  47.448  1.00  0.00     0.011 C 
HETATM   16  C   UNL     1       2.984  24.775  47.958  1.00  0.00     0.011 C 
ENDBRANCH  13  14
ENDBRANCH  12  13
ENDBRANCH   9  12
ENDBRANCH   1   6
BRANCH   5  17
HETATM   17  C   UNL     1       6.631  24.485  54.974  1.00  0.00     0.125 C 
BRANCH  17  18
HETATM   18  S   UNL     1       8.036  23.393  55.351  1.00  0.00    -0.090 SA
BRANCH  18  19
HETATM   19  C   UNL     1       8.376  22.707  53.818  1.00  0.00     0.131 C 
HETATM   20  N   UNL     1       9.049  21.587  53.779  1.00  0.00    -0.380 N 
HETATM   21  H   UNL     1       9.333  21.165  54.657  1.00  0.00     0.158 HD
HETATM   22  H   UNL     1       9.262  21.103  52.919  1.00  0.00     0.158 HD
BRANCH  19  23
HETATM   23  N   UNL     1       7.920  23.279  52.734  1.00  0.00    -0.380 N 
HETATM   24  H   UNL     1       8.568  23.791  52.142  1.00  0.00     0.158 HD
HETATM   25  H   UNL     1       6.953  23.241  52.446  1.00  0.00     0.158 HD
ENDBRANCH  19  23
ENDBRANCH  18  19
ENDBRANCH  17  18
ENDBRANCH   5  17
BRANCH   3  26
HETATM   26  C   UNL     1       8.408  28.753  56.918  1.00  0.00     0.058 A 
HETATM   27  C   UNL     1       9.639  29.290  56.509  1.00  0.00     0.031 A 
HETATM   28  C   UNL     1      10.306  30.217  57.313  1.00  0.00     0.002 A 
HETATM   29  C   UNL     1       9.750  30.616  58.525  1.00  0.00     0.000 A 
HETATM   30  C   UNL     1       8.524  30.094  58.936  1.00  0.00     0.002 A 
HETATM   31  C   UNL     1       7.850  29.165  58.137  1.00  0.00     0.031 A 
ENDBRANCH   3  26
TORSDOF 9
ENDMDL
