MODEL 1
REMARK VINA RESULT:     -11.0      0.000      0.000
REMARK  7 active torsions:
REMARK  status: ('A' for Active; 'I' for Inactive)
REMARK    1  A    between atoms: C_2  and  O_3 
REMARK    2  A    between atoms: O_3  and  C_4 
REMARK    3  A    between atoms: C_4  and  C_5 
REMARK    4  A    between atoms: C_8  and  N_9 
REMARK       I    between atoms: N_9  and  C_10 
REMARK    5  A    between atoms: C_10  and  C_11 
REMARK    6  A    between atoms: C_11  and  N_12 
REMARK    7  A    between atoms: C_18  and  C_19 
ROOT
HETATM    1  N   UNL     1       6.598  29.833  56.984  1.00  0.00    -0.063 N 
HETATM    2  H   UNL     1       5.975  30.396  56.388  1.00  0.00     0.280 HD
HETATM    3  C   UNL     1       7.830  29.554  56.135  1.00  0.00     0.240 C 
HETATM    4  C   UNL     1       7.673  28.359  55.218  1.00  0.00     0.083 C 
HETATM    5  C   UNL     1       7.107  27.161  55.967  1.00  0.00     0.131 A 
HETATM    6  N   UNL     1       6.978  26.022  55.026  1.00  0.00    -0.251 NA
HETATM    7  C   UNL     1       7.645  25.023  55.545  1.00  0.00     0.132 A 
HETATM    8  C   UNL     1       8.300  25.407  56.855  1.00  0.00     0.272 A 
HETATM    9  O   UNL     1       8.962  24.721  57.594  1.00  0.00    -0.266 OA
HETATM   10  N   UNL     1       7.961  26.711  57.019  1.00  0.00    -0.327 N 
HETATM   11  C   UNL     1       5.710  27.523  56.455  1.00  0.00     0.083 C 
HETATM   12  C   UNL     1       5.764  28.654  57.456  1.00  0.00     0.240 C 
HETATM   13  H   UNL     1       8.279  27.224  57.842  1.00  0.00     0.165 HD
ENDROOT
BRANCH   1  14
HETATM   14  C   UNL     1       6.968  30.733  58.210  1.00  0.00     0.337 C 
BRANCH  14  15
HETATM   15  C   UNL     1       8.003  30.098  59.157  1.00  0.00     0.248 C 
HETATM   16  N   UNL     1       8.217  30.533  60.422  1.00  0.00    -0.326 N 
HETATM   17  H   UNL     1       8.902  29.939  60.888  1.00  0.00     0.169 HD
HETATM   18  O   UNL     1       8.658  29.113  58.786  1.00  0.00    -0.271 OA
BRANCH  16  19
HETATM   19  C   UNL     1       7.682  31.552  61.227  1.00  0.00     0.034 A 
HETATM   20  C   UNL     1       6.649  32.418  60.876  1.00  0.00     0.030 A 
HETATM   21  C   UNL     1       6.185  33.372  61.797  1.00  0.00     0.020 A 
HETATM   22  C   UNL     1       6.750  33.477  63.075  1.00  0.00     0.039 A 
HETATM   23  C   UNL     1       7.806  32.631  63.416  1.00  0.00     0.020 A 
HETATM   24  C   UNL     1       8.266  31.684  62.497  1.00  0.00     0.030 A 
BRANCH  22  25
HETATM   25  C   UNL     1       6.202  34.490  64.018  1.00  0.00     0.293 C 
HETATM   26  O   UNL     1       5.914  35.625  63.679  1.00  0.00    -0.259 OA
BRANCH  25  27
HETATM   27  O   UNL     1       6.058  33.950  65.250  1.00  0.00    -0.318 OA
BRANCH  27  28
HETATM   28  C   UNL     1       4.710  33.799  65.724  1.00  0.00     0.174 C 
HETATM   29  C   UNL     1       4.649  34.118  67.205  1.00  0.00     0.034 C 
ENDBRANCH  27  28
ENDBRANCH  25  27
ENDBRANCH  22  25
ENDBRANCH  16  19
ENDBRANCH  14  15
ENDBRANCH   1  14
BRANCH   7  30
HETATM   30  C   UNL     1       7.738  23.685  54.924  1.00  0.00    -0.001 A 
HETATM   31  C   UNL     1       7.830  22.511  55.678  1.00  0.00     0.037 A 
HETATM   32  C   UNL     1       7.903  21.273  55.033  1.00  0.00     0.035 A 
HETATM   33 CL   UNL     1       8.012  19.833  55.968  1.00  0.00    -0.084 Cl
HETATM   34  C   UNL     1       7.889  21.193  53.643  1.00  0.00     0.024 A 
HETATM   35  C   UNL     1       7.802  22.359  52.886  1.00  0.00     0.003 A 
HETATM   36  C   UNL     1       7.727  23.600  53.522  1.00  0.00     0.014 A 
ENDBRANCH   7  30
TORSDOF 7
ENDMDL
MODEL 2
REMARK VINA RESULT:     -11.0      3.698     11.090
REMARK  7 active torsions:
REMARK  status: ('A' for Active; 'I' for Inactive)
REMARK    1  A    between atoms: C_2  and  O_3 
REMARK    2  A    between atoms: O_3  and  C_4 
REMARK    3  A    between atoms: C_4  and  C_5 
REMARK    4  A    between atoms: C_8  and  N_9 
REMARK       I    between atoms: N_9  and  C_10 
REMARK    5  A    between atoms: C_10  and  C_11 
REMARK    6  A    between atoms: C_11  and  N_12 
REMARK    7  A    between atoms: C_18  and  C_19 
ROOT
HETATM    1  N   UNL     1       8.308  28.198  55.580  1.00  0.00    -0.063 N 
HETATM    2  H   UNL     1       8.854  27.332  55.688  1.00  0.00     0.280 HD
HETATM    3  C   UNL     1       9.273  29.330  55.901  1.00  0.00     0.240 C 
HETATM    4  C   UNL     1       9.388  29.622  57.382  1.00  0.00     0.083 C 
HETATM    5  C   UNL     1       8.016  29.725  58.033  1.00  0.00     0.131 A 
HETATM    6  N   UNL     1       8.187  30.014  59.476  1.00  0.00    -0.251 NA
HETATM    7  C   UNL     1       7.508  31.104  59.728  1.00  0.00     0.132 A 
HETATM    8  C   UNL     1       6.849  31.655  58.481  1.00  0.00     0.272 A 
HETATM    9  O   UNL     1       6.141  32.625  58.371  1.00  0.00    -0.266 OA
HETATM   10  N   UNL     1       7.231  30.794  57.504  1.00  0.00    -0.327 N 
HETATM   11  C   UNL     1       7.329  28.371  57.906  1.00  0.00     0.083 C 
HETATM   12  C   UNL     1       7.080  28.025  56.457  1.00  0.00     0.240 C 
HETATM   13  H   UNL     1       6.917  30.937  56.543  1.00  0.00     0.165 HD
ENDROOT
BRANCH   1  14
HETATM   14  C   UNL     1       7.872  28.258  54.077  1.00  0.00     0.337 C 
BRANCH  14  15
HETATM   15  C   UNL     1       6.395  27.891  53.844  1.00  0.00     0.248 C 
HETATM   16  N   UNL     1       5.968  26.621  53.640  1.00  0.00    -0.326 N 
HETATM   17  H   UNL     1       4.953  26.598  53.564  1.00  0.00     0.169 HD
HETATM   18  O   UNL     1       5.525  28.773  53.881  1.00  0.00    -0.271 OA
BRANCH  16  19
HETATM   19  C   UNL     1       6.590  25.364  53.569  1.00  0.00     0.034 A 
HETATM   20  C   UNL     1       7.188  24.806  52.441  1.00  0.00     0.030 A 
HETATM   21  C   UNL     1       7.809  23.548  52.521  1.00  0.00     0.020 A 
HETATM   22  C   UNL     1       7.835  22.831  53.723  1.00  0.00     0.039 A 
HETATM   23  C   UNL     1       7.209  23.374  54.846  1.00  0.00     0.020 A 
HETATM   24  C   UNL     1       6.591  24.625  54.763  1.00  0.00     0.030 A 
BRANCH  22  25
HETATM   25  C   UNL     1       8.528  21.515  53.755  1.00  0.00     0.293 C 
HETATM   26  O   UNL     1       8.390  20.670  52.886  1.00  0.00    -0.259 OA
BRANCH  25  27
HETATM   27  O   UNL     1       9.324  21.432  54.847  1.00  0.00    -0.318 OA
BRANCH  27  28
HETATM   28  C   UNL     1       9.046  20.354  55.755  1.00  0.00     0.174 C 
HETATM   29  C   UNL     1       8.454  20.905  57.038  1.00  0.00     0.034 C 
ENDBRANCH  27  28
ENDBRANCH  25  27
ENDBRANCH  22  25
ENDBRANCH  16  19
ENDBRANCH  14  15
ENDBRANCH   1  14
BRANCH   7  30
HETATM   30  C   UNL     1       7.398  31.712  61.071  1.00  0.00    -0.001 A 
HETATM   31  C   UNL     1       6.179  32.144  61.603  1.00  0.00     0.037 A 
HETATM   32  C   UNL     1       6.136  32.701  62.884  1.00  0.00     0.035 A 
HETATM   33 CL   UNL     1       4.632  33.226  63.534  1.00  0.00    -0.084 Cl
HETATM   34  C   UNL     1       7.297  32.836  63.640  1.00  0.00     0.024 A 
HETATM   35  C   UNL     1       8.516  32.413  63.114  1.00  0.00     0.003 A 
HETATM   36  C   UNL     1       8.567  31.854  61.835  1.00  0.00     0.014 A 
ENDBRANCH   7  30
TORSDOF 7
ENDMDL
MODEL 3
REMARK VINA RESULT:     -10.3      1.717      2.299
REMARK  7 active torsions:
REMARK  status: ('A' for Active; 'I' for Inactive)
REMARK    1  A    between atoms: C_2  and  O_3 
REMARK    2  A    between atoms: O_3  and  C_4 
REMARK    3  A    between atoms: C_4  and  C_5 
REMARK    4  A    between atoms: C_8  and  N_9 
REMARK       I    between atoms: N_9  and  C_10 
REMARK    5  A    between atoms: C_10  and  C_11 
REMARK    6  A    between atoms: C_11  and  N_12 
REMARK    7  A    between atoms: C_18  and  C_19 
ROOT
HETATM    1  N   UNL     1       6.243  29.241  56.539  1.00  0.00    -0.063 N 
HETATM    2  H   UNL     1       5.552  29.589  55.860  1.00  0.00     0.280 HD
HETATM    3  C   UNL     1       7.482  28.905  55.721  1.00  0.00     0.240 C 
HETATM    4  C   UNL     1       7.438  27.524  55.100  1.00  0.00     0.083 C 
HETATM    5  C   UNL     1       7.020  26.474  56.119  1.00  0.00     0.131 A 
HETATM    6  N   UNL     1       6.998  25.146  55.460  1.00  0.00    -0.251 NA
HETATM    7  C   UNL     1       7.780  24.363  56.159  1.00  0.00     0.132 A 
HETATM    8  C   UNL     1       8.413  25.096  57.322  1.00  0.00     0.272 A 
HETATM    9  O   UNL     1       9.160  24.665  58.165  1.00  0.00    -0.266 OA
HETATM   10  N   UNL     1       7.938  26.362  57.207  1.00  0.00    -0.327 N 
HETATM   11  C   UNL     1       5.602  26.793  56.573  1.00  0.00     0.083 C 
HETATM   12  C   UNL     1       5.552  28.120  57.296  1.00  0.00     0.240 C 
HETATM   13  H   UNL     1       8.213  27.077  57.881  1.00  0.00     0.165 HD
ENDROOT
BRANCH   1  14
HETATM   14  C   UNL     1       6.537  30.427  57.517  1.00  0.00     0.337 C 
BRANCH  14  15
HETATM   15  C   UNL     1       5.566  31.611  57.366  1.00  0.00     0.248 C 
HETATM   16  N   UNL     1       5.221  32.426  58.394  1.00  0.00    -0.326 N 
HETATM   17  H   UNL     1       4.613  33.173  58.062  1.00  0.00     0.169 HD
HETATM   18  O   UNL     1       5.091  31.885  56.254  1.00  0.00    -0.271 OA
BRANCH  16  19
HETATM   19  C   UNL     1       5.549  32.498  59.757  1.00  0.00     0.034 A 
HETATM   20  C   UNL     1       6.831  32.621  60.289  1.00  0.00     0.030 A 
HETATM   21  C   UNL     1       7.011  32.720  61.679  1.00  0.00     0.020 A 
HETATM   22  C   UNL     1       5.917  32.691  62.553  1.00  0.00     0.039 A 
HETATM   23  C   UNL     1       4.636  32.535  62.024  1.00  0.00     0.020 A 
HETATM   24  C   UNL     1       4.459  32.436  60.641  1.00  0.00     0.030 A 
BRANCH  22  25
HETATM   25  C   UNL     1       6.167  32.825  64.014  1.00  0.00     0.293 C 
HETATM   26  O   UNL     1       7.286  32.839  64.498  1.00  0.00    -0.259 OA
BRANCH  25  27
HETATM   27  O   UNL     1       4.995  32.953  64.678  1.00  0.00    -0.318 OA
BRANCH  27  28
HETATM   28  C   UNL     1       4.840  34.140  65.471  1.00  0.00     0.174 C 
HETATM   29  C   UNL     1       3.389  34.579  65.461  1.00  0.00     0.034 C 
ENDBRANCH  27  28
ENDBRANCH  25  27
ENDBRANCH  22  25
ENDBRANCH  16  19
ENDBRANCH  14  15
ENDBRANCH   1  14
BRANCH   7  30
HETATM   30  C   UNL     1       8.005  22.936  55.846  1.00  0.00    -0.001 A 
HETATM   31  C   UNL     1       8.026  22.447  54.536  1.00  0.00     0.037 A 
HETATM   32  C   UNL     1       8.256  21.088  54.304  1.00  0.00     0.035 A 
HETATM   33 CL   UNL     1       8.284  20.495  52.689  1.00  0.00    -0.084 Cl
HETATM   34  C   UNL     1       8.463  20.209  55.364  1.00  0.00     0.024 A 
HETATM   35  C   UNL     1       8.438  20.688  56.672  1.00  0.00     0.003 A 
HETATM   36  C   UNL     1       8.211  22.045  56.913  1.00  0.00     0.014 A 
ENDBRANCH   7  30
TORSDOF 7
ENDMDL
MODEL 4
REMARK VINA RESULT:     -10.1      2.207      2.794
REMARK  7 active torsions:
REMARK  status: ('A' for Active; 'I' for Inactive)
REMARK    1  A    between atoms: C_2  and  O_3 
REMARK    2  A    between atoms: O_3  and  C_4 
REMARK    3  A    between atoms: C_4  and  C_5 
REMARK    4  A    between atoms: C_8  and  N_9 
REMARK       I    between atoms: N_9  and  C_10 
REMARK    5  A    between atoms: C_10  and  C_11 
REMARK    6  A    between atoms: C_11  and  N_12 
REMARK    7  A    between atoms: C_18  and  C_19 
ROOT
HETATM    1  N   UNL     1       5.605  30.176  55.472  1.00  0.00    -0.063 N 
HETATM    2  H   UNL     1       6.028  30.837  54.806  1.00  0.00     0.280 HD
HETATM    3  C   UNL     1       6.764  29.635  56.298  1.00  0.00     0.240 C 
HETATM    4  C   UNL     1       7.481  28.473  55.643  1.00  0.00     0.083 C 
HETATM    5  C   UNL     1       6.494  27.432  55.136  1.00  0.00     0.131 A 
HETATM    6  N   UNL     1       7.247  26.319  54.510  1.00  0.00    -0.251 NA
HETATM    7  C   UNL     1       6.873  25.220  55.115  1.00  0.00     0.132 A 
HETATM    8  C   UNL     1       5.866  25.497  56.210  1.00  0.00     0.272 A 
HETATM    9  O   UNL     1       5.309  24.712  56.936  1.00  0.00    -0.266 OA
HETATM   10  N   UNL     1       5.720  26.846  56.184  1.00  0.00    -0.327 N 
HETATM   11  C   UNL     1       5.634  28.078  54.058  1.00  0.00     0.083 C 
HETATM   12  C   UNL     1       4.800  29.200  54.632  1.00  0.00     0.240 C 
HETATM   13  H   UNL     1       5.082  27.306  56.835  1.00  0.00     0.165 HD
ENDROOT
BRANCH   1  14
HETATM   14  C   UNL     1       4.636  31.015  56.371  1.00  0.00     0.337 C 
BRANCH  14  15
HETATM   15  C   UNL     1       4.904  32.530  56.328  1.00  0.00     0.248 C 
HETATM   16  N   UNL     1       5.223  33.259  57.426  1.00  0.00    -0.326 N 
HETATM   17  H   UNL     1       5.412  34.225  57.164  1.00  0.00     0.169 HD
HETATM   18  O   UNL     1       4.877  33.133  55.246  1.00  0.00    -0.271 OA
BRANCH  16  19
HETATM   19  C   UNL     1       5.398  32.976  58.790  1.00  0.00     0.034 A 
HETATM   20  C   UNL     1       6.482  32.311  59.359  1.00  0.00     0.030 A 
HETATM   21  C   UNL     1       6.546  32.128  60.750  1.00  0.00     0.020 A 
HETATM   22  C   UNL     1       5.528  32.601  61.588  1.00  0.00     0.039 A 
HETATM   23  C   UNL     1       4.427  33.239  61.017  1.00  0.00     0.020 A 
HETATM   24  C   UNL     1       4.365  33.419  59.633  1.00  0.00     0.030 A 
BRANCH  22  25
HETATM   25  C   UNL     1       5.661  32.401  63.057  1.00  0.00     0.293 C 
HETATM   26  O   UNL     1       4.835  31.798  63.723  1.00  0.00    -0.259 OA
BRANCH  25  27
HETATM   27  O   UNL     1       6.816  32.950  63.501  1.00  0.00    -0.318 OA
BRANCH  27  28
HETATM   28  C   UNL     1       6.687  34.120  64.323  1.00  0.00     0.174 C 
HETATM   29  C   UNL     1       6.873  33.746  65.781  1.00  0.00     0.034 C 
ENDBRANCH  27  28
ENDBRANCH  25  27
ENDBRANCH  22  25
ENDBRANCH  16  19
ENDBRANCH  14  15
ENDBRANCH   1  14
BRANCH   7  30
HETATM   30  C   UNL     1       7.374  23.875  54.760  1.00  0.00    -0.001 A 
HETATM   31  C   UNL     1       7.803  22.955  55.722  1.00  0.00     0.037 A 
HETATM   32  C   UNL     1       8.256  21.693  55.325  1.00  0.00     0.035 A 
HETATM   33 CL   UNL     1       8.778  20.565  56.515  1.00  0.00    -0.084 Cl
HETATM   34  C   UNL     1       8.289  21.339  53.979  1.00  0.00     0.024 A 
HETATM   35  C   UNL     1       7.867  22.253  53.015  1.00  0.00     0.003 A 
HETATM   36  C   UNL     1       7.412  23.515  53.404  1.00  0.00     0.014 A 
ENDBRANCH   7  30
TORSDOF 7
ENDMDL
MODEL 5
REMARK VINA RESULT:      -9.9      1.580      2.022
REMARK  7 active torsions:
REMARK  status: ('A' for Active; 'I' for Inactive)
REMARK    1  A    between atoms: C_2  and  O_3 
REMARK    2  A    between atoms: O_3  and  C_4 
REMARK    3  A    between atoms: C_4  and  C_5 
REMARK    4  A    between atoms: C_8  and  N_9 
REMARK       I    between atoms: N_9  and  C_10 
REMARK    5  A    between atoms: C_10  and  C_11 
REMARK    6  A    between atoms: C_11  and  N_12 
REMARK    7  A    between atoms: C_18  and  C_19 
ROOT
HETATM    1  N   UNL     1       6.593  29.015  58.048  1.00  0.00    -0.063 N 
HETATM    2  H   UNL     1       6.302  28.904  59.029  1.00  0.00     0.280 HD
HETATM    3  C   UNL     1       5.450  28.447  57.219  1.00  0.00     0.240 C 
HETATM    4  C   UNL     1       5.522  26.945  57.041  1.00  0.00     0.083 C 
HETATM    5  C   UNL     1       6.917  26.505  56.623  1.00  0.00     0.131 A 
HETATM    6  N   UNL     1       6.929  25.031  56.461  1.00  0.00    -0.251 NA
HETATM    7  C   UNL     1       7.354  24.786  55.247  1.00  0.00     0.132 A 
HETATM    8  C   UNL     1       7.635  26.063  54.484  1.00  0.00     0.272 A 
HETATM    9  O   UNL     1       8.055  26.190  53.360  1.00  0.00    -0.266 OA
HETATM   10  N   UNL     1       7.314  27.046  55.363  1.00  0.00    -0.327 N 
HETATM   11  C   UNL     1       7.882  26.858  57.747  1.00  0.00     0.083 C 
HETATM   12  C   UNL     1       7.957  28.355  57.944  1.00  0.00     0.240 C 
HETATM   13  H   UNL     1       7.415  28.026  55.096  1.00  0.00     0.165 HD
ENDROOT
BRANCH   1  14
HETATM   14  C   UNL     1       6.738  30.554  57.801  1.00  0.00     0.337 C 
BRANCH  14  15
HETATM   15  C   UNL     1       8.039  31.153  58.364  1.00  0.00     0.248 C 
HETATM   16  N   UNL     1       8.117  31.754  59.576  1.00  0.00    -0.326 N 
HETATM   17  H   UNL     1       9.079  32.028  59.773  1.00  0.00     0.169 HD
HETATM   18  O   UNL     1       9.094  31.059  57.719  1.00  0.00    -0.271 OA
BRANCH  16  19
HETATM   19  C   UNL     1       7.208  32.025  60.611  1.00  0.00     0.034 A 
HETATM   20  C   UNL     1       7.344  31.648  61.945  1.00  0.00     0.030 A 
HETATM   21  C   UNL     1       6.370  32.020  62.887  1.00  0.00     0.020 A 
HETATM   22  C   UNL     1       5.248  32.768  62.508  1.00  0.00     0.039 A 
HETATM   23  C   UNL     1       5.094  33.119  61.167  1.00  0.00     0.020 A 
HETATM   24  C   UNL     1       6.064  32.747  60.232  1.00  0.00     0.030 A 
BRANCH  22  25
HETATM   25  C   UNL     1       4.262  33.155  63.553  1.00  0.00     0.293 C 
HETATM   26  O   UNL     1       3.182  33.660  63.293  1.00  0.00    -0.259 OA
BRANCH  25  27
HETATM   27  O   UNL     1       4.733  32.837  64.781  1.00  0.00    -0.318 OA
BRANCH  27  28
HETATM   28  C   UNL     1       4.958  33.936  65.678  1.00  0.00     0.174 C 
HETATM   29  C   UNL     1       6.438  34.047  65.991  1.00  0.00     0.034 C 
ENDBRANCH  27  28
ENDBRANCH  25  27
ENDBRANCH  22  25
ENDBRANCH  16  19
ENDBRANCH  14  15
ENDBRANCH   1  14
BRANCH   7  30
HETATM   30  C   UNL     1       7.539  23.426  54.700  1.00  0.00    -0.001 A 
HETATM   31  C   UNL     1       7.723  22.305  55.516  1.00  0.00     0.037 A 
HETATM   32  C   UNL     1       7.881  21.042  54.940  1.00  0.00     0.035 A 
HETATM   33 CL   UNL     1       8.103  19.668  55.951  1.00  0.00    -0.084 Cl
HETATM   34  C   UNL     1       7.862  20.883  53.557  1.00  0.00     0.024 A 
HETATM   35  C   UNL     1       7.684  21.996  52.737  1.00  0.00     0.003 A 
HETATM   36  C   UNL     1       7.524  23.262  53.306  1.00  0.00     0.014 A 
ENDBRANCH   7  30
TORSDOF 7
ENDMDL
MODEL 6
REMARK VINA RESULT:      -9.9      2.604      3.470
REMARK  7 active torsions:
REMARK  status: ('A' for Active; 'I' for Inactive)
REMARK    1  A    between atoms: C_2  and  O_3 
REMARK    2  A    between atoms: O_3  and  C_4 
REMARK    3  A    between atoms: C_4  and  C_5 
REMARK    4  A    between atoms: C_8  and  N_9 
REMARK       I    between atoms: N_9  and  C_10 
REMARK    5  A    between atoms: C_10  and  C_11 
REMARK    6  A    between atoms: C_11  and  N_12 
REMARK    7  A    between atoms: C_18  and  C_19 
ROOT
HETATM    1  N   UNL     1       4.782  30.926  57.302  1.00  0.00    -0.063 N 
HETATM    2  H   UNL     1       4.059  30.754  58.014  1.00  0.00     0.280 HD
HETATM    3  C   UNL     1       4.191  30.423  55.993  1.00  0.00     0.240 C 
HETATM    4  C   UNL     1       4.376  28.935  55.780  1.00  0.00     0.083 C 
HETATM    5  C   UNL     1       5.811  28.512  56.057  1.00  0.00     0.131 A 
HETATM    6  N   UNL     1       5.936  27.053  55.830  1.00  0.00    -0.251 NA
HETATM    7  C   UNL     1       6.896  26.884  54.956  1.00  0.00     0.132 A 
HETATM    8  C   UNL     1       7.478  28.206  54.502  1.00  0.00     0.272 A 
HETATM    9  O   UNL     1       8.381  28.403  53.728  1.00  0.00    -0.266 OA
HETATM   10  N   UNL     1       6.750  29.132  55.177  1.00  0.00    -0.327 N 
HETATM   11  C   UNL     1       6.110  28.784  57.525  1.00  0.00     0.083 C 
HETATM   12  C   UNL     1       6.045  30.263  57.826  1.00  0.00     0.240 C 
HETATM   13  H   UNL     1       6.943  30.126  55.052  1.00  0.00     0.165 HD
ENDROOT
BRANCH   1  14
HETATM   14  C   UNL     1       4.990  32.477  57.250  1.00  0.00     0.337 C 
BRANCH  14  15
HETATM   15  C   UNL     1       3.689  33.283  57.416  1.00  0.00     0.248 C 
HETATM   16  N   UNL     1       3.284  33.805  58.599  1.00  0.00    -0.326 N 
HETATM   17  H   UNL     1       2.429  34.345  58.472  1.00  0.00     0.169 HD
HETATM   18  O   UNL     1       2.978  33.519  56.428  1.00  0.00    -0.271 OA
BRANCH  16  19
HETATM   19  C   UNL     1       3.793  33.814  59.908  1.00  0.00     0.034 A 
HETATM   20  C   UNL     1       4.443  34.878  60.530  1.00  0.00     0.030 A 
HETATM   21  C   UNL     1       4.869  34.760  61.864  1.00  0.00     0.020 A 
HETATM   22  C   UNL     1       4.659  33.581  62.588  1.00  0.00     0.039 A 
HETATM   23  C   UNL     1       4.037  32.503  61.956  1.00  0.00     0.020 A 
HETATM   24  C   UNL     1       3.614  32.622  60.630  1.00  0.00     0.030 A 
BRANCH  22  25
HETATM   25  C   UNL     1       5.110  33.522  64.005  1.00  0.00     0.293 C 
HETATM   26  O   UNL     1       4.450  33.008  64.892  1.00  0.00    -0.259 OA
BRANCH  25  27
HETATM   27  O   UNL     1       6.335  34.084  64.129  1.00  0.00    -0.318 OA
BRANCH  27  28
HETATM   28  C   UNL     1       7.386  33.221  64.590  1.00  0.00     0.174 C 
HETATM   29  C   UNL     1       8.075  32.574  63.404  1.00  0.00     0.034 C 
ENDBRANCH  27  28
ENDBRANCH  25  27
ENDBRANCH  22  25
ENDBRANCH  16  19
ENDBRANCH  14  15
ENDBRANCH   1  14
BRANCH   7  30
HETATM   30  C   UNL     1       7.354  25.561  54.483  1.00  0.00    -0.001 A 
HETATM   31  C   UNL     1       7.641  24.508  55.356  1.00  0.00     0.037 A 
HETATM   32  C   UNL     1       8.060  23.276  54.847  1.00  0.00     0.035 A 
HETATM   33 CL   UNL     1       8.408  21.983  55.929  1.00  0.00    -0.084 Cl
HETATM   34  C   UNL     1       8.199  23.082  53.476  1.00  0.00     0.024 A 
HETATM   35  C   UNL     1       7.919  24.129  52.600  1.00  0.00     0.003 A 
HETATM   36  C   UNL     1       7.499  25.363  53.100  1.00  0.00     0.014 A 
ENDBRANCH   7  30
TORSDOF 7
ENDMDL
MODEL 7
REMARK VINA RESULT:      -9.8      4.122     11.317
REMARK  7 active torsions:
REMARK  status: ('A' for Active; 'I' for Inactive)
REMARK    1  A    between atoms: C_2  and  O_3 
REMARK    2  A    between atoms: O_3  and  C_4 
REMARK    3  A    between atoms: C_4  and  C_5 
REMARK    4  A    between atoms: C_8  and  N_9 
REMARK       I    between atoms: N_9  and  C_10 
REMARK    5  A    between atoms: C_10  and  C_11 
REMARK    6  A    between atoms: C_11  and  N_12 
REMARK    7  A    between atoms: C_18  and  C_19 
ROOT
HETATM    1  N   UNL     1       4.848  29.933  54.491  1.00  0.00    -0.063 N 
HETATM    2  H   UNL     1       5.637  30.041  53.840  1.00  0.00     0.280 HD
HETATM    3  C   UNL     1       4.265  31.328  54.660  1.00  0.00     0.240 C 
HETATM    4  C   UNL     1       4.978  32.157  55.708  1.00  0.00     0.083 C 
HETATM    5  C   UNL     1       5.176  31.368  56.994  1.00  0.00     0.131 A 
HETATM    6  N   UNL     1       5.872  32.226  57.982  1.00  0.00    -0.251 NA
HETATM    7  C   UNL     1       5.122  32.255  59.055  1.00  0.00     0.132 A 
HETATM    8  C   UNL     1       3.853  31.451  58.873  1.00  0.00     0.272 A 
HETATM    9  O   UNL     1       2.966  31.256  59.667  1.00  0.00    -0.266 OA
HETATM   10  N   UNL     1       3.942  30.983  57.602  1.00  0.00    -0.327 N 
HETATM   11  C   UNL     1       6.078  30.181  56.688  1.00  0.00     0.083 C 
HETATM   12  C   UNL     1       5.415  29.234  55.715  1.00  0.00     0.240 C 
HETATM   13  H   UNL     1       3.201  30.397  57.218  1.00  0.00     0.165 HD
ENDROOT
BRANCH   1  14
HETATM   14  C   UNL     1       3.819  28.990  53.782  1.00  0.00     0.337 C 
BRANCH  14  15
HETATM   15  C   UNL     1       4.106  28.769  52.286  1.00  0.00     0.248 C 
HETATM   16  N   UNL     1       4.874  27.755  51.818  1.00  0.00    -0.326 N 
HETATM   17  H   UNL     1       4.887  27.764  50.799  1.00  0.00     0.169 HD
HETATM   18  O   UNL     1       3.590  29.515  51.440  1.00  0.00    -0.271 OA
BRANCH  16  19
HETATM   19  C   UNL     1       5.587  26.697  52.404  1.00  0.00     0.034 A 
HETATM   20  C   UNL     1       5.210  25.356  52.411  1.00  0.00     0.030 A 
HETATM   21  C   UNL     1       6.042  24.392  53.005  1.00  0.00     0.020 A 
HETATM   22  C   UNL     1       7.255  24.756  53.604  1.00  0.00     0.039 A 
HETATM   23  C   UNL     1       7.619  26.102  53.626  1.00  0.00     0.020 A 
HETATM   24  C   UNL     1       6.789  27.058  53.035  1.00  0.00     0.030 A 
BRANCH  22  25
HETATM   25  C   UNL     1       8.107  23.689  54.196  1.00  0.00     0.293 C 
HETATM   26  O   UNL     1       8.372  23.634  55.385  1.00  0.00    -0.259 OA
BRANCH  25  27
HETATM   27  O   UNL     1       8.494  22.814  53.238  1.00  0.00    -0.318 OA
BRANCH  27  28
HETATM   28  C   UNL     1       8.915  21.519  53.694  1.00  0.00     0.174 C 
HETATM   29  C   UNL     1       8.201  20.440  52.903  1.00  0.00     0.034 C 
ENDBRANCH  27  28
ENDBRANCH  25  27
ENDBRANCH  22  25
ENDBRANCH  16  19
ENDBRANCH  14  15
ENDBRANCH   1  14
BRANCH   7  30
HETATM   30  C   UNL     1       5.482  32.983  60.290  1.00  0.00    -0.001 A 
HETATM   31  C   UNL     1       6.488  32.543  61.156  1.00  0.00     0.037 A 
HETATM   32  C   UNL     1       6.791  33.281  62.303  1.00  0.00     0.035 A 
HETATM   33 CL   UNL     1       8.033  32.735  63.362  1.00  0.00    -0.084 Cl
HETATM   34  C   UNL     1       6.100  34.452  62.600  1.00  0.00     0.024 A 
HETATM   35  C   UNL     1       5.093  34.894  61.744  1.00  0.00     0.003 A 
HETATM   36  C   UNL     1       4.785  34.163  60.594  1.00  0.00     0.014 A 
ENDBRANCH   7  30
TORSDOF 7
ENDMDL
MODEL 8
REMARK VINA RESULT:      -9.3      4.114     11.641
REMARK  7 active torsions:
REMARK  status: ('A' for Active; 'I' for Inactive)
REMARK    1  A    between atoms: C_2  and  O_3 
REMARK    2  A    between atoms: O_3  and  C_4 
REMARK    3  A    between atoms: C_4  and  C_5 
REMARK    4  A    between atoms: C_8  and  N_9 
REMARK       I    between atoms: N_9  and  C_10 
REMARK    5  A    between atoms: C_10  and  C_11 
REMARK    6  A    between atoms: C_11  and  N_12 
REMARK    7  A    between atoms: C_18  and  C_19 
ROOT
HETATM    1  N   UNL     1       6.808  31.483  58.283  1.00  0.00    -0.063 N 
HETATM    2  H   UNL     1       7.356  32.121  57.690  1.00  0.00     0.280 HD
HETATM    3  C   UNL     1       5.523  32.232  58.607  1.00  0.00     0.240 C 
HETATM    4  C   UNL     1       5.654  33.172  59.787  1.00  0.00     0.083 C 
HETATM    5  C   UNL     1       6.328  32.486  60.966  1.00  0.00     0.131 A 
HETATM    6  N   UNL     1       6.427  33.447  62.090  1.00  0.00    -0.251 NA
HETATM    7  C   UNL     1       5.846  32.886  63.121  1.00  0.00     0.132 A 
HETATM    8  C   UNL     1       5.286  31.523  62.775  1.00  0.00     0.272 A 
HETATM    9  O   UNL     1       4.715  30.740  63.494  1.00  0.00    -0.266 OA
HETATM   10  N   UNL     1       5.582  31.372  61.459  1.00  0.00    -0.327 N 
HETATM   11  C   UNL     1       7.744  32.109  60.549  1.00  0.00     0.083 C 
HETATM   12  C   UNL     1       7.726  31.094  59.429  1.00  0.00     0.240 C 
HETATM   13  H   UNL     1       5.313  30.521  60.967  1.00  0.00     0.165 HD
ENDROOT
BRANCH   1  14
HETATM   14  C   UNL     1       6.502  30.221  57.408  1.00  0.00     0.337 C 
BRANCH  14  15
HETATM   15  C   UNL     1       5.821  30.546  56.067  1.00  0.00     0.248 C 
HETATM   16  N   UNL     1       5.763  29.673  55.032  1.00  0.00    -0.326 N 
HETATM   17  H   UNL     1       5.220  30.069  54.266  1.00  0.00     0.169 HD
HETATM   18  O   UNL     1       5.251  31.636  55.910  1.00  0.00    -0.271 OA
BRANCH  16  19
HETATM   19  C   UNL     1       6.222  28.364  54.809  1.00  0.00     0.034 A 
HETATM   20  C   UNL     1       7.352  28.003  54.079  1.00  0.00     0.030 A 
HETATM   21  C   UNL     1       7.718  26.651  53.967  1.00  0.00     0.020 A 
HETATM   22  C   UNL     1       6.958  25.646  54.578  1.00  0.00     0.039 A 
HETATM   23  C   UNL     1       5.808  26.003  55.283  1.00  0.00     0.020 A 
HETATM   24  C   UNL     1       5.447  27.348  55.391  1.00  0.00     0.030 A 
BRANCH  22  25
HETATM   25  C   UNL     1       7.407  24.232  54.447  1.00  0.00     0.293 C 
HETATM   26  O   UNL     1       6.756  23.380  53.865  1.00  0.00    -0.259 OA
BRANCH  25  27
HETATM   27  O   UNL     1       8.617  24.071  55.029  1.00  0.00    -0.318 OA
BRANCH  27  28
HETATM   28  C   UNL     1       8.998  22.721  55.340  1.00  0.00     0.174 C 
HETATM   29  C   UNL     1       8.321  22.281  56.624  1.00  0.00     0.034 C 
ENDBRANCH  27  28
ENDBRANCH  25  27
ENDBRANCH  22  25
ENDBRANCH  16  19
ENDBRANCH  14  15
ENDBRANCH   1  14
BRANCH   7  30
HETATM   30  C   UNL     1       5.758  33.513  64.457  1.00  0.00    -0.001 A 
HETATM   31  C   UNL     1       4.576  34.076  64.947  1.00  0.00     0.037 A 
HETATM   32  C   UNL     1       4.552  34.644  66.223  1.00  0.00     0.035 A 
HETATM   33 CL   UNL     1       3.092  35.332  66.821  1.00  0.00    -0.084 Cl
HETATM   34  C   UNL     1       5.695  34.659  67.018  1.00  0.00     0.024 A 
HETATM   35  C   UNL     1       6.878  34.104  66.534  1.00  0.00     0.003 A 
HETATM   36  C   UNL     1       6.910  33.533  65.259  1.00  0.00     0.014 A 
ENDBRANCH   7  30
TORSDOF 7
ENDMDL
MODEL 9
REMARK VINA RESULT:      -9.3      2.260      3.091
REMARK  7 active torsions:
REMARK  status: ('A' for Active; 'I' for Inactive)
REMARK    1  A    between atoms: C_2  and  O_3 
REMARK    2  A    between atoms: O_3  and  C_4 
REMARK    3  A    between atoms: C_4  and  C_5 
REMARK    4  A    between atoms: C_8  and  N_9 
REMARK       I    between atoms: N_9  and  C_10 
REMARK    5  A    between atoms: C_10  and  C_11 
REMARK    6  A    between atoms: C_11  and  N_12 
REMARK    7  A    between atoms: C_18  and  C_19 
ROOT
HETATM    1  N   UNL     1       5.293  28.959  56.017  1.00  0.00    -0.063 N 
HETATM    2  H   UNL     1       4.429  29.122  55.481  1.00  0.00     0.280 HD
HETATM    3  C   UNL     1       6.368  28.675  54.978  1.00  0.00     0.240 C 
HETATM    4  C   UNL     1       6.407  27.229  54.530  1.00  0.00     0.083 C 
HETATM    5  C   UNL     1       6.379  26.282  55.721  1.00  0.00     0.131 A 
HETATM    6  N   UNL     1       6.423  24.885  55.227  1.00  0.00    -0.251 NA
HETATM    7  C   UNL     1       7.445  24.309  55.807  1.00  0.00     0.132 A 
HETATM    8  C   UNL     1       8.189  25.267  56.713  1.00  0.00     0.272 A 
HETATM    9  O   UNL     1       9.153  25.053  57.405  1.00  0.00    -0.266 OA
HETATM   10  N   UNL     1       7.511  26.436  56.578  1.00  0.00    -0.327 N 
HETATM   11  C   UNL     1       5.057  26.477  56.451  1.00  0.00     0.083 C 
HETATM   12  C   UNL     1       4.956  27.872  57.023  1.00  0.00     0.240 C 
HETATM   13  H   UNL     1       7.809  27.264  57.094  1.00  0.00     0.165 HD
ENDROOT
BRANCH   1  14
HETATM   14  C   UNL     1       5.600  30.294  56.774  1.00  0.00     0.337 C 
BRANCH  14  15
HETATM   15  C   UNL     1       4.792  31.500  56.260  1.00  0.00     0.248 C 
HETATM   16  N   UNL     1       4.215  32.412  57.079  1.00  0.00    -0.326 N 
HETATM   17  H   UNL     1       3.779  33.152  56.531  1.00  0.00     0.169 HD
HETATM   18  O   UNL     1       4.681  31.696  55.040  1.00  0.00    -0.271 OA
BRANCH  16  19
HETATM   19  C   UNL     1       4.135  32.587  58.470  1.00  0.00     0.034 A 
HETATM   20  C   UNL     1       3.631  31.666  59.387  1.00  0.00     0.030 A 
HETATM   21  C   UNL     1       3.646  31.959  60.761  1.00  0.00     0.020 A 
HETATM   22  C   UNL     1       4.157  33.174  61.235  1.00  0.00     0.039 A 
HETATM   23  C   UNL     1       4.632  34.110  60.316  1.00  0.00     0.020 A 
HETATM   24  C   UNL     1       4.615  33.816  58.950  1.00  0.00     0.030 A 
BRANCH  22  25
HETATM   25  C   UNL     1       4.169  33.419  62.703  1.00  0.00     0.293 C 
HETATM   26  O   UNL     1       3.324  34.091  63.271  1.00  0.00    -0.259 OA
BRANCH  25  27
HETATM   27  O   UNL     1       5.213  32.775  63.275  1.00  0.00    -0.318 OA
BRANCH  27  28
HETATM   28  C   UNL     1       6.499  33.398  63.131  1.00  0.00     0.174 C 
HETATM   29  C   UNL     1       7.449  32.861  64.185  1.00  0.00     0.034 C 
ENDBRANCH  27  28
ENDBRANCH  25  27
ENDBRANCH  22  25
ENDBRANCH  16  19
ENDBRANCH  14  15
ENDBRANCH   1  14
BRANCH   7  30
HETATM   30  C   UNL     1       7.816  22.893  55.602  1.00  0.00    -0.001 A 
HETATM   31  C   UNL     1       7.889  22.311  54.333  1.00  0.00     0.037 A 
HETATM   32  C   UNL     1       8.258  20.969  54.203  1.00  0.00     0.035 A 
HETATM   33 CL   UNL     1       8.349  20.261  52.637  1.00  0.00    -0.084 Cl
HETATM   34  C   UNL     1       8.552  20.199  55.324  1.00  0.00     0.024 A 
HETATM   35  C   UNL     1       8.477  20.771  56.592  1.00  0.00     0.003 A 
HETATM   36  C   UNL     1       8.111  22.112  56.731  1.00  0.00     0.014 A 
ENDBRANCH   7  30
TORSDOF 7
ENDMDL
MODEL 10
REMARK VINA RESULT:      -9.2      4.287     11.827
REMARK  7 active torsions:
REMARK  status: ('A' for Active; 'I' for Inactive)
REMARK    1  A    between atoms: C_2  and  O_3 
REMARK    2  A    between atoms: O_3  and  C_4 
REMARK    3  A    between atoms: C_4  and  C_5 
REMARK    4  A    between atoms: C_8  and  N_9 
REMARK       I    between atoms: N_9  and  C_10 
REMARK    5  A    between atoms: C_10  and  C_11 
REMARK    6  A    between atoms: C_11  and  N_12 
REMARK    7  A    between atoms: C_18  and  C_19 
ROOT
HETATM    1  N   UNL     1       7.352  31.530  58.618  1.00  0.00    -0.063 N 
HETATM    2  H   UNL     1       7.858  32.188  58.009  1.00  0.00     0.280 HD
HETATM    3  C   UNL     1       5.936  32.077  58.721  1.00  0.00     0.240 C 
HETATM    4  C   UNL     1       5.776  33.141  59.786  1.00  0.00     0.083 C 
HETATM    5  C   UNL     1       6.408  32.706  61.100  1.00  0.00     0.131 A 
HETATM    6  N   UNL     1       6.219  33.780  62.104  1.00  0.00    -0.251 NA
HETATM    7  C   UNL     1       5.618  33.237  63.133  1.00  0.00     0.132 A 
HETATM    8  C   UNL     1       5.326  31.770  62.901  1.00  0.00     0.272 A 
HETATM    9  O   UNL     1       4.807  30.979  63.649  1.00  0.00    -0.266 OA
HETATM   10  N   UNL     1       5.795  31.538  61.648  1.00  0.00    -0.327 N 
HETATM   11  C   UNL     1       7.904  32.537  60.873  1.00  0.00     0.083 C 
HETATM   12  C   UNL     1       8.179  31.424  59.888  1.00  0.00     0.240 C 
HETATM   13  H   UNL     1       5.724  30.607  61.238  1.00  0.00     0.165 HD
ENDROOT
BRANCH   1  14
HETATM   14  C   UNL     1       7.356  30.152  57.877  1.00  0.00     0.337 C 
BRANCH  14  15
HETATM   15  C   UNL     1       8.745  29.723  57.370  1.00  0.00     0.248 C 
HETATM   16  N   UNL     1       8.930  28.771  56.422  1.00  0.00    -0.326 N 
HETATM   17  H   UNL     1       9.919  28.685  56.198  1.00  0.00     0.169 HD
HETATM   18  O   UNL     1       9.762  30.287  57.800  1.00  0.00    -0.271 OA
BRANCH  16  19
HETATM   19  C   UNL     1       8.082  27.945  55.667  1.00  0.00     0.034 A 
HETATM   20  C   UNL     1       7.433  26.798  56.121  1.00  0.00     0.030 A 
HETATM   21  C   UNL     1       6.581  26.084  55.264  1.00  0.00     0.020 A 
HETATM   22  C   UNL     1       6.371  26.500  53.943  1.00  0.00     0.039 A 
HETATM   23  C   UNL     1       7.044  27.629  53.477  1.00  0.00     0.020 A 
HETATM   24  C   UNL     1       7.892  28.338  54.332  1.00  0.00     0.030 A 
BRANCH  22  25
HETATM   25  C   UNL     1       5.437  25.718  53.087  1.00  0.00     0.293 C 
HETATM   26  O   UNL     1       5.166  24.547  53.298  1.00  0.00    -0.259 OA
BRANCH  25  27
HETATM   27  O   UNL     1       4.942  26.500  52.100  1.00  0.00    -0.318 OA
BRANCH  27  28
HETATM   28  C   UNL     1       5.069  25.992  50.763  1.00  0.00     0.174 C 
HETATM   29  C   UNL     1       4.847  27.112  49.766  1.00  0.00     0.034 C 
ENDBRANCH  27  28
ENDBRANCH  25  27
ENDBRANCH  22  25
ENDBRANCH  16  19
ENDBRANCH  14  15
ENDBRANCH   1  14
BRANCH   7  30
HETATM   30  C   UNL     1       5.275  33.973  64.368  1.00  0.00    -0.001 A 
HETATM   31  C   UNL     1       6.001  33.830  65.554  1.00  0.00     0.037 A 
HETATM   32  C   UNL     1       5.636  34.562  66.687  1.00  0.00     0.035 A 
HETATM   33 CL   UNL     1       6.536  34.383  68.142  1.00  0.00    -0.084 Cl
HETATM   34  C   UNL     1       4.551  35.434  66.652  1.00  0.00     0.024 A 
HETATM   35  C   UNL     1       3.820  35.578  65.474  1.00  0.00     0.003 A 
HETATM   36  C   UNL     1       4.180  34.851  64.337  1.00  0.00     0.014 A 
ENDBRANCH   7  30
TORSDOF 7
ENDMDL
