MODEL 1
REMARK VINA RESULT:     -10.1      0.000      0.000
REMARK  6 active torsions:
REMARK  status: ('A' for Active; 'I' for Inactive)
REMARK    1  A    between atoms: C_2  and  C_3 
REMARK    2  A    between atoms: C_8  and  N_9 
REMARK       I    between atoms: N_9  and  C_10 
REMARK       I    between atoms: C_10  and  N_11 
REMARK    3  A    between atoms: N_11  and  N_12 
REMARK       I    between atoms: N_12  and  C_13 
REMARK    4  A    between atoms: C_13  and  C_14 
REMARK    5  A    between atoms: C_14  and  N_15 
REMARK       I    between atoms: N_15  and  C_16 
REMARK       I    between atoms: C_16  and  N_17 
REMARK    6  A    between atoms: N_17  and  C_18 
ROOT
HETATM    1  N   UNL     1       7.619  25.480  55.289  1.00  0.00    -0.306 N 
HETATM    2  C   UNL     1       6.469  26.118  55.676  1.00  0.00     0.339 C 
HETATM    3  N   UNL     1       6.624  27.441  55.997  1.00  0.00    -0.249 N 
HETATM    4  O   UNL     1       5.351  25.617  55.745  1.00  0.00    -0.245 OA
HETATM    5  H   UNL     1       8.475  25.974  55.505  1.00  0.00     0.171 HD
HETATM    6  H   UNL     1       5.815  27.920  56.394  1.00  0.00     0.192 HD
ENDROOT
BRANCH   3   7
HETATM    7  N   UNL     1       7.844  28.138  56.024  1.00  0.00    -0.265 N 
HETATM    8  C   UNL     1       8.348  28.372  57.298  1.00  0.00     0.253 C 
HETATM    9  O   UNL     1       7.859  27.848  58.302  1.00  0.00    -0.270 OA
HETATM   10  H   UNL     1       7.959  28.904  55.351  1.00  0.00     0.190 HD
BRANCH   8  11
HETATM   11  C   UNL     1       9.401  29.475  57.400  1.00  0.00     0.228 C 
BRANCH  11  12
HETATM   12  N   UNL     1       9.368  30.241  58.628  1.00  0.00    -0.334 N 
HETATM   13  C   UNL     1       9.876  31.495  58.740  1.00  0.00     0.322 C 
HETATM   14  N   UNL     1       9.576  32.203  59.859  1.00  0.00    -0.287 N 
HETATM   15  O   UNL     1      10.615  31.967  57.874  1.00  0.00    -0.247 OA
HETATM   16  H   UNL     1       9.977  33.126  59.930  1.00  0.00     0.172 HD
HETATM   17  H   UNL     1       8.724  29.945  59.360  1.00  0.00     0.164 HD
BRANCH  14  18
HETATM   18  C   UNL     1       8.779  31.774  60.881  1.00  0.00     0.174 A 
HETATM   19  S   UNL     1       7.242  32.505  60.959  1.00  0.00    -0.062 SA
HETATM   20  C   UNL     1       6.894  31.565  62.352  1.00  0.00     0.072 A 
HETATM   21  C   UNL     1       7.973  30.760  62.650  1.00  0.00     0.126 A 
HETATM   22  N   UNL     1       9.056  30.876  61.797  1.00  0.00    -0.236 NA
ENDBRANCH  14  18
ENDBRANCH  11  12
ENDBRANCH   8  11
ENDBRANCH   3   7
BRANCH   1  23
HETATM   23  C   UNL     1       7.748  24.160  54.796  1.00  0.00     0.059 A 
HETATM   24  C   UNL     1       7.771  23.038  55.636  1.00  0.00     0.047 A 
HETATM   25  C   UNL     1       7.883  21.734  55.119  1.00  0.00     0.050 A 
HETATM   26  C   UNL     1       7.983  21.559  53.732  1.00  0.00     0.018 A 
HETATM   27  C   UNL     1       7.954  22.665  52.880  1.00  0.00     0.027 A 
HETATM   28  C   UNL     1       7.831  23.955  53.408  1.00  0.00     0.060 A 
HETATM   29 CL   UNL     1       7.795  25.287  52.302  1.00  0.00    -0.082 Cl
BRANCH  25  30
HETATM   30  C   UNL     1       7.914  20.555  56.064  1.00  0.00     0.417 C 
HETATM   31  F   UNL     1       8.339  20.883  57.317  1.00  0.00    -0.166 F 
HETATM   32  F   UNL     1       6.690  19.983  56.226  1.00  0.00    -0.166 F 
HETATM   33  F   UNL     1       8.745  19.563  55.642  1.00  0.00    -0.166 F 
ENDBRANCH  25  30
ENDBRANCH   1  23
TORSDOF 6
ENDMDL
MODEL 2
REMARK VINA RESULT:      -9.5      4.773      7.208
REMARK  6 active torsions:
REMARK  status: ('A' for Active; 'I' for Inactive)
REMARK    1  A    between atoms: C_2  and  C_3 
REMARK    2  A    between atoms: C_8  and  N_9 
REMARK       I    between atoms: N_9  and  C_10 
REMARK       I    between atoms: C_10  and  N_11 
REMARK    3  A    between atoms: N_11  and  N_12 
REMARK       I    between atoms: N_12  and  C_13 
REMARK    4  A    between atoms: C_13  and  C_14 
REMARK    5  A    between atoms: C_14  and  N_15 
REMARK       I    between atoms: N_15  and  C_16 
REMARK       I    between atoms: C_16  and  N_17 
REMARK    6  A    between atoms: N_17  and  C_18 
ROOT
HETATM    1  N   UNL     1       7.303  25.464  54.716  1.00  0.00    -0.306 N 
HETATM    2  C   UNL     1       7.598  26.237  55.808  1.00  0.00     0.339 C 
HETATM    3  N   UNL     1       7.004  27.473  55.816  1.00  0.00    -0.249 N 
HETATM    4  O   UNL     1       8.318  25.919  56.749  1.00  0.00    -0.245 OA
HETATM    5  H   UNL     1       6.884  25.960  53.940  1.00  0.00     0.171 HD
HETATM    6  H   UNL     1       7.286  28.119  56.554  1.00  0.00     0.192 HD
ENDROOT
BRANCH   3   7
HETATM    7  N   UNL     1       6.206  28.003  54.788  1.00  0.00    -0.265 N 
HETATM    8  C   UNL     1       4.859  28.129  55.109  1.00  0.00     0.253 C 
HETATM    9  O   UNL     1       4.442  27.964  56.257  1.00  0.00    -0.270 OA
HETATM   10  H   UNL     1       6.410  27.693  53.832  1.00  0.00     0.190 HD
BRANCH   8  11
HETATM   11  C   UNL     1       3.908  28.272  53.921  1.00  0.00     0.228 C 
BRANCH  11  12
HETATM   12  N   UNL     1       4.421  27.776  52.662  1.00  0.00    -0.334 N 
HETATM   13  C   UNL     1       4.612  26.458  52.401  1.00  0.00     0.322 C 
HETATM   14  N   UNL     1       4.865  26.095  51.117  1.00  0.00    -0.287 N 
HETATM   15  O   UNL     1       4.593  25.616  53.300  1.00  0.00    -0.247 OA
HETATM   16  H   UNL     1       5.020  25.113  50.947  1.00  0.00     0.172 HD
HETATM   17  H   UNL     1       4.400  28.400  51.857  1.00  0.00     0.164 HD
BRANCH  14  18
HETATM   18  C   UNL     1       4.919  26.943  50.048  1.00  0.00     0.174 A 
HETATM   19  S   UNL     1       4.110  26.401  48.650  1.00  0.00    -0.062 SA
HETATM   20  C   UNL     1       4.598  27.835  47.843  1.00  0.00     0.072 A 
HETATM   21  C   UNL     1       5.335  28.623  48.702  1.00  0.00     0.126 A 
HETATM   22  N   UNL     1       5.514  28.110  49.974  1.00  0.00    -0.236 NA
ENDBRANCH  14  18
ENDBRANCH  11  12
ENDBRANCH   8  11
ENDBRANCH   3   7
BRANCH   1  23
HETATM   23  C   UNL     1       7.673  24.116  54.490  1.00  0.00     0.059 A 
HETATM   24  C   UNL     1       7.763  23.173  55.523  1.00  0.00     0.047 A 
HETATM   25  C   UNL     1       8.117  21.835  55.269  1.00  0.00     0.050 A 
HETATM   26  C   UNL     1       8.393  21.443  53.952  1.00  0.00     0.018 A 
HETATM   27  C   UNL     1       8.300  22.368  52.909  1.00  0.00     0.027 A 
HETATM   28  C   UNL     1       7.937  23.693  53.176  1.00  0.00     0.060 A 
HETATM   29 CL   UNL     1       7.833  24.792  51.842  1.00  0.00    -0.082 Cl
BRANCH  25  30
HETATM   30  C   UNL     1       8.211  20.856  56.416  1.00  0.00     0.417 C 
HETATM   31  F   UNL     1       7.159  19.990  56.470  1.00  0.00    -0.166 F 
HETATM   32  F   UNL     1       9.326  20.080  56.351  1.00  0.00    -0.166 F 
HETATM   33  F   UNL     1       8.244  21.470  57.630  1.00  0.00    -0.166 F 
ENDBRANCH  25  30
ENDBRANCH   1  23
TORSDOF 6
ENDMDL
MODEL 3
REMARK VINA RESULT:      -9.3      1.875      2.216
REMARK  6 active torsions:
REMARK  status: ('A' for Active; 'I' for Inactive)
REMARK    1  A    between atoms: C_2  and  C_3 
REMARK    2  A    between atoms: C_8  and  N_9 
REMARK       I    between atoms: N_9  and  C_10 
REMARK       I    between atoms: C_10  and  N_11 
REMARK    3  A    between atoms: N_11  and  N_12 
REMARK       I    between atoms: N_12  and  C_13 
REMARK    4  A    between atoms: C_13  and  C_14 
REMARK    5  A    between atoms: C_14  and  N_15 
REMARK       I    between atoms: N_15  and  C_16 
REMARK       I    between atoms: C_16  and  N_17 
REMARK    6  A    between atoms: N_17  and  C_18 
ROOT
HETATM    1  N   UNL     1       7.426  25.524  54.965  1.00  0.00    -0.306 N 
HETATM    2  C   UNL     1       6.255  26.205  54.758  1.00  0.00     0.339 C 
HETATM    3  N   UNL     1       6.296  27.535  55.086  1.00  0.00    -0.249 N 
HETATM    4  O   UNL     1       5.213  25.737  54.308  1.00  0.00    -0.245 OA
HETATM    5  H   UNL     1       8.103  26.003  55.545  1.00  0.00     0.171 HD
HETATM    6  H   UNL     1       5.415  28.049  55.051  1.00  0.00     0.192 HD
ENDROOT
BRANCH   3   7
HETATM    7  N   UNL     1       7.390  28.201  55.665  1.00  0.00    -0.265 N 
HETATM    8  C   UNL     1       7.485  28.065  57.045  1.00  0.00     0.253 C 
HETATM    9  O   UNL     1       6.779  27.276  57.675  1.00  0.00    -0.270 OA
HETATM   10  H   UNL     1       7.624  29.127  55.290  1.00  0.00     0.190 HD
BRANCH   8  11
HETATM   11  C   UNL     1       8.363  29.099  57.751  1.00  0.00     0.228 C 
BRANCH  11  12
HETATM   12  N   UNL     1       7.643  30.085  58.527  1.00  0.00    -0.334 N 
HETATM   13  C   UNL     1       8.106  30.602  59.694  1.00  0.00     0.322 C 
HETATM   14  N   UNL     1       7.469  31.685  60.206  1.00  0.00    -0.287 N 
HETATM   15  O   UNL     1       9.052  30.087  60.292  1.00  0.00    -0.247 OA
HETATM   16  H   UNL     1       7.818  32.044  61.081  1.00  0.00     0.172 HD
HETATM   17  H   UNL     1       6.892  30.600  58.069  1.00  0.00     0.164 HD
BRANCH  14  18
HETATM   18  C   UNL     1       6.407  32.326  59.633  1.00  0.00     0.174 A 
HETATM   19  S   UNL     1       5.172  32.789  60.711  1.00  0.00    -0.062 SA
HETATM   20  C   UNL     1       4.293  33.436  59.386  1.00  0.00     0.072 A 
HETATM   21  C   UNL     1       5.011  33.257  58.222  1.00  0.00     0.126 A 
HETATM   22  N   UNL     1       6.232  32.623  58.367  1.00  0.00    -0.236 NA
ENDBRANCH  14  18
ENDBRANCH  11  12
ENDBRANCH   8  11
ENDBRANCH   3   7
BRANCH   1  23
HETATM   23  C   UNL     1       7.716  24.183  54.616  1.00  0.00     0.059 A 
HETATM   24  C   UNL     1       7.747  23.147  55.558  1.00  0.00     0.047 A 
HETATM   25  C   UNL     1       8.022  21.819  55.183  1.00  0.00     0.050 A 
HETATM   26  C   UNL     1       8.280  21.533  53.836  1.00  0.00     0.018 A 
HETATM   27  C   UNL     1       8.245  22.553  52.882  1.00  0.00     0.027 A 
HETATM   28  C   UNL     1       7.960  23.867  53.269  1.00  0.00     0.060 A 
HETATM   29 CL   UNL     1       7.926  25.088  52.041  1.00  0.00    -0.082 Cl
BRANCH  25  30
HETATM   30  C   UNL     1       8.054  20.736  56.236  1.00  0.00     0.417 C 
HETATM   31  F   UNL     1       6.877  20.056  56.343  1.00  0.00    -0.166 F 
HETATM   32  F   UNL     1       9.004  19.794  55.989  1.00  0.00    -0.166 F 
HETATM   33  F   UNL     1       8.313  21.220  57.481  1.00  0.00    -0.166 F 
ENDBRANCH  25  30
ENDBRANCH   1  23
TORSDOF 6
ENDMDL
MODEL 4
REMARK VINA RESULT:      -9.2      5.541      7.755
REMARK  6 active torsions:
REMARK  status: ('A' for Active; 'I' for Inactive)
REMARK    1  A    between atoms: C_2  and  C_3 
REMARK    2  A    between atoms: C_8  and  N_9 
REMARK       I    between atoms: N_9  and  C_10 
REMARK       I    between atoms: C_10  and  N_11 
REMARK    3  A    between atoms: N_11  and  N_12 
REMARK       I    between atoms: N_12  and  C_13 
REMARK    4  A    between atoms: C_13  and  C_14 
REMARK    5  A    between atoms: C_14  and  N_15 
REMARK       I    between atoms: N_15  and  C_16 
REMARK       I    between atoms: C_16  and  N_17 
REMARK    6  A    between atoms: N_17  and  C_18 
ROOT
HETATM    1  N   UNL     1       6.676  25.377  54.647  1.00  0.00    -0.306 N 
HETATM    2  C   UNL     1       5.658  25.684  55.511  1.00  0.00     0.339 C 
HETATM    3  N   UNL     1       5.171  26.960  55.397  1.00  0.00    -0.249 N 
HETATM    4  O   UNL     1       5.160  24.930  56.341  1.00  0.00    -0.245 OA
HETATM    5  H   UNL     1       7.109  26.172  54.195  1.00  0.00     0.171 HD
HETATM    6  H   UNL     1       4.490  27.261  56.095  1.00  0.00     0.192 HD
ENDROOT
BRANCH   3   7
HETATM    7  N   UNL     1       5.674  27.953  54.540  1.00  0.00    -0.265 N 
HETATM    8  C   UNL     1       4.938  28.140  53.376  1.00  0.00     0.253 C 
HETATM    9  O   UNL     1       3.838  27.609  53.204  1.00  0.00    -0.270 OA
HETATM   10  H   UNL     1       6.693  28.010  54.438  1.00  0.00     0.190 HD
BRANCH   8  11
HETATM   11  C   UNL     1       5.665  28.865  52.243  1.00  0.00     0.228 C 
BRANCH  11  12
HETATM   12  N   UNL     1       5.122  28.636  50.921  1.00  0.00    -0.334 N 
HETATM   13  C   UNL     1       5.568  29.273  49.810  1.00  0.00     0.322 C 
HETATM   14  N   UNL     1       5.156  28.807  48.603  1.00  0.00    -0.287 N 
HETATM   15  O   UNL     1       6.296  30.264  49.887  1.00  0.00    -0.247 OA
HETATM   16  H   UNL     1       5.486  29.305  47.790  1.00  0.00     0.172 HD
HETATM   17  H   UNL     1       4.567  27.794  50.771  1.00  0.00     0.164 HD
BRANCH  14  18
HETATM   18  C   UNL     1       4.344  27.727  48.403  1.00  0.00     0.174 A 
HETATM   19  S   UNL     1       2.940  28.035  47.489  1.00  0.00    -0.062 SA
HETATM   20  C   UNL     1       2.489  26.389  47.675  1.00  0.00     0.072 A 
HETATM   21  C   UNL     1       3.446  25.728  48.415  1.00  0.00     0.126 A 
HETATM   22  N   UNL     1       4.518  26.498  48.828  1.00  0.00    -0.236 NA
ENDBRANCH  14  18
ENDBRANCH  11  12
ENDBRANCH   8  11
ENDBRANCH   3   7
BRANCH   1  23
HETATM   23  C   UNL     1       7.294  24.117  54.455  1.00  0.00     0.059 A 
HETATM   24  C   UNL     1       7.480  23.200  55.499  1.00  0.00     0.047 A 
HETATM   25  C   UNL     1       8.082  21.947  55.279  1.00  0.00     0.050 A 
HETATM   26  C   UNL     1       8.511  21.618  53.987  1.00  0.00     0.018 A 
HETATM   27  C   UNL     1       8.327  22.516  52.934  1.00  0.00     0.027 A 
HETATM   28  C   UNL     1       7.717  23.754  53.166  1.00  0.00     0.060 A 
HETATM   29 CL   UNL     1       7.510  24.824  51.820  1.00  0.00    -0.082 Cl
BRANCH  25  30
HETATM   30  C   UNL     1       8.270  20.995  56.437  1.00  0.00     0.417 C 
HETATM   31  F   UNL     1       8.271  21.618  57.649  1.00  0.00    -0.166 F 
HETATM   32  F   UNL     1       7.290  20.054  56.504  1.00  0.00    -0.166 F 
HETATM   33  F   UNL     1       9.447  20.315  56.373  1.00  0.00    -0.166 F 
ENDBRANCH  25  30
ENDBRANCH   1  23
TORSDOF 6
ENDMDL
MODEL 5
REMARK VINA RESULT:      -9.2      2.227      2.402
REMARK  6 active torsions:
REMARK  status: ('A' for Active; 'I' for Inactive)
REMARK    1  A    between atoms: C_2  and  C_3 
REMARK    2  A    between atoms: C_8  and  N_9 
REMARK       I    between atoms: N_9  and  C_10 
REMARK       I    between atoms: C_10  and  N_11 
REMARK    3  A    between atoms: N_11  and  N_12 
REMARK       I    between atoms: N_12  and  C_13 
REMARK    4  A    between atoms: C_13  and  C_14 
REMARK    5  A    between atoms: C_14  and  N_15 
REMARK       I    between atoms: N_15  and  C_16 
REMARK       I    between atoms: C_16  and  N_17 
REMARK    6  A    between atoms: N_17  and  C_18 
ROOT
HETATM    1  N   UNL     1       7.738  25.435  56.004  1.00  0.00    -0.306 N 
HETATM    2  C   UNL     1       8.176  25.535  57.298  1.00  0.00     0.339 C 
HETATM    3  N   UNL     1       7.787  26.676  57.952  1.00  0.00    -0.249 N 
HETATM    4  O   UNL     1       8.857  24.710  57.900  1.00  0.00    -0.245 OA
HETATM    5  H   UNL     1       7.387  26.295  55.603  1.00  0.00     0.171 HD
HETATM    6  H   UNL     1       8.185  26.839  58.877  1.00  0.00     0.192 HD
ENDROOT
BRANCH   3   7
HETATM    7  N   UNL     1       7.061  27.736  57.384  1.00  0.00    -0.265 N 
HETATM    8  C   UNL     1       7.425  28.997  57.842  1.00  0.00     0.253 C 
HETATM    9  O   UNL     1       8.423  29.176  58.544  1.00  0.00    -0.270 OA
HETATM   10  H   UNL     1       6.057  27.587  57.235  1.00  0.00     0.190 HD
BRANCH   8  11
HETATM   11  C   UNL     1       6.402  30.107  57.602  1.00  0.00     0.228 C 
BRANCH  11  12
HETATM   12  N   UNL     1       6.289  31.077  58.670  1.00  0.00    -0.334 N 
HETATM   13  C   UNL     1       5.749  32.310  58.506  1.00  0.00     0.322 C 
HETATM   14  N   UNL     1       5.475  33.037  59.619  1.00  0.00    -0.287 N 
HETATM   15  O   UNL     1       5.543  32.776  57.384  1.00  0.00    -0.247 OA
HETATM   16  H   UNL     1       5.089  33.958  59.475  1.00  0.00     0.172 HD
HETATM   17  H   UNL     1       6.378  30.743  59.630  1.00  0.00     0.164 HD
BRANCH  14  18
HETATM   18  C   UNL     1       5.673  32.624  60.906  1.00  0.00     0.174 A 
HETATM   19  S   UNL     1       4.269  32.561  61.870  1.00  0.00    -0.062 SA
HETATM   20  C   UNL     1       5.232  32.037  63.191  1.00  0.00     0.072 A 
HETATM   21  C   UNL     1       6.550  31.943  62.796  1.00  0.00     0.126 A 
HETATM   22  N   UNL     1       6.801  32.276  61.477  1.00  0.00    -0.236 NA
ENDBRANCH  14  18
ENDBRANCH  11  12
ENDBRANCH   8  11
ENDBRANCH   3   7
BRANCH   1  23
HETATM   23  C   UNL     1       7.883  24.332  55.128  1.00  0.00     0.059 A 
HETATM   24  C   UNL     1       8.017  23.015  55.587  1.00  0.00     0.047 A 
HETATM   25  C   UNL     1       8.143  21.934  54.694  1.00  0.00     0.050 A 
HETATM   26  C   UNL     1       8.143  22.188  53.316  1.00  0.00     0.018 A 
HETATM   27  C   UNL     1       8.003  23.493  52.841  1.00  0.00     0.027 A 
HETATM   28  C   UNL     1       7.869  24.557  53.741  1.00  0.00     0.060 A 
HETATM   29 CL   UNL     1       7.693  26.153  53.093  1.00  0.00    -0.082 Cl
BRANCH  25  30
HETATM   30  C   UNL     1       8.294  20.531  55.236  1.00  0.00     0.417 C 
HETATM   31  F   UNL     1       9.331  20.403  56.112  1.00  0.00    -0.166 F 
HETATM   32  F   UNL     1       7.188  20.108  55.906  1.00  0.00    -0.166 F 
HETATM   33  F   UNL     1       8.522  19.612  54.259  1.00  0.00    -0.166 F 
ENDBRANCH  25  30
ENDBRANCH   1  23
TORSDOF 6
ENDMDL
MODEL 6
REMARK VINA RESULT:      -9.0      2.067      2.906
REMARK  6 active torsions:
REMARK  status: ('A' for Active; 'I' for Inactive)
REMARK    1  A    between atoms: C_2  and  C_3 
REMARK    2  A    between atoms: C_8  and  N_9 
REMARK       I    between atoms: N_9  and  C_10 
REMARK       I    between atoms: C_10  and  N_11 
REMARK    3  A    between atoms: N_11  and  N_12 
REMARK       I    between atoms: N_12  and  C_13 
REMARK    4  A    between atoms: C_13  and  C_14 
REMARK    5  A    between atoms: C_14  and  N_15 
REMARK       I    between atoms: N_15  and  C_16 
REMARK       I    between atoms: C_16  and  N_17 
REMARK    6  A    between atoms: N_17  and  C_18 
ROOT
HETATM    1  N   UNL     1       6.347  25.173  54.482  1.00  0.00    -0.306 N 
HETATM    2  C   UNL     1       5.135  25.397  53.884  1.00  0.00     0.339 C 
HETATM    3  N   UNL     1       4.622  26.654  54.075  1.00  0.00    -0.249 N 
HETATM    4  O   UNL     1       4.500  24.594  53.208  1.00  0.00    -0.245 OA
HETATM    5  H   UNL     1       6.614  25.857  55.179  1.00  0.00     0.171 HD
HETATM    6  H   UNL     1       3.673  26.824  53.739  1.00  0.00     0.192 HD
ENDROOT
BRANCH   3   7
HETATM    7  N   UNL     1       5.198  27.660  54.869  1.00  0.00    -0.265 N 
HETATM    8  C   UNL     1       5.042  27.477  56.237  1.00  0.00     0.253 C 
HETATM    9  O   UNL     1       4.601  26.427  56.711  1.00  0.00    -0.270 OA
HETATM   10  H   UNL     1       5.109  28.626  54.535  1.00  0.00     0.190 HD
BRANCH   8  11
HETATM   11  C   UNL     1       5.248  28.722  57.099  1.00  0.00     0.228 C 
BRANCH  11  12
HETATM   12  N   UNL     1       6.598  28.914  57.585  1.00  0.00    -0.334 N 
HETATM   13  C   UNL     1       7.675  28.264  57.076  1.00  0.00     0.322 C 
HETATM   14  N   UNL     1       8.909  28.697  57.441  1.00  0.00    -0.287 N 
HETATM   15  O   UNL     1       7.544  27.290  56.334  1.00  0.00    -0.247 OA
HETATM   16  H   UNL     1       9.695  28.190  57.065  1.00  0.00     0.172 HD
HETATM   17  H   UNL     1       6.790  29.742  58.147  1.00  0.00     0.164 HD
BRANCH  14  18
HETATM   18  C   UNL     1       9.167  29.756  58.263  1.00  0.00     0.174 A 
HETATM   19  S   UNL     1      10.328  30.860  57.681  1.00  0.00    -0.062 SA
HETATM   20  C   UNL     1      10.134  31.781  59.116  1.00  0.00     0.072 A 
HETATM   21  C   UNL     1       9.195  31.182  59.928  1.00  0.00     0.126 A 
HETATM   22  N   UNL     1       8.634  30.019  59.433  1.00  0.00    -0.236 NA
ENDBRANCH  14  18
ENDBRANCH  11  12
ENDBRANCH   8  11
ENDBRANCH   3   7
BRANCH   1  23
HETATM   23  C   UNL     1       7.165  24.023  54.368  1.00  0.00     0.059 A 
HETATM   24  C   UNL     1       7.331  23.106  55.415  1.00  0.00     0.047 A 
HETATM   25  C   UNL     1       8.137  21.962  55.270  1.00  0.00     0.050 A 
HETATM   26  C   UNL     1       8.794  21.744  54.051  1.00  0.00     0.018 A 
HETATM   27  C   UNL     1       8.633  22.643  52.995  1.00  0.00     0.027 A 
HETATM   28  C   UNL     1       7.820  23.771  53.151  1.00  0.00     0.060 A 
HETATM   29 CL   UNL     1       7.655  24.847  51.804  1.00  0.00    -0.082 Cl
BRANCH  25  30
HETATM   30  C   UNL     1       8.294  21.007  56.430  1.00  0.00     0.417 C 
HETATM   31  F   UNL     1       8.259  21.626  57.644  1.00  0.00    -0.166 F 
HETATM   32  F   UNL     1       7.315  20.063  56.466  1.00  0.00    -0.166 F 
HETATM   33  F   UNL     1       9.474  20.329  56.397  1.00  0.00    -0.166 F 
ENDBRANCH  25  30
ENDBRANCH   1  23
TORSDOF 6
ENDMDL
MODEL 7
REMARK VINA RESULT:      -9.0      6.099     10.594
REMARK  6 active torsions:
REMARK  status: ('A' for Active; 'I' for Inactive)
REMARK    1  A    between atoms: C_2  and  C_3 
REMARK    2  A    between atoms: C_8  and  N_9 
REMARK       I    between atoms: N_9  and  C_10 
REMARK       I    between atoms: C_10  and  N_11 
REMARK    3  A    between atoms: N_11  and  N_12 
REMARK       I    between atoms: N_12  and  C_13 
REMARK    4  A    between atoms: C_13  and  C_14 
REMARK    5  A    between atoms: C_14  and  N_15 
REMARK       I    between atoms: N_15  and  C_16 
REMARK       I    between atoms: C_16  and  N_17 
REMARK    6  A    between atoms: N_17  and  C_18 
ROOT
HETATM    1  N   UNL     1       8.138  30.966  59.799  1.00  0.00    -0.306 N 
HETATM    2  C   UNL     1       9.053  31.280  58.829  1.00  0.00     0.339 C 
HETATM    3  N   UNL     1       9.101  30.404  57.776  1.00  0.00    -0.249 N 
HETATM    4  O   UNL     1       9.800  32.254  58.825  1.00  0.00    -0.245 OA
HETATM    5  H   UNL     1       7.774  30.022  59.754  1.00  0.00     0.171 HD
HETATM    6  H   UNL     1       9.844  30.542  57.090  1.00  0.00     0.192 HD
ENDROOT
BRANCH   3   7
HETATM    7  N   UNL     1       8.356  29.218  57.665  1.00  0.00    -0.265 N 
HETATM    8  C   UNL     1       8.216  28.742  56.366  1.00  0.00     0.253 C 
HETATM    9  O   UNL     1       8.849  29.220  55.422  1.00  0.00    -0.270 OA
HETATM   10  H   UNL     1       7.529  29.128  58.265  1.00  0.00     0.190 HD
BRANCH   8  11
HETATM   11  C   UNL     1       7.081  27.742  56.148  1.00  0.00     0.228 C 
BRANCH  11  12
HETATM   12  N   UNL     1       7.490  26.354  56.096  1.00  0.00    -0.334 N 
HETATM   13  C   UNL     1       7.649  25.580  57.200  1.00  0.00     0.322 C 
HETATM   14  N   UNL     1       7.797  24.243  57.021  1.00  0.00    -0.287 N 
HETATM   15  O   UNL     1       7.693  26.073  58.328  1.00  0.00    -0.247 OA
HETATM   16  H   UNL     1       7.930  23.687  57.853  1.00  0.00     0.172 HD
HETATM   17  H   UNL     1       7.410  25.865  55.205  1.00  0.00     0.164 HD
BRANCH  14  18
HETATM   18  C   UNL     1       7.774  23.595  55.819  1.00  0.00     0.174 A 
HETATM   19  S   UNL     1       8.970  22.398  55.618  1.00  0.00    -0.062 SA
HETATM   20  C   UNL     1       8.366  22.097  54.039  1.00  0.00     0.072 A 
HETATM   21  C   UNL     1       7.294  22.926  53.787  1.00  0.00     0.126 A 
HETATM   22  N   UNL     1       6.950  23.784  54.816  1.00  0.00    -0.236 NA
ENDBRANCH  14  18
ENDBRANCH  11  12
ENDBRANCH   8  11
ENDBRANCH   3   7
BRANCH   1  23
HETATM   23  C   UNL     1       7.786  31.735  60.934  1.00  0.00     0.059 A 
HETATM   24  C   UNL     1       6.827  32.755  60.888  1.00  0.00     0.047 A 
HETATM   25  C   UNL     1       6.483  33.494  62.035  1.00  0.00     0.050 A 
HETATM   26  C   UNL     1       7.124  33.205  63.247  1.00  0.00     0.018 A 
HETATM   27  C   UNL     1       8.076  32.185  63.313  1.00  0.00     0.027 A 
HETATM   28  C   UNL     1       8.401  31.453  62.166  1.00  0.00     0.060 A 
HETATM   29 CL   UNL     1       9.585  30.197  62.310  1.00  0.00    -0.082 Cl
BRANCH  25  30
HETATM   30  C   UNL     1       5.450  34.592  61.935  1.00  0.00     0.417 C 
HETATM   31  F   UNL     1       5.953  35.829  62.209  1.00  0.00    -0.166 F 
HETATM   32  F   UNL     1       4.902  34.682  60.693  1.00  0.00    -0.166 F 
HETATM   33  F   UNL     1       4.411  34.418  62.797  1.00  0.00    -0.166 F 
ENDBRANCH  25  30
ENDBRANCH   1  23
TORSDOF 6
ENDMDL
MODEL 8
REMARK VINA RESULT:      -8.9      3.093      4.132
REMARK  6 active torsions:
REMARK  status: ('A' for Active; 'I' for Inactive)
REMARK    1  A    between atoms: C_2  and  C_3 
REMARK    2  A    between atoms: C_8  and  N_9 
REMARK       I    between atoms: N_9  and  C_10 
REMARK       I    between atoms: C_10  and  N_11 
REMARK    3  A    between atoms: N_11  and  N_12 
REMARK       I    between atoms: N_12  and  C_13 
REMARK    4  A    between atoms: C_13  and  C_14 
REMARK    5  A    between atoms: C_14  and  N_15 
REMARK       I    between atoms: N_15  and  C_16 
REMARK       I    between atoms: C_16  and  N_17 
REMARK    6  A    between atoms: N_17  and  C_18 
ROOT
HETATM    1  N   UNL     1       5.954  25.078  53.957  1.00  0.00    -0.306 N 
HETATM    2  C   UNL     1       5.695  25.503  52.680  1.00  0.00     0.339 C 
HETATM    3  N   UNL     1       4.736  26.476  52.580  1.00  0.00    -0.249 N 
HETATM    4  O   UNL     1       6.242  25.102  51.657  1.00  0.00    -0.245 OA
HETATM    5  H   UNL     1       5.264  25.347  54.646  1.00  0.00     0.171 HD
HETATM    6  H   UNL     1       4.436  26.739  51.641  1.00  0.00     0.192 HD
ENDROOT
BRANCH   3   7
HETATM    7  N   UNL     1       3.981  26.993  53.647  1.00  0.00    -0.265 N 
HETATM    8  C   UNL     1       4.445  28.203  54.150  1.00  0.00     0.253 C 
HETATM    9  O   UNL     1       5.327  28.852  53.584  1.00  0.00    -0.270 OA
HETATM   10  H   UNL     1       3.637  26.323  54.343  1.00  0.00     0.190 HD
BRANCH   8  11
HETATM   11  C   UNL     1       3.948  28.571  55.548  1.00  0.00     0.228 C 
BRANCH  11  12
HETATM   12  N   UNL     1       4.883  29.331  56.350  1.00  0.00    -0.334 N 
HETATM   13  C   UNL     1       4.505  30.151  57.363  1.00  0.00     0.322 C 
HETATM   14  N   UNL     1       5.470  30.621  58.194  1.00  0.00    -0.287 N 
HETATM   15  O   UNL     1       3.329  30.491  57.508  1.00  0.00    -0.247 OA
HETATM   16  H   UNL     1       5.170  31.242  58.930  1.00  0.00     0.172 HD
HETATM   17  H   UNL     1       5.864  29.056  56.330  1.00  0.00     0.164 HD
BRANCH  14  18
HETATM   18  C   UNL     1       6.799  30.318  58.117  1.00  0.00     0.174 A 
HETATM   19  S   UNL     1       7.818  31.275  59.093  1.00  0.00    -0.062 SA
HETATM   20  C   UNL     1       9.169  30.400  58.495  1.00  0.00     0.072 A 
HETATM   21  C   UNL     1       8.741  29.440  57.602  1.00  0.00     0.126 A 
HETATM   22  N   UNL     1       7.375  29.390  57.390  1.00  0.00    -0.236 NA
ENDBRANCH  14  18
ENDBRANCH  11  12
ENDBRANCH   8  11
ENDBRANCH   3   7
BRANCH   1  23
HETATM   23  C   UNL     1       6.962  24.177  54.377  1.00  0.00     0.059 A 
HETATM   24  C   UNL     1       7.141  22.916  53.791  1.00  0.00     0.047 A 
HETATM   25  C   UNL     1       8.161  22.045  54.217  1.00  0.00     0.050 A 
HETATM   26  C   UNL     1       9.009  22.449  55.257  1.00  0.00     0.018 A 
HETATM   27  C   UNL     1       8.850  23.704  55.847  1.00  0.00     0.027 A 
HETATM   28  C   UNL     1       7.837  24.564  55.406  1.00  0.00     0.060 A 
HETATM   29 CL   UNL     1       7.692  26.110  56.172  1.00  0.00    -0.082 Cl
BRANCH  25  30
HETATM   30  C   UNL     1       8.309  20.692  53.561  1.00  0.00     0.417 C 
HETATM   31  F   UNL     1       7.206  20.313  52.856  1.00  0.00    -0.166 F 
HETATM   32  F   UNL     1       9.345  20.648  52.681  1.00  0.00    -0.166 F 
HETATM   33  F   UNL     1       8.532  19.694  54.460  1.00  0.00    -0.166 F 
ENDBRANCH  25  30
ENDBRANCH   1  23
TORSDOF 6
ENDMDL
MODEL 9
REMARK VINA RESULT:      -8.8      5.561      8.192
REMARK  6 active torsions:
REMARK  status: ('A' for Active; 'I' for Inactive)
REMARK    1  A    between atoms: C_2  and  C_3 
REMARK    2  A    between atoms: C_8  and  N_9 
REMARK       I    between atoms: N_9  and  C_10 
REMARK       I    between atoms: C_10  and  N_11 
REMARK    3  A    between atoms: N_11  and  N_12 
REMARK       I    between atoms: N_12  and  C_13 
REMARK    4  A    between atoms: C_13  and  C_14 
REMARK    5  A    between atoms: C_14  and  N_15 
REMARK       I    between atoms: N_15  and  C_16 
REMARK       I    between atoms: C_16  and  N_17 
REMARK    6  A    between atoms: N_17  and  C_18 
ROOT
HETATM    1  N   UNL     1       6.414  26.059  55.376  1.00  0.00    -0.306 N 
HETATM    2  C   UNL     1       5.247  26.401  56.006  1.00  0.00     0.339 C 
HETATM    3  N   UNL     1       4.660  27.552  55.548  1.00  0.00    -0.249 N 
HETATM    4  O   UNL     1       4.701  25.777  56.911  1.00  0.00    -0.245 OA
HETATM    5  H   UNL     1       6.832  26.794  54.819  1.00  0.00     0.171 HD
HETATM    6  H   UNL     1       3.852  27.899  56.065  1.00  0.00     0.192 HD
ENDROOT
BRANCH   3   7
HETATM    7  N   UNL     1       5.191  28.405  54.565  1.00  0.00    -0.265 N 
HETATM    8  C   UNL     1       4.470  28.439  53.378  1.00  0.00     0.253 C 
HETATM    9  O   UNL     1       3.361  27.910  53.270  1.00  0.00    -0.270 OA
HETATM   10  H   UNL     1       6.212  28.426  54.468  1.00  0.00     0.190 HD
BRANCH   8  11
HETATM   11  C   UNL     1       5.222  28.983  52.163  1.00  0.00     0.228 C 
BRANCH  11  12
HETATM   12  N   UNL     1       5.048  28.222  50.944  1.00  0.00    -0.334 N 
HETATM   13  C   UNL     1       5.501  26.954  50.784  1.00  0.00     0.322 C 
HETATM   14  N   UNL     1       5.074  26.259  49.698  1.00  0.00    -0.287 N 
HETATM   15  O   UNL     1       6.303  26.454  51.575  1.00  0.00    -0.247 OA
HETATM   16  H   UNL     1       5.436  25.324  49.589  1.00  0.00     0.172 HD
HETATM   17  H   UNL     1       4.347  28.542  50.277  1.00  0.00     0.164 HD
BRANCH  14  18
HETATM   18  C   UNL     1       4.199  26.717  48.756  1.00  0.00     0.174 A 
HETATM   19  S   UNL     1       3.173  25.535  48.084  1.00  0.00    -0.062 SA
HETATM   20  C   UNL     1       2.471  26.746  47.090  1.00  0.00     0.072 A 
HETATM   21  C   UNL     1       3.067  27.962  47.350  1.00  0.00     0.126 A 
HETATM   22  N   UNL     1       4.058  27.945  48.315  1.00  0.00    -0.236 NA
ENDBRANCH  14  18
ENDBRANCH  11  12
ENDBRANCH   8  11
ENDBRANCH   3   7
BRANCH   1  23
HETATM   23  C   UNL     1       7.176  24.879  55.553  1.00  0.00     0.059 A 
HETATM   24  C   UNL     1       7.224  23.859  54.593  1.00  0.00     0.047 A 
HETATM   25  C   UNL     1       8.003  22.703  54.786  1.00  0.00     0.050 A 
HETATM   26  C   UNL     1       8.738  22.569  55.972  1.00  0.00     0.018 A 
HETATM   27  C   UNL     1       8.707  23.579  56.936  1.00  0.00     0.027 A 
HETATM   28  C   UNL     1       7.936  24.727  56.725  1.00  0.00     0.060 A 
HETATM   29 CL   UNL     1       7.942  25.948  57.953  1.00  0.00    -0.082 Cl
BRANCH  25  30
HETATM   30  C   UNL     1       8.016  21.625  53.727  1.00  0.00     0.417 C 
HETATM   31  F   UNL     1       7.388  21.997  52.575  1.00  0.00    -0.166 F 
HETATM   32  F   UNL     1       9.277  21.267  53.362  1.00  0.00    -0.166 F 
HETATM   33  F   UNL     1       7.398  20.482  54.131  1.00  0.00    -0.166 F 
ENDBRANCH  25  30
ENDBRANCH   1  23
TORSDOF 6
ENDMDL
MODEL 10
REMARK VINA RESULT:      -8.8      5.907     10.483
REMARK  6 active torsions:
REMARK  status: ('A' for Active; 'I' for Inactive)
REMARK    1  A    between atoms: C_2  and  C_3 
REMARK    2  A    between atoms: C_8  and  N_9 
REMARK       I    between atoms: N_9  and  C_10 
REMARK       I    between atoms: C_10  and  N_11 
REMARK    3  A    between atoms: N_11  and  N_12 
REMARK       I    between atoms: N_12  and  C_13 
REMARK    4  A    between atoms: C_13  and  C_14 
REMARK    5  A    between atoms: C_14  and  N_15 
REMARK       I    between atoms: N_15  and  C_16 
REMARK       I    between atoms: C_16  and  N_17 
REMARK    6  A    between atoms: N_17  and  C_18 
ROOT
HETATM    1  N   UNL     1       7.398  31.199  59.685  1.00  0.00    -0.306 N 
HETATM    2  C   UNL     1       8.593  31.392  59.043  1.00  0.00     0.339 C 
HETATM    3  N   UNL     1       8.963  30.378  58.197  1.00  0.00    -0.249 N 
HETATM    4  O   UNL     1       9.326  32.369  59.154  1.00  0.00    -0.245 OA
HETATM    5  H   UNL     1       7.043  30.251  59.652  1.00  0.00     0.171 HD
HETATM    6  H   UNL     1       9.896  30.433  57.787  1.00  0.00     0.192 HD
ENDROOT
BRANCH   3   7
HETATM    7  N   UNL     1       8.264  29.174  58.009  1.00  0.00    -0.265 N 
HETATM    8  C   UNL     1       8.083  28.812  56.680  1.00  0.00     0.253 C 
HETATM    9  O   UNL     1       8.650  29.402  55.758  1.00  0.00    -0.270 OA
HETATM   10  H   UNL     1       7.471  28.993  58.634  1.00  0.00     0.190 HD
BRANCH   8  11
HETATM   11  C   UNL     1       6.981  27.785  56.419  1.00  0.00     0.228 C 
BRANCH  11  12
HETATM   12  N   UNL     1       7.446  26.434  56.188  1.00  0.00    -0.334 N 
HETATM   13  C   UNL     1       7.750  25.567  57.186  1.00  0.00     0.322 C 
HETATM   14  N   UNL     1       7.941  24.263  56.859  1.00  0.00    -0.287 N 
HETATM   15  O   UNL     1       7.883  25.950  58.350  1.00  0.00    -0.247 OA
HETATM   16  H   UNL     1       8.182  23.638  57.613  1.00  0.00     0.172 HD
HETATM   17  H   UNL     1       7.301  26.030  55.263  1.00  0.00     0.164 HD
BRANCH  14  18
HETATM   18  C   UNL     1       7.829  23.735  55.605  1.00  0.00     0.174 A 
HETATM   19  S   UNL     1       9.030  22.600  55.186  1.00  0.00    -0.062 SA
HETATM   20  C   UNL     1       8.298  22.436  53.641  1.00  0.00     0.072 A 
HETATM   21  C   UNL     1       7.190  23.253  53.564  1.00  0.00     0.126 A 
HETATM   22  N   UNL     1       6.917  23.996  54.698  1.00  0.00    -0.236 NA
ENDBRANCH  14  18
ENDBRANCH  11  12
ENDBRANCH   8  11
ENDBRANCH   3   7
BRANCH   1  23
HETATM   23  C   UNL     1       6.711  32.112  60.521  1.00  0.00     0.059 A 
HETATM   24  C   UNL     1       7.045  32.301  61.869  1.00  0.00     0.047 A 
HETATM   25  C   UNL     1       6.357  33.228  62.674  1.00  0.00     0.050 A 
HETATM   26  C   UNL     1       5.309  33.970  62.112  1.00  0.00     0.018 A 
HETATM   27  C   UNL     1       4.969  33.799  60.769  1.00  0.00     0.027 A 
HETATM   28  C   UNL     1       5.668  32.881  59.978  1.00  0.00     0.060 A 
HETATM   29 CL   UNL     1       5.205  32.718  58.317  1.00  0.00    -0.082 Cl
BRANCH  25  30
HETATM   30  C   UNL     1       6.746  33.391  64.125  1.00  0.00     0.417 C 
HETATM   31  F   UNL     1       5.773  32.986  64.990  1.00  0.00    -0.166 F 
HETATM   32  F   UNL     1       7.855  32.674  64.452  1.00  0.00    -0.166 F 
HETATM   33  F   UNL     1       7.017  34.683  64.455  1.00  0.00    -0.166 F 
ENDBRANCH  25  30
ENDBRANCH   1  23
TORSDOF 6
ENDMDL
