MODEL 1
REMARK VINA RESULT:      -8.2      0.000      0.000
REMARK  7 active torsions:
REMARK  status: ('A' for Active; 'I' for Inactive)
REMARK    1  A    between atoms: O_2  and  C_3 
REMARK    2  A    between atoms: C_4  and  O_5 
REMARK    3  A    between atoms: C_9  and  C_10 
REMARK    4  A    between atoms: C_10  and  N_11 
REMARK    5  A    between atoms: C_14  and  C_15 
REMARK    6  A    between atoms: C_15  and  N_16 
REMARK    7  A    between atoms: N_16  and  C_17 
ROOT
HETATM    1  N   UNL     1       7.445  26.771  56.709  1.00  0.00    -0.067 N 
HETATM    2  H   UNL     1       7.455  26.700  55.680  1.00  0.00     0.280 HD
HETATM    3  C   UNL     1       8.500  27.791  57.096  1.00  0.00     0.241 C 
HETATM    4  C   UNL     1       7.758  28.809  57.961  1.00  0.00     0.031 C 
HETATM    5  C   UNL     1       6.365  28.808  57.340  1.00  0.00     0.035 C 
HETATM    6  C   UNL     1       6.097  27.329  57.108  1.00  0.00     0.235 C 
ENDROOT
BRANCH   1   7
HETATM    7  C   UNL     1       7.681  25.365  57.214  1.00  0.00     0.273 C 
BRANCH   7   8
HETATM    8  C   UNL     1       7.834  24.362  56.101  1.00  0.00    -0.028 A 
HETATM    9  C   UNL     1       8.035  23.004  56.399  1.00  0.00     0.031 A 
HETATM   10  C   UNL     1       8.135  22.062  55.373  1.00  0.00     0.047 A 
HETATM   11  C   UNL     1       8.041  22.473  54.045  1.00  0.00     0.116 A 
HETATM   12 BR   UNL     1       8.384  20.244  55.842  1.00  0.00    -0.048 Br
HETATM   13  C   UNL     1       7.862  23.824  53.724  1.00  0.00     0.103 A 
HETATM   14  C   UNL     1       7.759  24.764  54.753  1.00  0.00     0.048 A 
BRANCH  11  15
HETATM   15  O   UNL     1       8.125  21.553  53.033  1.00  0.00    -0.357 OA
HETATM   16  H   UNL     1       8.289  22.053  52.209  1.00  0.00     0.218 HD
ENDBRANCH  11  15
BRANCH  13  17
HETATM   17  O   UNL     1       7.784  24.091  52.383  1.00  0.00    -0.353 OA
HETATM   18  C   UNL     1       7.096  25.270  51.981  1.00  0.00     0.210 C 
ENDBRANCH  13  17
ENDBRANCH   7   8
ENDBRANCH   1   7
BRANCH   4  19
HETATM   19  C   UNL     1       8.454  30.175  57.975  1.00  0.00     0.127 C 
BRANCH  19  20
HETATM   20  N   UNL     1       7.656  31.168  58.691  1.00  0.00    -0.376 N 
HETATM   21  H   UNL     1       7.104  31.808  58.131  1.00  0.00     0.161 HD
BRANCH  20  22
HETATM   22  C   UNL     1       7.899  31.480  60.016  1.00  0.00     0.100 A 
HETATM   23  N   UNL     1       6.868  31.426  60.880  1.00  0.00    -0.353 N 
HETATM   24  H   UNL     1       5.957  31.162  60.521  1.00  0.00     0.166 HD
HETATM   25  C   UNL     1       6.977  31.683  62.194  1.00  0.00     0.089 A 
HETATM   26  C   UNL     1       8.203  32.024  62.737  1.00  0.00     0.017 A 
HETATM   27  C   UNL     1       9.306  32.086  61.899  1.00  0.00     0.005 A 
HETATM   28  C   UNL     1       9.157  31.810  60.540  1.00  0.00     0.048 A 
ENDBRANCH  20  22
ENDBRANCH  19  20
ENDBRANCH   4  19
TORSDOF 7
ENDMDL
MODEL 2
REMARK VINA RESULT:      -8.2      1.463      2.306
REMARK  7 active torsions:
REMARK  status: ('A' for Active; 'I' for Inactive)
REMARK    1  A    between atoms: O_2  and  C_3 
REMARK    2  A    between atoms: C_4  and  O_5 
REMARK    3  A    between atoms: C_9  and  C_10 
REMARK    4  A    between atoms: C_10  and  N_11 
REMARK    5  A    between atoms: C_14  and  C_15 
REMARK    6  A    between atoms: C_15  and  N_16 
REMARK    7  A    between atoms: N_16  and  C_17 
ROOT
HETATM    1  N   UNL     1       7.361  27.117  56.863  1.00  0.00    -0.067 N 
HETATM    2  H   UNL     1       7.428  27.042  55.837  1.00  0.00     0.280 HD
HETATM    3  C   UNL     1       8.405  28.127  57.304  1.00  0.00     0.241 C 
HETATM    4  C   UNL     1       7.628  29.156  58.123  1.00  0.00     0.031 C 
HETATM    5  C   UNL     1       6.272  29.168  57.427  1.00  0.00     0.035 C 
HETATM    6  C   UNL     1       6.000  27.691  57.185  1.00  0.00     0.235 C 
ENDROOT
BRANCH   1   7
HETATM    7  C   UNL     1       7.554  25.710  57.385  1.00  0.00     0.273 C 
BRANCH   7   8
HETATM    8  C   UNL     1       7.842  24.716  56.292  1.00  0.00    -0.028 A 
HETATM    9  C   UNL     1       7.652  25.074  54.947  1.00  0.00     0.031 A 
HETATM   10  C   UNL     1       7.959  24.172  53.925  1.00  0.00     0.047 A 
HETATM   11  C   UNL     1       8.450  22.907  54.242  1.00  0.00     0.116 A 
HETATM   12 BR   UNL     1       7.700  24.723  52.132  1.00  0.00    -0.048 Br
HETATM   13  C   UNL     1       8.627  22.521  55.576  1.00  0.00     0.103 A 
HETATM   14  C   UNL     1       8.323  23.427  56.597  1.00  0.00     0.048 A 
BRANCH  11  15
HETATM   15  O   UNL     1       8.765  22.022  53.245  1.00  0.00    -0.357 OA
HETATM   16  H   UNL     1       8.270  22.303  52.450  1.00  0.00     0.218 HD
ENDBRANCH  11  15
BRANCH  13  17
HETATM   17  O   UNL     1       9.117  21.254  55.749  1.00  0.00    -0.353 OA
HETATM   18  C   UNL     1       8.216  20.251  56.201  1.00  0.00     0.210 C 
ENDBRANCH  13  17
ENDBRANCH   7   8
ENDBRANCH   1   7
BRANCH   4  19
HETATM   19  C   UNL     1       8.338  30.514  58.171  1.00  0.00     0.127 C 
BRANCH  19  20
HETATM   20  N   UNL     1       7.538  31.504  58.890  1.00  0.00    -0.376 N 
HETATM   21  H   UNL     1       7.058  32.202  58.333  1.00  0.00     0.161 HD
BRANCH  20  22
HETATM   22  C   UNL     1       7.701  31.727  60.244  1.00  0.00     0.100 A 
HETATM   23  N   UNL     1       6.616  31.635  61.038  1.00  0.00    -0.353 N 
HETATM   24  H   UNL     1       5.727  31.409  60.607  1.00  0.00     0.166 HD
HETATM   25  C   UNL     1       6.645  31.806  62.369  1.00  0.00     0.089 A 
HETATM   26  C   UNL     1       7.839  32.091  63.009  1.00  0.00     0.017 A 
HETATM   27  C   UNL     1       8.993  32.189  62.247  1.00  0.00     0.005 A 
HETATM   28  C   UNL     1       8.927  32.003  60.866  1.00  0.00     0.048 A 
ENDBRANCH  20  22
ENDBRANCH  19  20
ENDBRANCH   4  19
TORSDOF 7
ENDMDL
MODEL 3
REMARK VINA RESULT:      -8.0      4.435      9.129
REMARK  7 active torsions:
REMARK  status: ('A' for Active; 'I' for Inactive)
REMARK    1  A    between atoms: O_2  and  C_3 
REMARK    2  A    between atoms: C_4  and  O_5 
REMARK    3  A    between atoms: C_9  and  C_10 
REMARK    4  A    between atoms: C_10  and  N_11 
REMARK    5  A    between atoms: C_14  and  C_15 
REMARK    6  A    between atoms: C_15  and  N_16 
REMARK    7  A    between atoms: N_16  and  C_17 
ROOT
HETATM    1  N   UNL     1       6.418  27.228  56.597  1.00  0.00    -0.067 N 
HETATM    2  H   UNL     1       7.354  27.165  57.027  1.00  0.00     0.280 HD
HETATM    3  C   UNL     1       6.567  26.807  55.146  1.00  0.00     0.241 C 
HETATM    4  C   UNL     1       5.542  25.690  54.958  1.00  0.00     0.031 C 
HETATM    5  C   UNL     1       5.533  25.024  56.329  1.00  0.00     0.035 C 
HETATM    6  C   UNL     1       5.538  26.208  57.283  1.00  0.00     0.235 C 
ENDROOT
BRANCH   1   7
HETATM    7  C   UNL     1       5.965  28.654  56.819  1.00  0.00     0.273 C 
BRANCH   7   8
HETATM    8  C   UNL     1       7.042  29.523  57.412  1.00  0.00    -0.028 A 
HETATM    9  C   UNL     1       8.391  29.281  57.105  1.00  0.00     0.031 A 
HETATM   10  C   UNL     1       9.393  30.109  57.616  1.00  0.00     0.047 A 
HETATM   11  C   UNL     1       9.052  31.179  58.441  1.00  0.00     0.116 A 
HETATM   12 BR   UNL     1      11.190  29.741  57.148  1.00  0.00    -0.048 Br
HETATM   13  C   UNL     1       7.716  31.427  58.777  1.00  0.00     0.103 A 
HETATM   14  C   UNL     1       6.715  30.598  58.262  1.00  0.00     0.048 A 
BRANCH  11  15
HETATM   15  O   UNL     1      10.028  32.003  58.936  1.00  0.00    -0.357 OA
HETATM   16  H   UNL     1      10.084  32.770  58.331  1.00  0.00     0.218 HD
ENDBRANCH  11  15
BRANCH  13  17
HETATM   17  O   UNL     1       7.519  32.509  59.593  1.00  0.00    -0.353 OA
HETATM   18  C   UNL     1       6.813  32.302  60.810  1.00  0.00     0.210 C 
ENDBRANCH  13  17
ENDBRANCH   7   8
ENDBRANCH   1   7
BRANCH   4  19
HETATM   19  C   UNL     1       5.905  24.761  53.794  1.00  0.00     0.127 C 
BRANCH  19  20
HETATM   20  N   UNL     1       7.291  24.306  53.893  1.00  0.00    -0.376 N 
HETATM   21  H   UNL     1       8.012  24.959  53.611  1.00  0.00     0.161 HD
BRANCH  20  22
HETATM   22  C   UNL     1       7.611  22.966  54.006  1.00  0.00     0.100 A 
HETATM   23  N   UNL     1       7.618  22.416  55.236  1.00  0.00    -0.353 N 
HETATM   24  H   UNL     1       7.390  23.010  56.026  1.00  0.00     0.166 HD
HETATM   25  C   UNL     1       7.889  21.124  55.477  1.00  0.00     0.089 A 
HETATM   26  C   UNL     1       8.181  20.266  54.431  1.00  0.00     0.017 A 
HETATM   27  C   UNL     1       8.180  20.770  53.140  1.00  0.00     0.005 A 
HETATM   28  C   UNL     1       7.891  22.118  52.925  1.00  0.00     0.048 A 
ENDBRANCH  20  22
ENDBRANCH  19  20
ENDBRANCH   4  19
TORSDOF 7
ENDMDL
MODEL 4
REMARK VINA RESULT:      -8.0      1.659      2.533
REMARK  7 active torsions:
REMARK  status: ('A' for Active; 'I' for Inactive)
REMARK    1  A    between atoms: O_2  and  C_3 
REMARK    2  A    between atoms: C_4  and  O_5 
REMARK    3  A    between atoms: C_9  and  C_10 
REMARK    4  A    between atoms: C_10  and  N_11 
REMARK    5  A    between atoms: C_14  and  C_15 
REMARK    6  A    between atoms: C_15  and  N_16 
REMARK    7  A    between atoms: N_16  and  C_17 
ROOT
HETATM    1  N   UNL     1       8.506  28.578  56.826  1.00  0.00    -0.067 N 
HETATM    2  H   UNL     1       8.815  27.603  56.961  1.00  0.00     0.280 HD
HETATM    3  C   UNL     1       8.010  29.077  58.171  1.00  0.00     0.241 C 
HETATM    4  C   UNL     1       8.804  30.358  58.426  1.00  0.00     0.031 C 
HETATM    5  C   UNL     1      10.141  30.049  57.761  1.00  0.00     0.035 C 
HETATM    6  C   UNL     1       9.728  29.389  56.456  1.00  0.00     0.235 C 
ENDROOT
BRANCH   1   7
HETATM    7  C   UNL     1       7.469  28.526  55.726  1.00  0.00     0.273 C 
BRANCH   7   8
HETATM    8  C   UNL     1       7.441  27.201  55.012  1.00  0.00    -0.028 A 
HETATM    9  C   UNL     1       7.674  26.012  55.723  1.00  0.00     0.031 A 
HETATM   10  C   UNL     1       7.607  24.776  55.076  1.00  0.00     0.047 A 
HETATM   11  C   UNL     1       7.313  24.722  53.715  1.00  0.00     0.116 A 
HETATM   12 BR   UNL     1       7.912  23.210  56.096  1.00  0.00    -0.048 Br
HETATM   13  C   UNL     1       7.097  25.895  52.982  1.00  0.00     0.103 A 
HETATM   14  C   UNL     1       7.162  27.131  53.632  1.00  0.00     0.048 A 
BRANCH  11  15
HETATM   15  O   UNL     1       7.233  23.513  53.077  1.00  0.00    -0.357 OA
HETATM   16  H   UNL     1       6.988  22.851  53.754  1.00  0.00     0.218 HD
ENDBRANCH  11  15
BRANCH  13  17
HETATM   17  O   UNL     1       6.816  25.701  51.656  1.00  0.00    -0.353 OA
HETATM   18  C   UNL     1       5.518  26.058  51.195  1.00  0.00     0.210 C 
ENDBRANCH  13  17
ENDBRANCH   7   8
ENDBRANCH   1   7
BRANCH   4  19
HETATM   19  C   UNL     1       8.890  30.698  59.918  1.00  0.00     0.127 C 
BRANCH  19  20
HETATM   20  N   UNL     1       7.559  30.820  60.511  1.00  0.00    -0.376 N 
HETATM   21  H   UNL     1       6.768  30.599  59.918  1.00  0.00     0.161 HD
BRANCH  20  22
HETATM   22  C   UNL     1       7.343  31.537  61.673  1.00  0.00     0.100 A 
HETATM   23  N   UNL     1       6.077  31.659  62.117  1.00  0.00    -0.353 N 
HETATM   24  H   UNL     1       5.337  31.223  61.578  1.00  0.00     0.166 HD
HETATM   25  C   UNL     1       5.738  32.309  63.242  1.00  0.00     0.089 A 
HETATM   26  C   UNL     1       6.713  32.901  64.026  1.00  0.00     0.017 A 
HETATM   27  C   UNL     1       8.036  32.800  63.627  1.00  0.00     0.005 A 
HETATM   28  C   UNL     1       8.354  32.115  62.454  1.00  0.00     0.048 A 
ENDBRANCH  20  22
ENDBRANCH  19  20
ENDBRANCH   4  19
TORSDOF 7
ENDMDL
MODEL 5
REMARK VINA RESULT:      -7.9      2.266      3.425
REMARK  7 active torsions:
REMARK  status: ('A' for Active; 'I' for Inactive)
REMARK    1  A    between atoms: O_2  and  C_3 
REMARK    2  A    between atoms: C_4  and  O_5 
REMARK    3  A    between atoms: C_9  and  C_10 
REMARK    4  A    between atoms: C_10  and  N_11 
REMARK    5  A    between atoms: C_14  and  C_15 
REMARK    6  A    between atoms: C_15  and  N_16 
REMARK    7  A    between atoms: N_16  and  C_17 
ROOT
HETATM    1  N   UNL     1       8.542  28.866  57.101  1.00  0.00    -0.067 N 
HETATM    2  H   UNL     1       8.755  27.883  57.331  1.00  0.00     0.280 HD
HETATM    3  C   UNL     1       8.098  29.538  58.388  1.00  0.00     0.241 C 
HETATM    4  C   UNL     1       9.011  30.755  58.526  1.00  0.00     0.031 C 
HETATM    5  C   UNL     1      10.312  30.257  57.905  1.00  0.00     0.035 C 
HETATM    6  C   UNL     1       9.835  29.517  56.665  1.00  0.00     0.235 C 
ENDROOT
BRANCH   1   7
HETATM    7  C   UNL     1       7.502  28.809  56.004  1.00  0.00     0.273 C 
BRANCH   7   8
HETATM    8  C   UNL     1       7.275  27.413  55.486  1.00  0.00    -0.028 A 
HETATM    9  C   UNL     1       6.986  27.204  54.127  1.00  0.00     0.031 A 
HETATM   10  C   UNL     1       6.817  25.909  53.631  1.00  0.00     0.047 A 
HETATM   11  C   UNL     1       6.929  24.819  54.491  1.00  0.00     0.116 A 
HETATM   12 BR   UNL     1       6.450  25.694  51.786  1.00  0.00    -0.048 Br
HETATM   13  C   UNL     1       7.195  25.004  55.853  1.00  0.00     0.103 A 
HETATM   14  C   UNL     1       7.367  26.301  56.347  1.00  0.00     0.048 A 
BRANCH  11  15
HETATM   15  O   UNL     1       6.777  23.545  54.010  1.00  0.00    -0.357 OA
HETATM   16  H   UNL     1       6.555  23.626  53.061  1.00  0.00     0.218 HD
ENDBRANCH  11  15
BRANCH  13  17
HETATM   17  O   UNL     1       7.281  23.850  56.585  1.00  0.00    -0.353 OA
HETATM   18  C   UNL     1       8.549  23.503  57.128  1.00  0.00     0.210 C 
ENDBRANCH  13  17
ENDBRANCH   7   8
ENDBRANCH   1   7
BRANCH   4  19
HETATM   19  C   UNL     1       9.133  31.226  59.980  1.00  0.00     0.127 C 
BRANCH  19  20
HETATM   20  N   UNL     1       7.995  30.773  60.779  1.00  0.00    -0.376 N 
HETATM   21  H   UNL     1       7.394  30.068  60.369  1.00  0.00     0.161 HD
BRANCH  20  22
HETATM   22  C   UNL     1       7.532  31.496  61.862  1.00  0.00     0.100 A 
HETATM   23  N   UNL     1       6.203  31.533  62.079  1.00  0.00    -0.353 N 
HETATM   24  H   UNL     1       5.600  31.031  61.437  1.00  0.00     0.166 HD
HETATM   25  C   UNL     1       5.629  32.181  63.106  1.00  0.00     0.089 A 
HETATM   26  C   UNL     1       6.411  32.861  64.024  1.00  0.00     0.017 A 
HETATM   27  C   UNL     1       7.786  32.851  63.861  1.00  0.00     0.005 A 
HETATM   28  C   UNL     1       8.350  32.166  62.783  1.00  0.00     0.048 A 
ENDBRANCH  20  22
ENDBRANCH  19  20
ENDBRANCH   4  19
TORSDOF 7
ENDMDL
MODEL 6
REMARK VINA RESULT:      -7.8      4.541      9.167
REMARK  7 active torsions:
REMARK  status: ('A' for Active; 'I' for Inactive)
REMARK    1  A    between atoms: O_2  and  C_3 
REMARK    2  A    between atoms: C_4  and  O_5 
REMARK    3  A    between atoms: C_9  and  C_10 
REMARK    4  A    between atoms: C_10  and  N_11 
REMARK    5  A    between atoms: C_14  and  C_15 
REMARK    6  A    between atoms: C_15  and  N_16 
REMARK    7  A    between atoms: N_16  and  C_17 
ROOT
HETATM    1  N   UNL     1       6.823  27.368  56.306  1.00  0.00    -0.067 N 
HETATM    2  H   UNL     1       7.750  27.422  56.755  1.00  0.00     0.280 HD
HETATM    3  C   UNL     1       7.041  26.852  54.896  1.00  0.00     0.241 C 
HETATM    4  C   UNL     1       6.121  25.637  54.780  1.00  0.00     0.031 C 
HETATM    5  C   UNL     1       6.139  25.081  56.200  1.00  0.00     0.035 C 
HETATM    6  C   UNL     1       6.019  26.331  57.057  1.00  0.00     0.235 C 
ENDROOT
BRANCH   1   7
HETATM    7  C   UNL     1       6.242  28.761  56.408  1.00  0.00     0.273 C 
BRANCH   7   8
HETATM    8  C   UNL     1       7.102  29.694  57.219  1.00  0.00    -0.028 A 
HETATM    9  C   UNL     1       6.519  30.519  58.196  1.00  0.00     0.031 A 
HETATM   10  C   UNL     1       7.315  31.356  58.983  1.00  0.00     0.047 A 
HETATM   11  C   UNL     1       8.695  31.377  58.792  1.00  0.00     0.116 A 
HETATM   12 BR   UNL     1       6.470  32.426  60.296  1.00  0.00    -0.048 Br
HETATM   13  C   UNL     1       9.295  30.580  57.809  1.00  0.00     0.103 A 
HETATM   14  C   UNL     1       8.497  29.742  57.026  1.00  0.00     0.048 A 
BRANCH  11  15
HETATM   15  O   UNL     1       9.483  32.186  59.567  1.00  0.00    -0.357 OA
HETATM   16  H   UNL     1       9.710  31.675  60.369  1.00  0.00     0.218 HD
ENDBRANCH  11  15
BRANCH  13  17
HETATM   17  O   UNL     1      10.657  30.696  57.728  1.00  0.00    -0.353 OA
HETATM   18  C   UNL     1      11.376  29.636  57.107  1.00  0.00     0.210 C 
ENDBRANCH  13  17
ENDBRANCH   7   8
ENDBRANCH   1   7
BRANCH   4  19
HETATM   19  C   UNL     1       6.590  24.656  53.700  1.00  0.00     0.127 C 
BRANCH  19  20
HETATM   20  N   UNL     1       7.937  24.163  53.982  1.00  0.00    -0.376 N 
HETATM   21  H   UNL     1       8.704  24.811  53.846  1.00  0.00     0.161 HD
BRANCH  20  22
HETATM   22  C   UNL     1       8.214  22.811  54.072  1.00  0.00     0.100 A 
HETATM   23  N   UNL     1       8.772  22.352  55.208  1.00  0.00    -0.353 N 
HETATM   24  H   UNL     1       8.969  23.018  55.947  1.00  0.00     0.166 HD
HETATM   25  C   UNL     1       9.068  21.061  55.429  1.00  0.00     0.089 A 
HETATM   26  C   UNL     1       8.797  20.109  54.461  1.00  0.00     0.017 A 
HETATM   27  C   UNL     1       8.212  20.518  53.273  1.00  0.00     0.005 A 
HETATM   28  C   UNL     1       7.915  21.868  53.079  1.00  0.00     0.048 A 
ENDBRANCH  20  22
ENDBRANCH  19  20
ENDBRANCH   4  19
TORSDOF 7
ENDMDL
MODEL 7
REMARK VINA RESULT:      -7.7      5.117      8.996
REMARK  7 active torsions:
REMARK  status: ('A' for Active; 'I' for Inactive)
REMARK    1  A    between atoms: O_2  and  C_3 
REMARK    2  A    between atoms: C_4  and  O_5 
REMARK    3  A    between atoms: C_9  and  C_10 
REMARK    4  A    between atoms: C_10  and  N_11 
REMARK    5  A    between atoms: C_14  and  C_15 
REMARK    6  A    between atoms: C_15  and  N_16 
REMARK    7  A    between atoms: N_16  and  C_17 
ROOT
HETATM    1  N   UNL     1       5.912  25.958  52.414  1.00  0.00    -0.067 N 
HETATM    2  H   UNL     1       5.429  25.050  52.492  1.00  0.00     0.280 HD
HETATM    3  C   UNL     1       5.385  26.635  51.162  1.00  0.00     0.241 C 
HETATM    4  C   UNL     1       4.899  28.004  51.636  1.00  0.00     0.031 C 
HETATM    5  C   UNL     1       4.406  27.702  53.047  1.00  0.00     0.035 C 
HETATM    6  C   UNL     1       5.493  26.795  53.601  1.00  0.00     0.235 C 
ENDROOT
BRANCH   1   7
HETATM    7  C   UNL     1       7.389  25.631  52.406  1.00  0.00     0.273 C 
BRANCH   7   8
HETATM    8  C   UNL     1       7.742  24.501  53.337  1.00  0.00    -0.028 A 
HETATM    9  C   UNL     1       7.844  23.189  52.845  1.00  0.00     0.031 A 
HETATM   10  C   UNL     1       8.213  22.142  53.693  1.00  0.00     0.047 A 
HETATM   11  C   UNL     1       8.476  22.400  55.037  1.00  0.00     0.116 A 
HETATM   12 BR   UNL     1       8.353  20.400  52.963  1.00  0.00    -0.048 Br
HETATM   13  C   UNL     1       8.360  23.696  55.553  1.00  0.00     0.103 A 
HETATM   14  C   UNL     1       7.993  24.743  54.702  1.00  0.00     0.048 A 
BRANCH  11  15
HETATM   15  O   UNL     1       8.851  21.381  55.871  1.00  0.00    -0.357 OA
HETATM   16  H   UNL     1       8.358  20.586  55.587  1.00  0.00     0.218 HD
ENDBRANCH  11  15
BRANCH  13  17
HETATM   17  O   UNL     1       8.648  23.812  56.887  1.00  0.00    -0.353 OA
HETATM   18  C   UNL     1       8.482  25.089  57.492  1.00  0.00     0.210 C 
ENDBRANCH  13  17
ENDBRANCH   7   8
ENDBRANCH   1   7
BRANCH   4  19
HETATM   19  C   UNL     1       3.842  28.600  50.700  1.00  0.00     0.127 C 
BRANCH  19  20
HETATM   20  N   UNL     1       3.178  27.556  49.920  1.00  0.00    -0.376 N 
HETATM   21  H   UNL     1       3.475  26.601  50.080  1.00  0.00     0.161 HD
BRANCH  20  22
HETATM   22  C   UNL     1       2.457  27.848  48.777  1.00  0.00     0.100 A 
HETATM   23  N   UNL     1       1.405  27.064  48.472  1.00  0.00    -0.353 N 
HETATM   24  H   UNL     1       1.189  26.292  49.093  1.00  0.00     0.166 HD
HETATM   25  C   UNL     1       0.613  27.255  47.405  1.00  0.00     0.089 A 
HETATM   26  C   UNL     1       0.851  28.310  46.541  1.00  0.00     0.017 A 
HETATM   27  C   UNL     1       1.913  29.159  46.807  1.00  0.00     0.005 A 
HETATM   28  C   UNL     1       2.715  28.933  47.927  1.00  0.00     0.048 A 
ENDBRANCH  20  22
ENDBRANCH  19  20
ENDBRANCH   4  19
TORSDOF 7
ENDMDL
MODEL 8
REMARK VINA RESULT:      -7.7      4.653      9.339
REMARK  7 active torsions:
REMARK  status: ('A' for Active; 'I' for Inactive)
REMARK    1  A    between atoms: O_2  and  C_3 
REMARK    2  A    between atoms: C_4  and  O_5 
REMARK    3  A    between atoms: C_9  and  C_10 
REMARK    4  A    between atoms: C_10  and  N_11 
REMARK    5  A    between atoms: C_14  and  C_15 
REMARK    6  A    between atoms: C_15  and  N_16 
REMARK    7  A    between atoms: N_16  and  C_17 
ROOT
HETATM    1  N   UNL     1       7.445  28.130  55.864  1.00  0.00    -0.067 N 
HETATM    2  H   UNL     1       6.687  28.827  55.922  1.00  0.00     0.280 HD
HETATM    3  C   UNL     1       6.808  26.764  56.037  1.00  0.00     0.241 C 
HETATM    4  C   UNL     1       7.261  25.966  54.815  1.00  0.00     0.031 C 
HETATM    5  C   UNL     1       7.345  27.042  53.738  1.00  0.00     0.035 C 
HETATM    6  C   UNL     1       8.014  28.199  54.464  1.00  0.00     0.235 C 
ENDROOT
BRANCH   1   7
HETATM    7  C   UNL     1       8.441  28.525  56.932  1.00  0.00     0.273 C 
BRANCH   7   8
HETATM    8  C   UNL     1       7.926  29.615  57.835  1.00  0.00    -0.028 A 
HETATM    9  C   UNL     1       8.698  30.048  58.927  1.00  0.00     0.031 A 
HETATM   10  C   UNL     1       8.247  31.088  59.743  1.00  0.00     0.047 A 
HETATM   11  C   UNL     1       7.022  31.696  59.477  1.00  0.00     0.116 A 
HETATM   12 BR   UNL     1       9.344  31.639  61.186  1.00  0.00    -0.048 Br
HETATM   13  C   UNL     1       6.227  31.267  58.408  1.00  0.00     0.103 A 
HETATM   14  C   UNL     1       6.681  30.228  57.590  1.00  0.00     0.048 A 
BRANCH  11  15
HETATM   15  O   UNL     1       6.580  32.725  60.266  1.00  0.00    -0.357 OA
HETATM   16  H   UNL     1       6.003  33.282  59.706  1.00  0.00     0.218 HD
ENDBRANCH  11  15
BRANCH  13  17
HETATM   17  O   UNL     1       5.049  31.949  58.257  1.00  0.00    -0.353 OA
HETATM   18  C   UNL     1       4.939  32.844  57.157  1.00  0.00     0.210 C 
ENDBRANCH  13  17
ENDBRANCH   7   8
ENDBRANCH   1   7
BRANCH   4  19
HETATM   19  C   UNL     1       6.309  24.808  54.494  1.00  0.00     0.127 C 
BRANCH  19  20
HETATM   20  N   UNL     1       6.897  23.896  53.513  1.00  0.00    -0.376 N 
HETATM   21  H   UNL     1       6.653  24.044  52.541  1.00  0.00     0.161 HD
BRANCH  20  22
HETATM   22  C   UNL     1       7.452  22.686  53.886  1.00  0.00     0.100 A 
HETATM   23  N   UNL     1       7.458  22.367  55.195  1.00  0.00    -0.353 N 
HETATM   24  H   UNL     1       7.059  23.029  55.850  1.00  0.00     0.166 HD
HETATM   25  C   UNL     1       7.946  21.215  55.683  1.00  0.00     0.089 A 
HETATM   26  C   UNL     1       8.479  20.267  54.827  1.00  0.00     0.017 A 
HETATM   27  C   UNL     1       8.491  20.532  53.467  1.00  0.00     0.005 A 
HETATM   28  C   UNL     1       7.974  21.739  52.994  1.00  0.00     0.048 A 
ENDBRANCH  20  22
ENDBRANCH  19  20
ENDBRANCH   4  19
TORSDOF 7
ENDMDL
MODEL 9
REMARK VINA RESULT:      -7.6      1.966      3.234
REMARK  7 active torsions:
REMARK  status: ('A' for Active; 'I' for Inactive)
REMARK    1  A    between atoms: O_2  and  C_3 
REMARK    2  A    between atoms: C_4  and  O_5 
REMARK    3  A    between atoms: C_9  and  C_10 
REMARK    4  A    between atoms: C_10  and  N_11 
REMARK    5  A    between atoms: C_14  and  C_15 
REMARK    6  A    between atoms: C_15  and  N_16 
REMARK    7  A    between atoms: N_16  and  C_17 
ROOT
HETATM    1  N   UNL     1       6.680  26.661  53.249  1.00  0.00    -0.067 N 
HETATM    2  H   UNL     1       6.238  27.133  52.445  1.00  0.00     0.280 HD
HETATM    3  C   UNL     1       7.246  27.748  54.145  1.00  0.00     0.241 C 
HETATM    4  C   UNL     1       6.642  27.470  55.522  1.00  0.00     0.031 C 
HETATM    5  C   UNL     1       5.272  26.901  55.166  1.00  0.00     0.035 C 
HETATM    6  C   UNL     1       5.584  25.956  54.016  1.00  0.00     0.235 C 
ENDROOT
BRANCH   1   7
HETATM    7  C   UNL     1       7.697  25.713  52.654  1.00  0.00     0.273 C 
BRANCH   7   8
HETATM    8  C   UNL     1       7.951  24.509  53.522  1.00  0.00    -0.028 A 
HETATM    9  C   UNL     1       7.962  23.222  52.956  1.00  0.00     0.031 A 
HETATM   10  C   UNL     1       8.239  22.104  53.747  1.00  0.00     0.047 A 
HETATM   11  C   UNL     1       8.501  22.266  55.106  1.00  0.00     0.116 A 
HETATM   12 BR   UNL     1       8.259  20.401  52.920  1.00  0.00    -0.048 Br
HETATM   13  C   UNL     1       8.475  23.536  55.695  1.00  0.00     0.103 A 
HETATM   14  C   UNL     1       8.200  24.653  54.901  1.00  0.00     0.048 A 
BRANCH  11  15
HETATM   15  O   UNL     1       8.786  21.176  55.885  1.00  0.00    -0.357 OA
HETATM   16  H   UNL     1       7.933  20.746  56.093  1.00  0.00     0.218 HD
ENDBRANCH  11  15
BRANCH  13  17
HETATM   17  O   UNL     1       8.751  23.554  57.036  1.00  0.00    -0.353 OA
HETATM   18  C   UNL     1       8.679  24.804  57.710  1.00  0.00     0.210 C 
ENDBRANCH  13  17
ENDBRANCH   7   8
ENDBRANCH   1   7
BRANCH   4  19
HETATM   19  C   UNL     1       6.608  28.724  56.403  1.00  0.00     0.127 C 
BRANCH  19  20
HETATM   20  N   UNL     1       7.372  28.526  57.634  1.00  0.00    -0.376 N 
HETATM   21  H   UNL     1       7.125  27.728  58.207  1.00  0.00     0.161 HD
BRANCH  20  22
HETATM   22  C   UNL     1       8.131  29.538  58.190  1.00  0.00     0.100 A 
HETATM   23  N   UNL     1       7.717  30.076  59.354  1.00  0.00    -0.353 N 
HETATM   24  H   UNL     1       6.865  29.716  59.770  1.00  0.00     0.166 HD
HETATM   25  C   UNL     1       8.375  31.047  60.007  1.00  0.00     0.089 A 
HETATM   26  C   UNL     1       9.556  31.554  59.494  1.00  0.00     0.017 A 
HETATM   27  C   UNL     1      10.040  31.034  58.304  1.00  0.00     0.005 A 
HETATM   28  C   UNL     1       9.332  30.023  57.653  1.00  0.00     0.048 A 
ENDBRANCH  20  22
ENDBRANCH  19  20
ENDBRANCH   4  19
TORSDOF 7
ENDMDL
MODEL 10
REMARK VINA RESULT:      -7.5      4.020      6.293
REMARK  7 active torsions:
REMARK  status: ('A' for Active; 'I' for Inactive)
REMARK    1  A    between atoms: O_2  and  C_3 
REMARK    2  A    between atoms: C_4  and  O_5 
REMARK    3  A    between atoms: C_9  and  C_10 
REMARK    4  A    between atoms: C_10  and  N_11 
REMARK    5  A    between atoms: C_14  and  C_15 
REMARK    6  A    between atoms: C_15  and  N_16 
REMARK    7  A    between atoms: N_16  and  C_17 
ROOT
HETATM    1  N   UNL     1       7.766  30.753  60.224  1.00  0.00    -0.067 N 
HETATM    2  H   UNL     1       7.362  29.808  60.307  1.00  0.00     0.280 HD
HETATM    3  C   UNL     1       7.172  31.590  61.342  1.00  0.00     0.241 C 
HETATM    4  C   UNL     1       8.379  32.166  62.081  1.00  0.00     0.031 C 
HETATM    5  C   UNL     1       9.411  31.052  61.933  1.00  0.00     0.035 C 
HETATM    6  C   UNL     1       9.252  30.632  60.480  1.00  0.00     0.235 C 
ENDROOT
BRANCH   1   7
HETATM    7  C   UNL     1       7.439  31.212  58.820  1.00  0.00     0.273 C 
BRANCH   7   8
HETATM    8  C   UNL     1       6.665  30.185  58.036  1.00  0.00    -0.028 A 
HETATM    9  C   UNL     1       7.207  28.906  57.824  1.00  0.00     0.031 A 
HETATM   10  C   UNL     1       6.477  27.934  57.135  1.00  0.00     0.047 A 
HETATM   11  C   UNL     1       5.207  28.237  56.650  1.00  0.00     0.116 A 
HETATM   12 BR   UNL     1       7.256  26.224  56.900  1.00  0.00    -0.048 Br
HETATM   13  C   UNL     1       4.656  29.511  56.831  1.00  0.00     0.103 A 
HETATM   14  C   UNL     1       5.386  30.481  57.524  1.00  0.00     0.048 A 
BRANCH  11  15
HETATM   15  O   UNL     1       4.481  27.285  55.984  1.00  0.00    -0.357 OA
HETATM   16  H   UNL     1       4.969  26.443  56.073  1.00  0.00     0.218 HD
ENDBRANCH  11  15
BRANCH  13  17
HETATM   17  O   UNL     1       3.401  29.675  56.307  1.00  0.00    -0.353 OA
HETATM   18  C   UNL     1       2.916  31.004  56.153  1.00  0.00     0.210 C 
ENDBRANCH  13  17
ENDBRANCH   7   8
ENDBRANCH   1   7
BRANCH   4  19
HETATM   19  C   UNL     1       8.046  32.545  63.529  1.00  0.00     0.127 C 
BRANCH  19  20
HETATM   20  N   UNL     1       6.676  33.043  63.642  1.00  0.00    -0.376 N 
HETATM   21  H   UNL     1       6.204  33.297  62.782  1.00  0.00     0.161 HD
BRANCH  20  22
HETATM   22  C   UNL     1       6.164  33.497  64.843  1.00  0.00     0.100 A 
HETATM   23  N   UNL     1       4.825  33.530  64.991  1.00  0.00    -0.353 N 
HETATM   24  H   UNL     1       4.251  33.223  64.213  1.00  0.00     0.166 HD
HETATM   25  C   UNL     1       4.205  33.929  66.113  1.00  0.00     0.089 A 
HETATM   26  C   UNL     1       4.944  34.334  67.211  1.00  0.00     0.017 A 
HETATM   27  C   UNL     1       6.327  34.312  67.124  1.00  0.00     0.005 A 
HETATM   28  C   UNL     1       6.939  33.890  65.943  1.00  0.00     0.048 A 
ENDBRANCH  20  22
ENDBRANCH  19  20
ENDBRANCH   4  19
TORSDOF 7
ENDMDL
