MODEL 1
REMARK VINA RESULT:      -8.9      0.000      0.000
REMARK  11 active torsions:
REMARK  status: ('A' for Active; 'I' for Inactive)
REMARK    1  A    between atoms: C_2  and  N_3 
REMARK    2  A    between atoms: N_3  and  C_5 
REMARK    3  A    between atoms: N_3  and  C_35 
REMARK    4  A    between atoms: C_5  and  C_6 
REMARK    5  A    between atoms: C_6  and  C_7 
REMARK    6  A    between atoms: C_7  and  N_8 
REMARK    7  A    between atoms: N_8  and  C_9 
REMARK    8  A    between atoms: N_8  and  C_19 
REMARK    9  A    between atoms: C_9  and  N_10 
REMARK   10  A    between atoms: N_10  and  C_11 
REMARK   11  A    between atoms: C_19  and  C_20 
ROOT
HETATM    1  N   UNL     1       5.725  28.890  56.205  1.00  0.00    -0.255 NA
ENDROOT
BRANCH   1   2
HETATM    2  C   UNL     1       4.631  28.590  55.261  1.00  0.00     0.100 C 
BRANCH   2   3
HETATM    3  C   UNL     1       4.961  28.727  53.763  1.00  0.00     0.042 C 
BRANCH   3   4
HETATM    4  C   UNL     1       4.239  27.689  52.910  1.00  0.00     0.236 C 
BRANCH   4   5
HETATM    5  N   UNL     1       5.089  27.163  51.758  1.00  0.00    -0.072 N 
HETATM    6  H   UNL     1       6.000  27.630  51.867  1.00  0.00     0.279 HD
BRANCH   5   7
HETATM    7  C   UNL     1       4.595  27.565  50.375  1.00  0.00     0.230 C 
HETATM    8  C   UNL     1       4.491  26.367  49.451  1.00  0.00     0.034 C 
ENDBRANCH   5   7
BRANCH   5   9
HETATM    9  C   UNL     1       5.401  25.677  51.801  1.00  0.00     0.230 C 
HETATM   10  C   UNL     1       4.672  24.983  52.937  1.00  0.00     0.034 C 
ENDBRANCH   5   9
ENDBRANCH   4   5
ENDBRANCH   3   4
ENDBRANCH   2   3
ENDBRANCH   1   2
BRANCH   1  11
HETATM   11  C   UNL     1       5.663  30.095  56.889  1.00  0.00     0.153 C 
HETATM   12  S   UNL     1       5.006  31.513  56.266  1.00  0.00    -0.047 SA
BRANCH  11  13
HETATM   13  N   UNL     1       6.130  30.152  58.168  1.00  0.00    -0.338 N 
HETATM   14  H   UNL     1       5.589  29.549  58.781  1.00  0.00     0.168 HD
BRANCH  13  15
HETATM   15  C   UNL     1       7.120  30.919  58.817  1.00  0.00     0.035 A 
HETATM   16  C   UNL     1       6.683  31.710  59.890  1.00  0.00     0.053 A 
HETATM   17  C   UNL     1       7.586  32.493  60.610  1.00  0.00     0.036 A 
HETATM   18 CL   UNL     1       7.026  33.433  61.937  1.00  0.00    -0.084 Cl
HETATM   19  C   UNL     1       8.933  32.509  60.270  1.00  0.00     0.024 A 
HETATM   20  C   UNL     1       9.376  31.736  59.199  1.00  0.00     0.004 A 
HETATM   21  C   UNL     1       8.473  30.945  58.476  1.00  0.00     0.029 A 
ENDBRANCH  13  15
ENDBRANCH  11  13
ENDBRANCH   1  11
BRANCH   1  22
HETATM   22  C   UNL     1       7.084  28.603  55.678  1.00  0.00     0.142 C 
BRANCH  22  23
HETATM   23  C   UNL     1       7.558  27.198  55.916  1.00  0.00     0.024 A 
HETATM   24  C   UNL     1       7.924  26.855  57.328  1.00  0.00     0.253 A 
HETATM   25  O   UNL     1       8.014  27.721  58.195  1.00  0.00    -0.268 OA
HETATM   26  N   UNL     1       8.173  25.542  57.611  1.00  0.00    -0.322 N 
HETATM   27  C   UNL     1       8.134  24.521  56.657  1.00  0.00     0.048 A 
HETATM   28  H   UNL     1       8.392  25.326  58.576  1.00  0.00     0.169 HD
HETATM   29  C   UNL     1       7.835  24.840  55.326  1.00  0.00    -0.006 A 
HETATM   30  C   UNL     1       8.379  23.204  57.045  1.00  0.00     0.070 A 
HETATM   31  C   UNL     1       7.799  23.821  54.369  1.00  0.00     0.053 A 
HETATM   32  C   UNL     1       7.524  26.231  54.982  1.00  0.00     0.027 A 
HETATM   33  C   UNL     1       8.050  22.502  54.751  1.00  0.00     0.103 A 
HETATM   34  C   UNL     1       8.314  22.193  56.091  1.00  0.00     0.104 A 
HETATM   35  O   UNL     1       8.003  21.555  53.760  1.00  0.00    -0.346 OA
HETATM   36  O   UNL     1       8.520  20.913  56.540  1.00  0.00    -0.346 OA
HETATM   37  C   UNL     1       8.058  19.949  55.586  1.00  0.00     0.202 C 
HETATM   38  C   UNL     1       8.552  20.303  54.193  1.00  0.00     0.202 C 
ENDBRANCH  22  23
ENDBRANCH   1  22
TORSDOF 11
ENDMDL
MODEL 2
REMARK VINA RESULT:      -8.7      2.776      6.569
REMARK  11 active torsions:
REMARK  status: ('A' for Active; 'I' for Inactive)
REMARK    1  A    between atoms: C_2  and  N_3 
REMARK    2  A    between atoms: N_3  and  C_5 
REMARK    3  A    between atoms: N_3  and  C_35 
REMARK    4  A    between atoms: C_5  and  C_6 
REMARK    5  A    between atoms: C_6  and  C_7 
REMARK    6  A    between atoms: C_7  and  N_8 
REMARK    7  A    between atoms: N_8  and  C_9 
REMARK    8  A    between atoms: N_8  and  C_19 
REMARK    9  A    between atoms: C_9  and  N_10 
REMARK   10  A    between atoms: N_10  and  C_11 
REMARK   11  A    between atoms: C_19  and  C_20 
ROOT
HETATM    1  N   UNL     1       6.012  29.093  55.527  1.00  0.00    -0.255 NA
ENDROOT
BRANCH   1   2
HETATM    2  C   UNL     1       6.116  30.354  56.288  1.00  0.00     0.100 C 
BRANCH   2   3
HETATM    3  C   UNL     1       6.250  30.223  57.816  1.00  0.00     0.042 C 
BRANCH   3   4
HETATM    4  C   UNL     1       7.364  31.098  58.380  1.00  0.00     0.236 C 
BRANCH   4   5
HETATM    5  N   UNL     1       8.547  30.295  58.914  1.00  0.00    -0.072 N 
HETATM    6  H   UNL     1       8.271  29.310  58.798  1.00  0.00     0.279 HD
BRANCH   5   7
HETATM    7  C   UNL     1       8.803  30.465  60.405  1.00  0.00     0.230 C 
HETATM    8  C   UNL     1       7.890  31.516  61.009  1.00  0.00     0.034 C 
ENDBRANCH   5   7
BRANCH   5   9
HETATM    9  C   UNL     1       9.841  30.437  58.132  1.00  0.00     0.230 C 
HETATM   10  C   UNL     1       9.802  29.648  56.835  1.00  0.00     0.034 C 
ENDBRANCH   5   9
ENDBRANCH   4   5
ENDBRANCH   3   4
ENDBRANCH   2   3
ENDBRANCH   1   2
BRANCH   1  11
HETATM   11  C   UNL     1       5.344  29.136  54.312  1.00  0.00     0.153 C 
HETATM   12  S   UNL     1       3.758  29.660  54.114  1.00  0.00    -0.047 SA
BRANCH  11  13
HETATM   13  N   UNL     1       6.007  28.765  53.180  1.00  0.00    -0.338 N 
HETATM   14  H   UNL     1       6.961  29.118  53.184  1.00  0.00     0.168 HD
BRANCH  13  15
HETATM   15  C   UNL     1       5.631  28.090  52.001  1.00  0.00     0.035 A 
HETATM   16  C   UNL     1       5.425  28.894  50.870  1.00  0.00     0.053 A 
HETATM   17  C   UNL     1       5.067  28.325  49.648  1.00  0.00     0.036 A 
HETATM   18 CL   UNL     1       4.847  29.332  48.271  1.00  0.00    -0.084 Cl
HETATM   19  C   UNL     1       4.900  26.950  49.533  1.00  0.00     0.024 A 
HETATM   20  C   UNL     1       5.090  26.143  50.653  1.00  0.00     0.004 A 
HETATM   21  C   UNL     1       5.454  26.711  51.880  1.00  0.00     0.029 A 
ENDBRANCH  13  15
ENDBRANCH  11  13
ENDBRANCH   1  11
BRANCH   1  22
HETATM   22  C   UNL     1       5.633  27.914  56.345  1.00  0.00     0.142 C 
BRANCH  22  23
HETATM   23  C   UNL     1       6.529  26.722  56.170  1.00  0.00     0.024 A 
HETATM   24  C   UNL     1       7.515  26.471  57.268  1.00  0.00     0.253 A 
HETATM   25  O   UNL     1       7.709  27.296  58.157  1.00  0.00    -0.268 OA
HETATM   26  N   UNL     1       8.209  25.294  57.233  1.00  0.00    -0.322 N 
HETATM   27  C   UNL     1       8.067  24.338  56.222  1.00  0.00     0.048 A 
HETATM   28  H   UNL     1       8.851  25.130  57.999  1.00  0.00     0.169 HD
HETATM   29  C   UNL     1       7.177  24.586  55.168  1.00  0.00    -0.006 A 
HETATM   30  C   UNL     1       8.801  23.154  56.284  1.00  0.00     0.070 A 
HETATM   31  C   UNL     1       7.036  23.634  54.154  1.00  0.00     0.053 A 
HETATM   32  C   UNL     1       6.385  25.818  55.183  1.00  0.00     0.027 A 
HETATM   33  C   UNL     1       7.773  22.449  54.207  1.00  0.00     0.103 A 
HETATM   34  C   UNL     1       8.633  22.200  55.284  1.00  0.00     0.104 A 
HETATM   35  O   UNL     1       7.588  21.563  53.177  1.00  0.00    -0.346 OA
HETATM   36  O   UNL     1       9.347  21.037  55.422  1.00  0.00    -0.346 OA
HETATM   37  C   UNL     1       8.821  20.003  54.580  1.00  0.00     0.202 C 
HETATM   38  C   UNL     1       8.587  20.534  53.175  1.00  0.00     0.202 C 
ENDBRANCH  22  23
ENDBRANCH   1  22
TORSDOF 11
ENDMDL
MODEL 3
REMARK VINA RESULT:      -8.7      2.111      3.334
REMARK  11 active torsions:
REMARK  status: ('A' for Active; 'I' for Inactive)
REMARK    1  A    between atoms: C_2  and  N_3 
REMARK    2  A    between atoms: N_3  and  C_5 
REMARK    3  A    between atoms: N_3  and  C_35 
REMARK    4  A    between atoms: C_5  and  C_6 
REMARK    5  A    between atoms: C_6  and  C_7 
REMARK    6  A    between atoms: C_7  and  N_8 
REMARK    7  A    between atoms: N_8  and  C_9 
REMARK    8  A    between atoms: N_8  and  C_19 
REMARK    9  A    between atoms: C_9  and  N_10 
REMARK   10  A    between atoms: N_10  and  C_11 
REMARK   11  A    between atoms: C_19  and  C_20 
ROOT
HETATM    1  N   UNL     1       7.719  29.352  58.243  1.00  0.00    -0.255 NA
ENDROOT
BRANCH   1   2
HETATM    2  C   UNL     1       6.314  29.706  57.962  1.00  0.00     0.100 C 
BRANCH   2   3
HETATM    3  C   UNL     1       6.083  30.820  56.925  1.00  0.00     0.042 C 
BRANCH   3   4
HETATM    4  C   UNL     1       4.683  30.774  56.322  1.00  0.00     0.236 C 
BRANCH   4   5
HETATM    5  N   UNL     1       4.633  30.070  54.969  1.00  0.00    -0.072 N 
HETATM    6  H   UNL     1       5.619  29.902  54.724  1.00  0.00     0.279 HD
BRANCH   5   7
HETATM    7  C   UNL     1       4.078  30.921  53.836  1.00  0.00     0.230 C 
HETATM    8  C   UNL     1       2.895  31.753  54.293  1.00  0.00     0.034 C 
ENDBRANCH   5   7
BRANCH   5   9
HETATM    9  C   UNL     1       3.988  28.696  54.971  1.00  0.00     0.230 C 
HETATM   10  C   UNL     1       3.932  28.100  53.575  1.00  0.00     0.034 C 
ENDBRANCH   5   9
ENDBRANCH   4   5
ENDBRANCH   3   4
ENDBRANCH   2   3
ENDBRANCH   1   2
BRANCH   1  11
HETATM   11  C   UNL     1       8.434  30.198  59.079  1.00  0.00     0.153 C 
HETATM   12  S   UNL     1       9.665  31.225  58.568  1.00  0.00    -0.047 SA
BRANCH  11  13
HETATM   13  N   UNL     1       8.114  30.243  60.403  1.00  0.00    -0.338 N 
HETATM   14  H   UNL     1       8.020  29.307  60.788  1.00  0.00     0.168 HD
BRANCH  13  15
HETATM   15  C   UNL     1       7.808  31.286  61.302  1.00  0.00     0.035 A 
HETATM   16  C   UNL     1       6.778  32.154  60.912  1.00  0.00     0.053 A 
HETATM   17  C   UNL     1       6.385  33.208  61.737  1.00  0.00     0.036 A 
HETATM   18 CL   UNL     1       5.100  34.240  61.244  1.00  0.00    -0.084 Cl
HETATM   19  C   UNL     1       7.015  33.421  62.957  1.00  0.00     0.024 A 
HETATM   20  C   UNL     1       8.048  32.572  63.349  1.00  0.00     0.004 A 
HETATM   21  C   UNL     1       8.442  31.510  62.525  1.00  0.00     0.029 A 
ENDBRANCH  13  15
ENDBRANCH  11  13
ENDBRANCH   1  11
BRANCH   1  22
HETATM   22  C   UNL     1       8.498  28.939  57.049  1.00  0.00     0.142 C 
BRANCH  22  23
HETATM   23  C   UNL     1       8.106  27.605  56.482  1.00  0.00     0.024 A 
HETATM   24  C   UNL     1       7.575  27.612  55.082  1.00  0.00     0.253 A 
HETATM   25  O   UNL     1       7.296  28.662  54.508  1.00  0.00    -0.268 OA
HETATM   26  N   UNL     1       7.391  26.403  54.473  1.00  0.00    -0.322 N 
HETATM   27  C   UNL     1       7.644  25.175  55.092  1.00  0.00     0.048 A 
HETATM   28  H   UNL     1       7.057  26.429  53.517  1.00  0.00     0.169 HD
HETATM   29  C   UNL     1       8.101  25.159  56.417  1.00  0.00    -0.006 A 
HETATM   30  C   UNL     1       7.450  23.991  54.381  1.00  0.00     0.070 A 
HETATM   31  C   UNL     1       8.350  23.932  57.039  1.00  0.00     0.053 A 
HETATM   32  C   UNL     1       8.346  26.433  57.098  1.00  0.00     0.027 A 
HETATM   33  C   UNL     1       8.152  22.743  56.335  1.00  0.00     0.103 A 
HETATM   34  C   UNL     1       7.728  22.776  55.001  1.00  0.00     0.104 A 
HETATM   35  O   UNL     1       8.412  21.578  57.010  1.00  0.00    -0.346 OA
HETATM   36  O   UNL     1       7.562  21.647  54.238  1.00  0.00    -0.346 OA
HETATM   37  C   UNL     1       8.228  20.523  54.825  1.00  0.00     0.202 C 
HETATM   38  C   UNL     1       7.907  20.433  56.308  1.00  0.00     0.202 C 
ENDBRANCH  22  23
ENDBRANCH   1  22
TORSDOF 11
ENDMDL
MODEL 4
REMARK VINA RESULT:      -8.7      4.239      8.753
REMARK  11 active torsions:
REMARK  status: ('A' for Active; 'I' for Inactive)
REMARK    1  A    between atoms: C_2  and  N_3 
REMARK    2  A    between atoms: N_3  and  C_5 
REMARK    3  A    between atoms: N_3  and  C_35 
REMARK    4  A    between atoms: C_5  and  C_6 
REMARK    5  A    between atoms: C_6  and  C_7 
REMARK    6  A    between atoms: C_7  and  N_8 
REMARK    7  A    between atoms: N_8  and  C_9 
REMARK    8  A    between atoms: N_8  and  C_19 
REMARK    9  A    between atoms: C_9  and  N_10 
REMARK   10  A    between atoms: N_10  and  C_11 
REMARK   11  A    between atoms: C_19  and  C_20 
ROOT
HETATM    1  N   UNL     1       6.594  26.456  55.714  1.00  0.00    -0.255 NA
ENDROOT
BRANCH   1   2
HETATM    2  C   UNL     1       6.001  27.322  56.753  1.00  0.00     0.100 C 
BRANCH   2   3
HETATM    3  C   UNL     1       6.527  28.767  56.821  1.00  0.00     0.042 C 
BRANCH   3   4
HETATM    4  C   UNL     1       7.634  28.936  57.857  1.00  0.00     0.236 C 
BRANCH   4   5
HETATM    5  N   UNL     1       8.670  29.984  57.464  1.00  0.00    -0.072 N 
HETATM    6  H   UNL     1       8.141  30.694  56.938  1.00  0.00     0.279 HD
BRANCH   5   7
HETATM    7  C   UNL     1       9.738  29.486  56.500  1.00  0.00     0.230 C 
HETATM    8  C   UNL     1      11.132  29.689  57.061  1.00  0.00     0.034 C 
ENDBRANCH   5   7
BRANCH   5   9
HETATM    9  C   UNL     1       9.305  30.741  58.617  1.00  0.00     0.230 C 
HETATM   10  C   UNL     1       8.291  31.600  59.351  1.00  0.00     0.034 C 
ENDBRANCH   5   9
ENDBRANCH   4   5
ENDBRANCH   3   4
ENDBRANCH   2   3
ENDBRANCH   1   2
BRANCH   1  11
HETATM   11  C   UNL     1       7.249  25.309  56.139  1.00  0.00     0.153 C 
HETATM   12  S   UNL     1       8.410  25.271  57.356  1.00  0.00    -0.047 SA
BRANCH  11  13
HETATM   13  N   UNL     1       6.925  24.114  55.571  1.00  0.00    -0.338 N 
HETATM   14  H   UNL     1       6.017  24.161  55.116  1.00  0.00     0.168 HD
BRANCH  13  15
HETATM   15  C   UNL     1       7.526  22.839  55.559  1.00  0.00     0.035 A 
HETATM   16  C   UNL     1       7.659  22.231  54.302  1.00  0.00     0.053 A 
HETATM   17  C   UNL     1       8.257  20.977  54.177  1.00  0.00     0.036 A 
HETATM   18 CL   UNL     1       8.430  20.268  52.620  1.00  0.00    -0.084 Cl
HETATM   19  C   UNL     1       8.722  20.303  55.300  1.00  0.00     0.024 A 
HETATM   20  C   UNL     1       8.584  20.892  56.555  1.00  0.00     0.004 A 
HETATM   21  C   UNL     1       7.989  22.154  56.683  1.00  0.00     0.029 A 
ENDBRANCH  13  15
ENDBRANCH  11  13
ENDBRANCH   1  11
BRANCH   1  22
HETATM   22  C   UNL     1       7.346  27.187  54.663  1.00  0.00     0.142 C 
BRANCH  22  23
HETATM   23  C   UNL     1       6.704  27.160  53.307  1.00  0.00     0.024 A 
HETATM   24  C   UNL     1       7.082  26.014  52.420  1.00  0.00     0.253 A 
HETATM   25  O   UNL     1       8.002  25.254  52.711  1.00  0.00    -0.268 OA
HETATM   26  N   UNL     1       6.375  25.855  51.262  1.00  0.00    -0.322 N 
HETATM   27  C   UNL     1       5.350  26.715  50.854  1.00  0.00     0.048 A 
HETATM   28  H   UNL     1       6.626  25.059  50.689  1.00  0.00     0.169 HD
HETATM   29  C   UNL     1       5.020  27.815  51.658  1.00  0.00    -0.006 A 
HETATM   30  C   UNL     1       4.667  26.459  49.665  1.00  0.00     0.070 A 
HETATM   31  C   UNL     1       3.998  28.678  51.250  1.00  0.00     0.053 A 
HETATM   32  C   UNL     1       5.727  28.003  52.927  1.00  0.00     0.027 A 
HETATM   33  C   UNL     1       3.315  28.430  50.057  1.00  0.00     0.103 A 
HETATM   34  C   UNL     1       3.633  27.309  49.281  1.00  0.00     0.104 A 
HETATM   35  O   UNL     1       2.329  29.321  49.717  1.00  0.00    -0.346 OA
HETATM   36  O   UNL     1       2.968  26.981  48.127  1.00  0.00    -0.346 OA
HETATM   37  C   UNL     1       1.715  27.671  48.038  1.00  0.00     0.202 C 
HETATM   38  C   UNL     1       1.898  29.145  48.360  1.00  0.00     0.202 C 
ENDBRANCH  22  23
ENDBRANCH   1  22
TORSDOF 11
ENDMDL
MODEL 5
REMARK VINA RESULT:      -8.6      3.083      6.662
REMARK  11 active torsions:
REMARK  status: ('A' for Active; 'I' for Inactive)
REMARK    1  A    between atoms: C_2  and  N_3 
REMARK    2  A    between atoms: N_3  and  C_5 
REMARK    3  A    between atoms: N_3  and  C_35 
REMARK    4  A    between atoms: C_5  and  C_6 
REMARK    5  A    between atoms: C_6  and  C_7 
REMARK    6  A    between atoms: C_7  and  N_8 
REMARK    7  A    between atoms: N_8  and  C_9 
REMARK    8  A    between atoms: N_8  and  C_19 
REMARK    9  A    between atoms: C_9  and  N_10 
REMARK   10  A    between atoms: N_10  and  C_11 
REMARK   11  A    between atoms: C_19  and  C_20 
ROOT
HETATM    1  N   UNL     1       6.903  26.820  55.878  1.00  0.00    -0.255 NA
ENDROOT
BRANCH   1   2
HETATM    2  C   UNL     1       7.940  25.831  56.234  1.00  0.00     0.100 C 
BRANCH   2   3
HETATM    3  C   UNL     1       7.484  24.363  56.323  1.00  0.00     0.042 C 
BRANCH   3   4
HETATM    4  C   UNL     1       8.526  23.395  55.772  1.00  0.00     0.236 C 
BRANCH   4   5
HETATM    5  N   UNL     1       7.924  22.303  54.891  1.00  0.00    -0.072 N 
HETATM    6  H   UNL     1       7.019  22.683  54.582  1.00  0.00     0.279 HD
BRANCH   5   7
HETATM    7  C   UNL     1       7.588  21.014  55.628  1.00  0.00     0.230 C 
HETATM    8  C   UNL     1       8.622  20.695  56.691  1.00  0.00     0.034 C 
ENDBRANCH   5   7
BRANCH   5   9
HETATM    9  C   UNL     1       8.684  22.003  53.611  1.00  0.00     0.230 C 
HETATM   10  C   UNL     1       8.216  20.708  52.971  1.00  0.00     0.034 C 
ENDBRANCH   5   9
ENDBRANCH   4   5
ENDBRANCH   3   4
ENDBRANCH   2   3
ENDBRANCH   1   2
BRANCH   1  11
HETATM   11  C   UNL     1       6.613  27.802  56.814  1.00  0.00     0.153 C 
HETATM   12  S   UNL     1       5.137  28.602  56.928  1.00  0.00    -0.047 SA
BRANCH  11  13
HETATM   13  N   UNL     1       7.559  28.137  57.735  1.00  0.00    -0.338 N 
HETATM   14  H   UNL     1       7.470  27.568  58.573  1.00  0.00     0.168 HD
BRANCH  13  15
HETATM   15  C   UNL     1       8.549  29.139  57.804  1.00  0.00     0.035 A 
HETATM   16  C   UNL     1       8.384  30.101  58.812  1.00  0.00     0.053 A 
HETATM   17  C   UNL     1       9.316  31.125  58.978  1.00  0.00     0.036 A 
HETATM   18 CL   UNL     1       9.102  32.274  60.239  1.00  0.00    -0.084 Cl
HETATM   19  C   UNL     1      10.421  31.215  58.139  1.00  0.00     0.024 A 
HETATM   20  C   UNL     1      10.588  30.273  57.127  1.00  0.00     0.004 A 
HETATM   21  C   UNL     1       9.656  29.240  56.961  1.00  0.00     0.029 A 
ENDBRANCH  13  15
ENDBRANCH  11  13
ENDBRANCH   1  11
BRANCH   1  22
HETATM   22  C   UNL     1       5.683  26.235  55.267  1.00  0.00     0.142 C 
BRANCH  22  23
HETATM   23  C   UNL     1       5.574  26.435  53.783  1.00  0.00     0.024 A 
HETATM   24  C   UNL     1       5.619  25.195  52.945  1.00  0.00     0.253 A 
HETATM   25  O   UNL     1       5.919  24.106  53.427  1.00  0.00    -0.268 OA
HETATM   26  N   UNL     1       5.330  25.324  51.616  1.00  0.00    -0.322 N 
HETATM   27  C   UNL     1       5.029  26.543  51.001  1.00  0.00     0.048 A 
HETATM   28  H   UNL     1       5.339  24.470  51.071  1.00  0.00     0.169 HD
HETATM   29  C   UNL     1       5.027  27.714  51.771  1.00  0.00    -0.006 A 
HETATM   30  C   UNL     1       4.724  26.573  49.640  1.00  0.00     0.070 A 
HETATM   31  C   UNL     1       4.730  28.935  51.157  1.00  0.00     0.053 A 
HETATM   32  C   UNL     1       5.295  27.619  53.208  1.00  0.00     0.027 A 
HETATM   33  C   UNL     1       4.430  28.972  49.794  1.00  0.00     0.103 A 
HETATM   34  C   UNL     1       4.402  27.789  49.045  1.00  0.00     0.104 A 
HETATM   35  O   UNL     1       4.152  30.204  49.259  1.00  0.00    -0.346 OA
HETATM   36  O   UNL     1       4.066  27.750  47.715  1.00  0.00    -0.346 OA
HETATM   37  C   UNL     1       3.396  28.951  47.315  1.00  0.00     0.202 C 
HETATM   38  C   UNL     1       4.146  30.171  47.825  1.00  0.00     0.202 C 
ENDBRANCH  22  23
ENDBRANCH   1  22
TORSDOF 11
ENDMDL
MODEL 6
REMARK VINA RESULT:      -8.6      1.315      1.898
REMARK  11 active torsions:
REMARK  status: ('A' for Active; 'I' for Inactive)
REMARK    1  A    between atoms: C_2  and  N_3 
REMARK    2  A    between atoms: N_3  and  C_5 
REMARK    3  A    between atoms: N_3  and  C_35 
REMARK    4  A    between atoms: C_5  and  C_6 
REMARK    5  A    between atoms: C_6  and  C_7 
REMARK    6  A    between atoms: C_7  and  N_8 
REMARK    7  A    between atoms: N_8  and  C_9 
REMARK    8  A    between atoms: N_8  and  C_19 
REMARK    9  A    between atoms: C_9  and  N_10 
REMARK   10  A    between atoms: N_10  and  C_11 
REMARK   11  A    between atoms: C_19  and  C_20 
ROOT
HETATM    1  N   UNL     1       5.636  28.829  56.287  1.00  0.00    -0.255 NA
ENDROOT
BRANCH   1   2
HETATM    2  C   UNL     1       4.502  28.502  55.401  1.00  0.00     0.100 C 
BRANCH   2   3
HETATM    3  C   UNL     1       4.728  28.711  53.893  1.00  0.00     0.042 C 
BRANCH   3   4
HETATM    4  C   UNL     1       3.551  28.224  53.054  1.00  0.00     0.236 C 
BRANCH   4   5
HETATM    5  N   UNL     1       3.974  27.614  51.721  1.00  0.00    -0.072 N 
HETATM    6  H   UNL     1       3.234  26.934  51.496  1.00  0.00     0.279 HD
BRANCH   5   7
HETATM    7  C   UNL     1       5.260  26.802  51.779  1.00  0.00     0.230 C 
HETATM    8  C   UNL     1       4.980  25.335  52.047  1.00  0.00     0.034 C 
ENDBRANCH   5   7
BRANCH   5   9
HETATM    9  C   UNL     1       4.000  28.571  50.542  1.00  0.00     0.230 C 
HETATM   10  C   UNL     1       2.612  28.797  49.972  1.00  0.00     0.034 C 
ENDBRANCH   5   9
ENDBRANCH   4   5
ENDBRANCH   3   4
ENDBRANCH   2   3
ENDBRANCH   1   2
BRANCH   1  11
HETATM   11  C   UNL     1       5.560  30.010  57.009  1.00  0.00     0.153 C 
HETATM   12  S   UNL     1       4.744  31.390  56.497  1.00  0.00    -0.047 SA
BRANCH  11  13
HETATM   13  N   UNL     1       6.150  30.074  58.236  1.00  0.00    -0.338 N 
HETATM   14  H   UNL     1       5.614  29.553  58.925  1.00  0.00     0.168 HD
BRANCH  13  15
HETATM   15  C   UNL     1       7.265  30.764  58.753  1.00  0.00     0.035 A 
HETATM   16  C   UNL     1       8.492  30.516  58.120  1.00  0.00     0.053 A 
HETATM   17  C   UNL     1       9.654  31.161  58.543  1.00  0.00     0.036 A 
HETATM   18 CL   UNL     1      11.139  30.857  57.730  1.00  0.00    -0.084 Cl
HETATM   19  C   UNL     1       9.617  32.055  59.606  1.00  0.00     0.024 A 
HETATM   20  C   UNL     1       8.406  32.300  60.250  1.00  0.00     0.004 A 
HETATM   21  C   UNL     1       7.236  31.657  59.825  1.00  0.00     0.029 A 
ENDBRANCH  13  15
ENDBRANCH  11  13
ENDBRANCH   1  11
BRANCH   1  22
HETATM   22  C   UNL     1       6.972  28.621  55.673  1.00  0.00     0.142 C 
BRANCH  22  23
HETATM   23  C   UNL     1       7.483  27.212  55.757  1.00  0.00     0.024 A 
HETATM   24  C   UNL     1       7.823  26.713  57.127  1.00  0.00     0.253 A 
HETATM   25  O   UNL     1       7.866  27.472  58.093  1.00  0.00    -0.268 OA
HETATM   26  N   UNL     1       8.105  25.383  57.261  1.00  0.00    -0.322 N 
HETATM   27  C   UNL     1       8.120  24.481  56.192  1.00  0.00     0.048 A 
HETATM   28  H   UNL     1       8.306  25.060  58.199  1.00  0.00     0.169 HD
HETATM   29  C   UNL     1       7.844  24.949  54.900  1.00  0.00    -0.006 A 
HETATM   30  C   UNL     1       8.395  23.135  56.429  1.00  0.00     0.070 A 
HETATM   31  C   UNL     1       7.862  24.050  53.829  1.00  0.00     0.053 A 
HETATM   32  C   UNL     1       7.501  26.361  54.715  1.00  0.00     0.027 A 
HETATM   33  C   UNL     1       8.144  22.702  54.059  1.00  0.00     0.103 A 
HETATM   34  C   UNL     1       8.384  22.243  55.360  1.00  0.00     0.104 A 
HETATM   35  O   UNL     1       8.149  21.879  52.962  1.00  0.00    -0.346 OA
HETATM   36  O   UNL     1       8.617  20.925  55.660  1.00  0.00    -0.346 OA
HETATM   37  C   UNL     1       8.207  20.069  54.587  1.00  0.00     0.202 C 
HETATM   38  C   UNL     1       8.725  20.599  53.260  1.00  0.00     0.202 C 
ENDBRANCH  22  23
ENDBRANCH   1  22
TORSDOF 11
ENDMDL
MODEL 7
REMARK VINA RESULT:      -8.5      4.055      8.750
REMARK  11 active torsions:
REMARK  status: ('A' for Active; 'I' for Inactive)
REMARK    1  A    between atoms: C_2  and  N_3 
REMARK    2  A    between atoms: N_3  and  C_5 
REMARK    3  A    between atoms: N_3  and  C_35 
REMARK    4  A    between atoms: C_5  and  C_6 
REMARK    5  A    between atoms: C_6  and  C_7 
REMARK    6  A    between atoms: C_7  and  N_8 
REMARK    7  A    between atoms: N_8  and  C_9 
REMARK    8  A    between atoms: N_8  and  C_19 
REMARK    9  A    between atoms: C_9  and  N_10 
REMARK   10  A    between atoms: N_10  and  C_11 
REMARK   11  A    between atoms: C_19  and  C_20 
ROOT
HETATM    1  N   UNL     1       7.255  27.007  55.551  1.00  0.00    -0.255 NA
ENDROOT
BRANCH   1   2
HETATM    2  C   UNL     1       8.070  27.801  56.491  1.00  0.00     0.100 C 
BRANCH   2   3
HETATM    3  C   UNL     1       7.328  28.418  57.690  1.00  0.00     0.042 C 
BRANCH   3   4
HETATM    4  C   UNL     1       7.697  29.880  57.915  1.00  0.00     0.236 C 
BRANCH   4   5
HETATM    5  N   UNL     1       8.998  30.059  58.691  1.00  0.00    -0.072 N 
HETATM    6  H   UNL     1       9.379  29.108  58.790  1.00  0.00     0.279 HD
BRANCH   5   7
HETATM    7  C   UNL     1       8.818  30.568  60.115  1.00  0.00     0.230 C 
HETATM    8  C   UNL     1       9.258  32.013  60.249  1.00  0.00     0.034 C 
ENDBRANCH   5   7
BRANCH   5   9
HETATM    9  C   UNL     1      10.083  30.846  57.977  1.00  0.00     0.230 C 
HETATM   10  C   UNL     1      11.062  29.932  57.263  1.00  0.00     0.034 C 
ENDBRANCH   5   9
ENDBRANCH   4   5
ENDBRANCH   3   4
ENDBRANCH   2   3
ENDBRANCH   1   2
BRANCH   1  11
HETATM   11  C   UNL     1       7.018  25.680  55.878  1.00  0.00     0.153 C 
HETATM   12  S   UNL     1       5.551  25.087  56.452  1.00  0.00    -0.047 SA
BRANCH  11  13
HETATM   13  N   UNL     1       8.014  24.768  55.700  1.00  0.00    -0.338 N 
HETATM   14  H   UNL     1       8.877  25.222  55.414  1.00  0.00     0.168 HD
BRANCH  13  15
HETATM   15  C   UNL     1       8.072  23.359  55.740  1.00  0.00     0.035 A 
HETATM   16  C   UNL     1       7.901  22.699  54.514  1.00  0.00     0.053 A 
HETATM   17  C   UNL     1       7.959  21.307  54.442  1.00  0.00     0.036 A 
HETATM   18 CL   UNL     1       7.772  20.527  52.921  1.00  0.00    -0.084 Cl
HETATM   19  C   UNL     1       8.177  20.550  55.586  1.00  0.00     0.024 A 
HETATM   20  C   UNL     1       8.337  21.195  56.811  1.00  0.00     0.004 A 
HETATM   21  C   UNL     1       8.284  22.593  56.887  1.00  0.00     0.029 A 
ENDBRANCH  13  15
ENDBRANCH  11  13
ENDBRANCH   1  11
BRANCH   1  22
HETATM   22  C   UNL     1       7.618  27.187  54.123  1.00  0.00     0.142 C 
BRANCH  22  23
HETATM   23  C   UNL     1       6.447  27.381  53.204  1.00  0.00     0.024 A 
HETATM   24  C   UNL     1       5.574  28.564  53.488  1.00  0.00     0.253 A 
HETATM   25  O   UNL     1       5.697  29.218  54.521  1.00  0.00    -0.268 OA
HETATM   26  N   UNL     1       4.619  28.878  52.563  1.00  0.00    -0.322 N 
HETATM   27  C   UNL     1       4.399  28.143  51.394  1.00  0.00     0.048 A 
HETATM   28  H   UNL     1       4.056  29.697  52.760  1.00  0.00     0.169 HD
HETATM   29  C   UNL     1       5.184  27.010  51.141  1.00  0.00    -0.006 A 
HETATM   30  C   UNL     1       3.416  28.555  50.494  1.00  0.00     0.070 A 
HETATM   31  C   UNL     1       4.964  26.272  49.975  1.00  0.00     0.053 A 
HETATM   32  C   UNL     1       6.245  26.657  52.088  1.00  0.00     0.027 A 
HETATM   33  C   UNL     1       3.976  26.675  49.074  1.00  0.00     0.103 A 
HETATM   34  C   UNL     1       3.222  27.829  49.323  1.00  0.00     0.104 A 
HETATM   35  O   UNL     1       3.812  25.901  47.954  1.00  0.00    -0.346 OA
HETATM   36  O   UNL     1       2.273  28.307  48.455  1.00  0.00    -0.346 OA
HETATM   37  C   UNL     1       2.426  27.732  47.152  1.00  0.00     0.202 C 
HETATM   38  C   UNL     1       2.603  26.226  47.255  1.00  0.00     0.202 C 
ENDBRANCH  22  23
ENDBRANCH   1  22
TORSDOF 11
ENDMDL
MODEL 8
REMARK VINA RESULT:      -8.3      4.019      8.203
REMARK  11 active torsions:
REMARK  status: ('A' for Active; 'I' for Inactive)
REMARK    1  A    between atoms: C_2  and  N_3 
REMARK    2  A    between atoms: N_3  and  C_5 
REMARK    3  A    between atoms: N_3  and  C_35 
REMARK    4  A    between atoms: C_5  and  C_6 
REMARK    5  A    between atoms: C_6  and  C_7 
REMARK    6  A    between atoms: C_7  and  N_8 
REMARK    7  A    between atoms: N_8  and  C_9 
REMARK    8  A    between atoms: N_8  and  C_19 
REMARK    9  A    between atoms: C_9  and  N_10 
REMARK   10  A    between atoms: N_10  and  C_11 
REMARK   11  A    between atoms: C_19  and  C_20 
ROOT
HETATM    1  N   UNL     1       6.926  26.727  54.807  1.00  0.00    -0.255 NA
ENDROOT
BRANCH   1   2
HETATM    2  C   UNL     1       7.215  26.586  53.367  1.00  0.00     0.100 C 
BRANCH   2   3
HETATM    3  C   UNL     1       6.237  27.279  52.401  1.00  0.00     0.042 C 
BRANCH   3   4
HETATM    4  C   UNL     1       5.759  26.350  51.289  1.00  0.00     0.236 C 
BRANCH   4   5
HETATM    5  N   UNL     1       5.342  27.093  50.023  1.00  0.00    -0.072 N 
HETATM    6  H   UNL     1       6.203  27.158  49.461  1.00  0.00     0.279 HD
BRANCH   5   7
HETATM    7  C   UNL     1       4.903  28.532  50.252  1.00  0.00     0.230 C 
HETATM    8  C   UNL     1       5.763  29.507  49.469  1.00  0.00     0.034 C 
ENDBRANCH   5   7
BRANCH   5   9
HETATM    9  C   UNL     1       4.347  26.366  49.136  1.00  0.00     0.230 C 
HETATM   10  C   UNL     1       4.663  26.557  47.663  1.00  0.00     0.034 C 
ENDBRANCH   5   9
ENDBRANCH   4   5
ENDBRANCH   3   4
ENDBRANCH   2   3
ENDBRANCH   1   2
BRANCH   1  11
HETATM   11  C   UNL     1       6.929  25.571  55.573  1.00  0.00     0.153 C 
HETATM   12  S   UNL     1       5.695  25.123  56.627  1.00  0.00    -0.047 SA
BRANCH  11  13
HETATM   13  N   UNL     1       7.975  24.705  55.459  1.00  0.00    -0.338 N 
HETATM   14  H   UNL     1       8.826  25.195  55.198  1.00  0.00     0.168 HD
BRANCH  13  15
HETATM   15  C   UNL     1       8.100  23.303  55.537  1.00  0.00     0.035 A 
HETATM   16  C   UNL     1       8.018  22.608  54.321  1.00  0.00     0.053 A 
HETATM   17  C   UNL     1       8.147  21.219  54.285  1.00  0.00     0.036 A 
HETATM   18 CL   UNL     1       8.070  20.397  52.777  1.00  0.00    -0.084 Cl
HETATM   19  C   UNL     1       8.348  20.499  55.457  1.00  0.00     0.024 A 
HETATM   20  C   UNL     1       8.418  21.178  56.672  1.00  0.00     0.004 A 
HETATM   21  C   UNL     1       8.294  22.573  56.711  1.00  0.00     0.029 A 
ENDBRANCH  13  15
ENDBRANCH  11  13
ENDBRANCH   1  11
BRANCH   1  22
HETATM   22  C   UNL     1       5.776  27.614  55.117  1.00  0.00     0.142 C 
BRANCH  22  23
HETATM   23  C   UNL     1       6.096  28.741  56.055  1.00  0.00     0.024 A 
HETATM   24  C   UNL     1       5.130  29.886  56.066  1.00  0.00     0.253 A 
HETATM   25  O   UNL     1       4.241  29.982  55.223  1.00  0.00    -0.268 OA
HETATM   26  N   UNL     1       5.286  30.832  57.040  1.00  0.00    -0.322 N 
HETATM   27  C   UNL     1       6.307  30.801  57.995  1.00  0.00     0.048 A 
HETATM   28  H   UNL     1       4.607  31.583  57.047  1.00  0.00     0.169 HD
HETATM   29  C   UNL     1       7.240  29.756  57.965  1.00  0.00    -0.006 A 
HETATM   30  C   UNL     1       6.372  31.799  58.967  1.00  0.00     0.070 A 
HETATM   31  C   UNL     1       8.264  29.726  58.917  1.00  0.00     0.053 A 
HETATM   32  C   UNL     1       7.090  28.700  56.961  1.00  0.00     0.027 A 
HETATM   33  C   UNL     1       8.338  30.726  59.888  1.00  0.00     0.103 A 
HETATM   34  C   UNL     1       7.378  31.746  59.927  1.00  0.00     0.104 A 
HETATM   35  O   UNL     1       9.370  30.635  60.787  1.00  0.00    -0.346 OA
HETATM   36  O   UNL     1       7.366  32.729  60.884  1.00  0.00    -0.346 OA
HETATM   37  C   UNL     1       8.176  32.367  62.009  1.00  0.00     0.202 C 
HETATM   38  C   UNL     1       9.525  31.844  61.543  1.00  0.00     0.202 C 
ENDBRANCH  22  23
ENDBRANCH   1  22
TORSDOF 11
ENDMDL
MODEL 9
REMARK VINA RESULT:      -8.2      2.854      6.083
REMARK  11 active torsions:
REMARK  status: ('A' for Active; 'I' for Inactive)
REMARK    1  A    between atoms: C_2  and  N_3 
REMARK    2  A    between atoms: N_3  and  C_5 
REMARK    3  A    between atoms: N_3  and  C_35 
REMARK    4  A    between atoms: C_5  and  C_6 
REMARK    5  A    between atoms: C_6  and  C_7 
REMARK    6  A    between atoms: C_7  and  N_8 
REMARK    7  A    between atoms: N_8  and  C_9 
REMARK    8  A    between atoms: N_8  and  C_19 
REMARK    9  A    between atoms: C_9  and  N_10 
REMARK   10  A    between atoms: N_10  and  C_11 
REMARK   11  A    between atoms: C_19  and  C_20 
ROOT
HETATM    1  N   UNL     1       7.500  26.276  56.106  1.00  0.00    -0.255 NA
ENDROOT
BRANCH   1   2
HETATM    2  C   UNL     1       8.219  25.394  57.046  1.00  0.00     0.100 C 
BRANCH   2   3
HETATM    3  C   UNL     1       8.231  23.893  56.704  1.00  0.00     0.042 C 
BRANCH   3   4
HETATM    4  C   UNL     1       8.743  23.621  55.294  1.00  0.00     0.236 C 
BRANCH   4   5
HETATM    5  N   UNL     1       9.119  22.160  55.062  1.00  0.00    -0.072 N 
HETATM    6  H   UNL     1      10.144  22.163  54.973  1.00  0.00     0.279 HD
BRANCH   5   7
HETATM    7  C   UNL     1       8.605  21.577  53.753  1.00  0.00     0.230 C 
HETATM    8  C   UNL     1       7.823  22.603  52.956  1.00  0.00     0.034 C 
ENDBRANCH   5   7
BRANCH   5   9
HETATM    9  C   UNL     1       8.826  21.218  56.216  1.00  0.00     0.230 C 
HETATM   10  C   UNL     1       7.605  20.358  55.944  1.00  0.00     0.034 C 
ENDBRANCH   5   9
ENDBRANCH   4   5
ENDBRANCH   3   4
ENDBRANCH   2   3
ENDBRANCH   1   2
BRANCH   1  11
HETATM   11  C   UNL     1       7.870  27.612  56.078  1.00  0.00     0.153 C 
HETATM   12  S   UNL     1       8.185  28.484  54.673  1.00  0.00    -0.047 SA
BRANCH  11  13
HETATM   13  N   UNL     1       7.960  28.298  57.251  1.00  0.00    -0.338 N 
HETATM   14  H   UNL     1       7.285  27.953  57.928  1.00  0.00     0.168 HD
BRANCH  13  15
HETATM   15  C   UNL     1       8.710  29.413  57.680  1.00  0.00     0.035 A 
HETATM   16  C   UNL     1       8.075  30.268  58.594  1.00  0.00     0.053 A 
HETATM   17  C   UNL     1       8.735  31.390  59.095  1.00  0.00     0.036 A 
HETATM   18 CL   UNL     1       7.942  32.406  60.234  1.00  0.00    -0.084 Cl
HETATM   19  C   UNL     1      10.031  31.686  58.688  1.00  0.00     0.024 A 
HETATM   20  C   UNL     1      10.666  30.850  57.772  1.00  0.00     0.004 A 
HETATM   21  C   UNL     1      10.008  29.720  57.271  1.00  0.00     0.029 A 
ENDBRANCH  13  15
ENDBRANCH  11  13
ENDBRANCH   1  11
BRANCH   1  22
HETATM   22  C   UNL     1       6.027  26.092  56.099  1.00  0.00     0.142 C 
BRANCH  22  23
HETATM   23  C   UNL     1       5.343  26.601  54.863  1.00  0.00     0.024 A 
HETATM   24  C   UNL     1       4.538  27.854  55.022  1.00  0.00     0.253 A 
HETATM   25  O   UNL     1       4.296  28.324  56.131  1.00  0.00    -0.268 OA
HETATM   26  N   UNL     1       4.064  28.445  53.885  1.00  0.00    -0.322 N 
HETATM   27  C   UNL     1       4.266  27.931  52.600  1.00  0.00     0.048 A 
HETATM   28  H   UNL     1       3.546  29.306  54.011  1.00  0.00     0.169 HD
HETATM   29  C   UNL     1       4.982  26.736  52.447  1.00  0.00    -0.006 A 
HETATM   30  C   UNL     1       3.765  28.619  51.495  1.00  0.00     0.070 A 
HETATM   31  C   UNL     1       5.181  26.219  51.164  1.00  0.00     0.053 A 
HETATM   32  C   UNL     1       5.539  26.086  53.636  1.00  0.00     0.027 A 
HETATM   33  C   UNL     1       4.676  26.899  50.054  1.00  0.00     0.103 A 
HETATM   34  C   UNL     1       3.992  28.110  50.220  1.00  0.00     0.104 A 
HETATM   35  O   UNL     1       4.905  26.331  48.827  1.00  0.00    -0.346 OA
HETATM   36  O   UNL     1       3.515  28.853  49.170  1.00  0.00    -0.346 OA
HETATM   37  C   UNL     1       4.124  28.456  47.935  1.00  0.00     0.202 C 
HETATM   38  C   UNL     1       4.110  26.942  47.801  1.00  0.00     0.202 C 
ENDBRANCH  22  23
ENDBRANCH   1  22
TORSDOF 11
ENDMDL
MODEL 10
REMARK VINA RESULT:      -8.2      4.114      8.034
REMARK  11 active torsions:
REMARK  status: ('A' for Active; 'I' for Inactive)
REMARK    1  A    between atoms: C_2  and  N_3 
REMARK    2  A    between atoms: N_3  and  C_5 
REMARK    3  A    between atoms: N_3  and  C_35 
REMARK    4  A    between atoms: C_5  and  C_6 
REMARK    5  A    between atoms: C_6  and  C_7 
REMARK    6  A    between atoms: C_7  and  N_8 
REMARK    7  A    between atoms: N_8  and  C_9 
REMARK    8  A    between atoms: N_8  and  C_19 
REMARK    9  A    between atoms: C_9  and  N_10 
REMARK   10  A    between atoms: N_10  and  C_11 
REMARK   11  A    between atoms: C_19  and  C_20 
ROOT
HETATM    1  N   UNL     1       5.755  27.281  53.082  1.00  0.00    -0.255 NA
ENDROOT
BRANCH   1   2
HETATM    2  C   UNL     1       5.613  27.967  51.782  1.00  0.00     0.100 C 
BRANCH   2   3
HETATM    3  C   UNL     1       4.175  28.185  51.276  1.00  0.00     0.042 C 
BRANCH   3   4
HETATM    4  C   UNL     1       4.093  28.225  49.754  1.00  0.00     0.236 C 
BRANCH   4   5
HETATM    5  N   UNL     1       3.162  27.164  49.175  1.00  0.00    -0.072 N 
HETATM    6  H   UNL     1       2.896  26.579  49.979  1.00  0.00     0.279 HD
BRANCH   5   7
HETATM    7  C   UNL     1       3.827  26.212  48.191  1.00  0.00     0.230 C 
HETATM    8  C   UNL     1       3.062  24.907  48.075  1.00  0.00     0.034 C 
ENDBRANCH   5   7
BRANCH   5   9
HETATM    9  C   UNL     1       1.850  27.681  48.612  1.00  0.00     0.230 C 
HETATM   10  C   UNL     1       2.047  28.382  47.280  1.00  0.00     0.034 C 
ENDBRANCH   5   9
ENDBRANCH   4   5
ENDBRANCH   3   4
ENDBRANCH   2   3
ENDBRANCH   1   2
BRANCH   1  11
HETATM   11  C   UNL     1       5.942  25.907  53.060  1.00  0.00     0.153 C 
HETATM   12  S   UNL     1       4.719  24.783  52.789  1.00  0.00    -0.047 SA
BRANCH  11  13
HETATM   13  N   UNL     1       7.198  25.409  53.234  1.00  0.00    -0.338 N 
HETATM   14  H   UNL     1       7.883  25.963  52.728  1.00  0.00     0.168 HD
BRANCH  13  15
HETATM   15  C   UNL     1       7.719  24.267  53.877  1.00  0.00     0.035 A 
HETATM   16  C   UNL     1       7.765  23.094  53.109  1.00  0.00     0.053 A 
HETATM   17  C   UNL     1       8.279  21.913  53.644  1.00  0.00     0.036 A 
HETATM   18 CL   UNL     1       8.348  20.497  52.670  1.00  0.00    -0.084 Cl
HETATM   19  C   UNL     1       8.746  21.876  54.953  1.00  0.00     0.024 A 
HETATM   20  C   UNL     1       8.693  23.032  55.728  1.00  0.00     0.004 A 
HETATM   21  C   UNL     1       8.182  24.221  55.192  1.00  0.00     0.029 A 
ENDBRANCH  13  15
ENDBRANCH  11  13
ENDBRANCH   1  11
BRANCH   1  22
HETATM   22  C   UNL     1       4.771  27.707  54.110  1.00  0.00     0.142 C 
BRANCH  22  23
HETATM   23  C   UNL     1       5.279  28.749  55.063  1.00  0.00     0.024 A 
HETATM   24  C   UNL     1       4.539  30.051  55.074  1.00  0.00     0.253 A 
HETATM   25  O   UNL     1       3.695  30.315  54.221  1.00  0.00    -0.268 OA
HETATM   26  N   UNL     1       4.853  30.945  56.059  1.00  0.00    -0.322 N 
HETATM   27  C   UNL     1       5.838  30.720  57.026  1.00  0.00     0.048 A 
HETATM   28  H   UNL     1       4.323  31.807  56.066  1.00  0.00     0.169 HD
HETATM   29  C   UNL     1       6.564  29.522  56.996  1.00  0.00    -0.006 A 
HETATM   30  C   UNL     1       6.072  31.682  58.009  1.00  0.00     0.070 A 
HETATM   31  C   UNL     1       7.552  29.297  57.960  1.00  0.00     0.053 A 
HETATM   32  C   UNL     1       6.237  28.519  55.980  1.00  0.00     0.027 A 
HETATM   33  C   UNL     1       7.795  30.259  58.942  1.00  0.00     0.103 A 
HETATM   34  C   UNL     1       7.038  31.437  58.980  1.00  0.00     0.104 A 
HETATM   35  O   UNL     1       8.781  29.973  59.852  1.00  0.00    -0.346 OA
HETATM   36  O   UNL     1       7.192  32.398  59.947  1.00  0.00    -0.346 OA
HETATM   37  C   UNL     1       7.907  31.885  61.078  1.00  0.00     0.202 C 
HETATM   38  C   UNL     1       9.144  31.127  60.623  1.00  0.00     0.202 C 
ENDBRANCH  22  23
ENDBRANCH   1  22
TORSDOF 11
ENDMDL
