MODEL 1
REMARK VINA RESULT:     -10.7      0.000      0.000
REMARK  4 active torsions:
REMARK  status: ('A' for Active; 'I' for Inactive)
REMARK    1  A    between atoms: C_3  and  N_4 
REMARK    2  A    between atoms: C_11  and  C_12 
REMARK       I    between atoms: C_12  and  N_13 
REMARK    3  A    between atoms: N_13  and  C_14 
REMARK    4  A    between atoms: C_19  and  O_20 
ROOT
HETATM    1  C   UNL     1       7.286  31.557  60.955  1.00  0.00     0.036 A 
HETATM    2  C   UNL     1       6.362  32.554  61.265  1.00  0.00     0.049 A 
HETATM    3  C   UNL     1       6.455  33.275  62.473  1.00  0.00     0.063 A 
HETATM    4  C   UNL     1       7.479  32.995  63.398  1.00  0.00     0.075 A 
HETATM    5  N   UNL     1       7.688  33.614  64.649  1.00  0.00    -0.226 NA
HETATM    6  C   UNL     1       6.679  33.881  65.410  1.00  0.00     0.161 C 
HETATM    7  C   UNL     1       5.216  33.647  65.091  1.00  0.00     0.164 C 
HETATM    8  N   UNL     1       4.945  34.516  63.956  1.00  0.00    -0.336 N 
HETATM    9  C   UNL     1       5.440  34.341  62.685  1.00  0.00     0.257 C 
HETATM   10  O   UNL     1       5.071  35.024  61.734  1.00  0.00    -0.267 OA
HETATM   11  C   UNL     1       4.208  34.090  66.150  1.00  0.00     0.035 C 
HETATM   12  C   UNL     1       3.932  35.550  65.798  1.00  0.00     0.022 C 
HETATM   13  C   UNL     1       3.984  35.551  64.278  1.00  0.00     0.127 C 
HETATM   14  C   UNL     1       8.424  32.024  63.048  1.00  0.00     0.035 A 
HETATM   15  C   UNL     1       8.336  31.318  61.845  1.00  0.00     0.032 A 
ENDROOT
BRANCH   1  16
HETATM   16  N   UNL     1       7.230  30.745  59.804  1.00  0.00    -0.323 N 
HETATM   17  C   UNL     1       6.815  31.115  58.535  1.00  0.00     0.256 C 
HETATM   18  O   UNL     1       6.508  32.246  58.178  1.00  0.00    -0.267 OA
HETATM   19  H   UNL     1       7.495  29.781  59.944  1.00  0.00     0.169 HD
BRANCH  17  20
HETATM   20  C   UNL     1       6.729  30.008  57.530  1.00  0.00     0.033 A 
HETATM   21  C   UNL     1       6.042  30.136  56.322  1.00  0.00     0.019 A 
HETATM   22  C   UNL     1       6.022  29.075  55.410  1.00  0.00     0.031 A 
HETATM   23  C   UNL     1       6.709  27.873  55.670  1.00  0.00     0.044 A 
HETATM   24  C   UNL     1       7.399  27.725  56.893  1.00  0.00    -0.034 A 
HETATM   25  C   UNL     1       8.107  26.475  57.340  1.00  0.00     0.050 C 
HETATM   26  C   UNL     1       7.409  28.811  57.797  1.00  0.00     0.026 A 
BRANCH  23  27
HETATM   27  N   UNL     1       6.682  26.868  54.653  1.00  0.00    -0.332 N 
HETATM   28  C   UNL     1       5.818  25.797  54.550  1.00  0.00     0.096 A 
HETATM   29  C   UNL     1       6.145  25.050  53.439  1.00  0.00     0.019 A 
HETATM   30  C   UNL     1       7.262  25.661  52.838  1.00  0.00     0.019 A 
HETATM   31  C   UNL     1       7.584  26.758  53.607  1.00  0.00     0.096 A 
ENDBRANCH  23  27
ENDBRANCH  17  20
ENDBRANCH   1  16
BRANCH   6  32
HETATM   32  O   UNL     1       6.957  34.423  66.601  1.00  0.00    -0.346 OA
HETATM   33  H   UNL     1       7.926  34.441  66.688  1.00  0.00     0.219 HD
ENDBRANCH   6  32
TORSDOF 4
ENDMDL
MODEL 2
REMARK VINA RESULT:      -9.9      2.077     10.665
REMARK  4 active torsions:
REMARK  status: ('A' for Active; 'I' for Inactive)
REMARK    1  A    between atoms: C_3  and  N_4 
REMARK    2  A    between atoms: C_11  and  C_12 
REMARK       I    between atoms: C_12  and  N_13 
REMARK    3  A    between atoms: N_13  and  C_14 
REMARK    4  A    between atoms: C_19  and  O_20 
ROOT
HETATM    1  C   UNL     1       6.036  30.576  57.819  1.00  0.00     0.036 A 
HETATM    2  C   UNL     1       6.767  29.389  57.823  1.00  0.00     0.049 A 
HETATM    3  C   UNL     1       6.868  28.599  56.659  1.00  0.00     0.063 A 
HETATM    4  C   UNL     1       6.222  28.990  55.470  1.00  0.00     0.075 A 
HETATM    5  N   UNL     1       6.215  28.299  54.239  1.00  0.00    -0.226 NA
HETATM    6  C   UNL     1       6.088  27.013  54.226  1.00  0.00     0.161 C 
HETATM    7  C   UNL     1       5.993  26.099  55.430  1.00  0.00     0.164 C 
HETATM    8  N   UNL     1       7.275  26.245  56.104  1.00  0.00    -0.336 N 
HETATM    9  C   UNL     1       7.703  27.374  56.763  1.00  0.00     0.257 C 
HETATM   10  O   UNL     1       8.733  27.397  57.430  1.00  0.00    -0.267 OA
HETATM   11  C   UNL     1       5.890  24.602  55.143  1.00  0.00     0.035 C 
HETATM   12  C   UNL     1       7.346  24.149  55.059  1.00  0.00     0.022 C 
HETATM   13  C   UNL     1       8.034  25.011  56.107  1.00  0.00     0.127 C 
HETATM   14  C   UNL     1       5.533  30.208  55.473  1.00  0.00     0.035 A 
HETATM   15  C   UNL     1       5.444  30.994  56.626  1.00  0.00     0.032 A 
ENDROOT
BRANCH   1  16
HETATM   16  N   UNL     1       5.829  31.390  58.952  1.00  0.00    -0.323 N 
HETATM   17  C   UNL     1       6.763  32.184  59.598  1.00  0.00     0.256 C 
HETATM   18  O   UNL     1       7.917  32.381  59.234  1.00  0.00    -0.267 OA
HETATM   19  H   UNL     1       4.899  31.355  59.342  1.00  0.00     0.169 HD
BRANCH  17  20
HETATM   20  C   UNL     1       6.299  32.838  60.862  1.00  0.00     0.033 A 
HETATM   21  C   UNL     1       5.063  33.476  60.975  1.00  0.00     0.019 A 
HETATM   22  C   UNL     1       4.675  34.043  62.193  1.00  0.00     0.031 A 
HETATM   23  C   UNL     1       5.497  33.964  63.334  1.00  0.00     0.044 A 
HETATM   24  C   UNL     1       6.755  33.332  63.232  1.00  0.00    -0.034 A 
HETATM   25  C   UNL     1       7.769  33.243  64.340  1.00  0.00     0.050 C 
HETATM   26  C   UNL     1       7.126  32.762  61.993  1.00  0.00     0.026 A 
BRANCH  23  27
HETATM   27  N   UNL     1       4.990  34.520  64.549  1.00  0.00    -0.332 N 
HETATM   28  C   UNL     1       4.442  33.844  65.621  1.00  0.00     0.096 A 
HETATM   29  C   UNL     1       4.049  34.750  66.582  1.00  0.00     0.019 A 
HETATM   30  C   UNL     1       4.341  36.036  66.088  1.00  0.00     0.019 A 
HETATM   31  C   UNL     1       4.897  35.872  64.839  1.00  0.00     0.096 A 
ENDBRANCH  23  27
ENDBRANCH  17  20
ENDBRANCH   1  16
BRANCH   6  32
HETATM   32  O   UNL     1       6.041  26.432  53.021  1.00  0.00    -0.346 OA
HETATM   33  H   UNL     1       5.615  25.565  53.139  1.00  0.00     0.219 HD
ENDBRANCH   6  32
TORSDOF 4
ENDMDL
MODEL 3
REMARK VINA RESULT:      -9.9      9.780     13.646
REMARK  4 active torsions:
REMARK  status: ('A' for Active; 'I' for Inactive)
REMARK    1  A    between atoms: C_3  and  N_4 
REMARK    2  A    between atoms: C_11  and  C_12 
REMARK       I    between atoms: C_12  and  N_13 
REMARK    3  A    between atoms: N_13  and  C_14 
REMARK    4  A    between atoms: C_19  and  O_20 
ROOT
HETATM    1  C   UNL     1       4.704  26.849  49.818  1.00  0.00     0.036 A 
HETATM    2  C   UNL     1       3.660  26.492  48.966  1.00  0.00     0.049 A 
HETATM    3  C   UNL     1       3.225  27.367  47.949  1.00  0.00     0.063 A 
HETATM    4  C   UNL     1       3.832  28.626  47.779  1.00  0.00     0.075 A 
HETATM    5  N   UNL     1       3.496  29.611  46.825  1.00  0.00    -0.226 NA
HETATM    6  C   UNL     1       2.254  29.852  46.563  1.00  0.00     0.161 C 
HETATM    7  C   UNL     1       1.049  29.140  47.142  1.00  0.00     0.164 C 
HETATM    8  N   UNL     1       1.171  27.769  46.669  1.00  0.00    -0.336 N 
HETATM    9  C   UNL     1       2.130  26.870  47.075  1.00  0.00     0.257 C 
HETATM   10  O   UNL     1       2.105  25.687  46.748  1.00  0.00    -0.267 OA
HETATM   11  C   UNL     1      -0.319  29.590  46.634  1.00  0.00     0.035 C 
HETATM   12  C   UNL     1      -0.548  28.726  45.396  1.00  0.00     0.022 C 
HETATM   13  C   UNL     1       0.086  27.398  45.785  1.00  0.00     0.127 C 
HETATM   14  C   UNL     1       4.910  28.946  48.613  1.00  0.00     0.035 A 
HETATM   15  C   UNL     1       5.345  28.073  49.613  1.00  0.00     0.032 A 
ENDROOT
BRANCH   1  16
HETATM   16  N   UNL     1       5.156  26.066  50.899  1.00  0.00    -0.323 N 
HETATM   17  C   UNL     1       5.086  26.375  52.248  1.00  0.00     0.256 C 
HETATM   18  O   UNL     1       4.533  27.355  52.735  1.00  0.00    -0.267 OA
HETATM   19  H   UNL     1       5.607  25.200  50.644  1.00  0.00     0.169 HD
BRANCH  17  20
HETATM   20  C   UNL     1       5.770  25.417  53.173  1.00  0.00     0.033 A 
HETATM   21  C   UNL     1       5.585  25.436  54.555  1.00  0.00     0.019 A 
HETATM   22  C   UNL     1       6.230  24.495  55.364  1.00  0.00     0.031 A 
HETATM   23  C   UNL     1       7.054  23.495  54.810  1.00  0.00     0.044 A 
HETATM   24  C   UNL     1       7.260  23.470  53.413  1.00  0.00    -0.034 A 
HETATM   25  C   UNL     1       8.173  22.515  52.693  1.00  0.00     0.050 C 
HETATM   26  C   UNL     1       6.595  24.428  52.616  1.00  0.00     0.026 A 
BRANCH  23  27
HETATM   27  N   UNL     1       7.622  22.540  55.709  1.00  0.00    -0.332 N 
HETATM   28  C   UNL     1       7.646  21.167  55.575  1.00  0.00     0.096 A 
HETATM   29  C   UNL     1       8.265  20.609  56.673  1.00  0.00     0.019 A 
HETATM   30  C   UNL     1       8.621  21.666  57.532  1.00  0.00     0.019 A 
HETATM   31  C   UNL     1       8.202  22.833  56.932  1.00  0.00     0.096 A 
ENDBRANCH  23  27
ENDBRANCH  17  20
ENDBRANCH   1  16
BRANCH   6  32
HETATM   32  O   UNL     1       2.011  30.832  45.684  1.00  0.00    -0.346 OA
HETATM   33  H   UNL     1       1.229  31.314  46.004  1.00  0.00     0.219 HD
ENDBRANCH   6  32
TORSDOF 4
ENDMDL
MODEL 4
REMARK VINA RESULT:      -9.3      2.252      3.438
REMARK  4 active torsions:
REMARK  status: ('A' for Active; 'I' for Inactive)
REMARK    1  A    between atoms: C_3  and  N_4 
REMARK    2  A    between atoms: C_11  and  C_12 
REMARK       I    between atoms: C_12  and  N_13 
REMARK    3  A    between atoms: N_13  and  C_14 
REMARK    4  A    between atoms: C_19  and  O_20 
ROOT
HETATM    1  C   UNL     1       5.176  32.289  59.415  1.00  0.00     0.036 A 
HETATM    2  C   UNL     1       5.090  32.605  60.770  1.00  0.00     0.049 A 
HETATM    3  C   UNL     1       4.611  33.864  61.189  1.00  0.00     0.063 A 
HETATM    4  C   UNL     1       4.218  34.832  60.245  1.00  0.00     0.075 A 
HETATM    5  N   UNL     1       3.740  36.133  60.509  1.00  0.00    -0.226 NA
HETATM    6  C   UNL     1       4.291  36.843  61.436  1.00  0.00     0.161 C 
HETATM    7  C   UNL     1       5.414  36.416  62.360  1.00  0.00     0.164 C 
HETATM    8  N   UNL     1       4.848  35.327  63.144  1.00  0.00    -0.336 N 
HETATM    9  C   UNL     1       4.525  34.082  62.657  1.00  0.00     0.257 C 
HETATM   10  O   UNL     1       4.180  33.158  63.388  1.00  0.00    -0.267 OA
HETATM   11  C   UNL     1       5.862  37.435  63.406  1.00  0.00     0.035 C 
HETATM   12  C   UNL     1       4.938  37.167  64.592  1.00  0.00     0.022 C 
HETATM   13  C   UNL     1       4.760  35.656  64.552  1.00  0.00     0.127 C 
HETATM   14  C   UNL     1       4.267  34.478  58.891  1.00  0.00     0.035 A 
HETATM   15  C   UNL     1       4.733  33.226  58.480  1.00  0.00     0.032 A 
ENDROOT
BRANCH   1  16
HETATM   16  N   UNL     1       5.704  31.084  58.908  1.00  0.00    -0.323 N 
HETATM   17  C   UNL     1       6.997  30.851  58.471  1.00  0.00     0.256 C 
HETATM   18  O   UNL     1       7.933  31.641  58.534  1.00  0.00    -0.267 OA
HETATM   19  H   UNL     1       5.044  30.323  58.834  1.00  0.00     0.169 HD
BRANCH  17  20
HETATM   20  C   UNL     1       7.246  29.510  57.854  1.00  0.00     0.033 A 
HETATM   21  C   UNL     1       8.527  29.010  57.619  1.00  0.00     0.019 A 
HETATM   22  C   UNL     1       8.693  27.736  57.066  1.00  0.00     0.031 A 
HETATM   23  C   UNL     1       7.587  26.920  56.760  1.00  0.00     0.044 A 
HETATM   24  C   UNL     1       6.284  27.416  56.982  1.00  0.00    -0.034 A 
HETATM   25  C   UNL     1       5.013  26.692  56.630  1.00  0.00     0.050 C 
HETATM   26  C   UNL     1       6.140  28.704  57.545  1.00  0.00     0.026 A 
BRANCH  23  27
HETATM   27  N   UNL     1       7.857  25.610  56.255  1.00  0.00    -0.332 N 
HETATM   28  C   UNL     1       8.415  24.545  56.932  1.00  0.00     0.096 A 
HETATM   29  C   UNL     1       8.531  23.469  56.078  1.00  0.00     0.019 A 
HETATM   30  C   UNL     1       8.049  23.880  54.821  1.00  0.00     0.019 A 
HETATM   31  C   UNL     1       7.660  25.196  54.947  1.00  0.00     0.096 A 
ENDBRANCH  23  27
ENDBRANCH  17  20
ENDBRANCH   1  16
BRANCH   6  32
HETATM   32  O   UNL     1       3.817  38.085  61.598  1.00  0.00    -0.346 OA
HETATM   33  H   UNL     1       2.853  38.040  61.480  1.00  0.00     0.219 HD
ENDBRANCH   6  32
TORSDOF 4
ENDMDL
MODEL 5
REMARK VINA RESULT:      -9.1      4.739     12.028
REMARK  4 active torsions:
REMARK  status: ('A' for Active; 'I' for Inactive)
REMARK    1  A    between atoms: C_3  and  N_4 
REMARK    2  A    between atoms: C_11  and  C_12 
REMARK       I    between atoms: C_12  and  N_13 
REMARK    3  A    between atoms: N_13  and  C_14 
REMARK    4  A    between atoms: C_19  and  O_20 
ROOT
HETATM    1  C   UNL     1       5.743  27.965  53.226  1.00  0.00     0.036 A 
HETATM    2  C   UNL     1       4.761  28.620  52.484  1.00  0.00     0.049 A 
HETATM    3  C   UNL     1       4.378  28.144  51.213  1.00  0.00     0.063 A 
HETATM    4  C   UNL     1       4.988  27.000  50.662  1.00  0.00     0.075 A 
HETATM    5  N   UNL     1       4.726  26.420  49.403  1.00  0.00    -0.226 NA
HETATM    6  C   UNL     1       4.551  27.177  48.371  1.00  0.00     0.161 C 
HETATM    7  C   UNL     1       4.540  28.692  48.349  1.00  0.00     0.164 C 
HETATM    8  N   UNL     1       3.392  29.062  49.163  1.00  0.00    -0.336 N 
HETATM    9  C   UNL     1       3.296  28.897  50.525  1.00  0.00     0.257 C 
HETATM   10  O   UNL     1       2.363  29.351  51.180  1.00  0.00    -0.267 OA
HETATM   11  C   UNL     1       4.270  29.352  46.998  1.00  0.00     0.035 C 
HETATM   12  C   UNL     1       2.747  29.456  46.945  1.00  0.00     0.022 C 
HETATM   13  C   UNL     1       2.373  29.743  48.391  1.00  0.00     0.127 C 
HETATM   14  C   UNL     1       5.937  26.329  51.443  1.00  0.00     0.035 A 
HETATM   15  C   UNL     1       6.307  26.798  52.706  1.00  0.00     0.032 A 
ENDROOT
BRANCH   1  16
HETATM   16  N   UNL     1       6.232  28.409  54.471  1.00  0.00    -0.323 N 
HETATM   17  C   UNL     1       5.595  28.332  55.699  1.00  0.00     0.256 C 
HETATM   18  O   UNL     1       4.524  27.780  55.922  1.00  0.00    -0.267 OA
HETATM   19  H   UNL     1       7.136  28.857  54.443  1.00  0.00     0.169 HD
BRANCH  17  20
HETATM   20  C   UNL     1       6.293  29.008  56.839  1.00  0.00     0.033 A 
HETATM   21  C   UNL     1       7.400  28.455  57.483  1.00  0.00     0.019 A 
HETATM   22  C   UNL     1       8.026  29.149  58.523  1.00  0.00     0.031 A 
HETATM   23  C   UNL     1       7.581  30.423  58.926  1.00  0.00     0.044 A 
HETATM   24  C   UNL     1       6.455  30.991  58.291  1.00  0.00    -0.034 A 
HETATM   25  C   UNL     1       5.821  32.302  58.668  1.00  0.00     0.050 C 
HETATM   26  C   UNL     1       5.841  30.274  57.241  1.00  0.00     0.026 A 
BRANCH  23  27
HETATM   27  N   UNL     1       8.322  31.082  59.956  1.00  0.00    -0.332 N 
HETATM   28  C   UNL     1       9.536  31.729  59.839  1.00  0.00     0.096 A 
HETATM   29  C   UNL     1       9.922  32.206  61.073  1.00  0.00     0.019 A 
HETATM   30  C   UNL     1       8.928  31.829  61.996  1.00  0.00     0.019 A 
HETATM   31  C   UNL     1       7.971  31.127  61.296  1.00  0.00     0.096 A 
ENDBRANCH  23  27
ENDBRANCH  17  20
ENDBRANCH   1  16
BRANCH   6  32
HETATM   32  O   UNL     1       4.355  26.555  47.202  1.00  0.00    -0.346 OA
HETATM   33  H   UNL     1       3.631  25.920  47.334  1.00  0.00     0.219 HD
ENDBRANCH   6  32
TORSDOF 4
ENDMDL
MODEL 6
REMARK VINA RESULT:      -9.1      2.590     11.105
REMARK  4 active torsions:
REMARK  status: ('A' for Active; 'I' for Inactive)
REMARK    1  A    between atoms: C_3  and  N_4 
REMARK    2  A    between atoms: C_11  and  C_12 
REMARK       I    between atoms: C_12  and  N_13 
REMARK    3  A    between atoms: N_13  and  C_14 
REMARK    4  A    between atoms: C_19  and  O_20 
ROOT
HETATM    1  C   UNL     1       5.229  29.553  56.521  1.00  0.00     0.036 A 
HETATM    2  C   UNL     1       6.286  28.934  55.856  1.00  0.00     0.049 A 
HETATM    3  C   UNL     1       6.065  28.199  54.673  1.00  0.00     0.063 A 
HETATM    4  C   UNL     1       4.767  28.068  54.143  1.00  0.00     0.075 A 
HETATM    5  N   UNL     1       4.388  27.353  52.987  1.00  0.00    -0.226 NA
HETATM    6  C   UNL     1       4.916  26.199  52.744  1.00  0.00     0.161 C 
HETATM    7  C   UNL     1       5.984  25.500  53.560  1.00  0.00     0.164 C 
HETATM    8  N   UNL     1       7.150  26.366  53.456  1.00  0.00    -0.336 N 
HETATM    9  C   UNL     1       7.268  27.613  54.026  1.00  0.00     0.257 C 
HETATM   10  O   UNL     1       8.322  28.242  54.022  1.00  0.00    -0.267 OA
HETATM   11  C   UNL     1       6.472  24.152  53.033  1.00  0.00     0.035 C 
HETATM   12  C   UNL     1       7.606  24.525  52.081  1.00  0.00     0.022 C 
HETATM   13  C   UNL     1       8.248  25.722  52.765  1.00  0.00     0.127 C 
HETATM   14  C   UNL     1       3.726  28.736  54.799  1.00  0.00     0.035 A 
HETATM   15  C   UNL     1       3.950  29.472  55.966  1.00  0.00     0.032 A 
ENDROOT
BRANCH   1  16
HETATM   16  N   UNL     1       5.350  30.249  57.741  1.00  0.00    -0.323 N 
HETATM   17  C   UNL     1       5.587  31.602  57.916  1.00  0.00     0.256 C 
HETATM   18  O   UNL     1       5.644  32.445  57.028  1.00  0.00    -0.267 OA
HETATM   19  H   UNL     1       5.286  29.677  58.570  1.00  0.00     0.169 HD
BRANCH  17  20
HETATM   20  C   UNL     1       5.806  32.049  59.329  1.00  0.00     0.033 A 
HETATM   21  C   UNL     1       7.076  32.240  59.874  1.00  0.00     0.019 A 
HETATM   22  C   UNL     1       7.214  32.686  61.192  1.00  0.00     0.031 A 
HETATM   23  C   UNL     1       6.089  32.979  61.988  1.00  0.00     0.044 A 
HETATM   24  C   UNL     1       4.798  32.779  61.454  1.00  0.00    -0.034 A 
HETATM   25  C   UNL     1       3.512  32.972  62.211  1.00  0.00     0.050 C 
HETATM   26  C   UNL     1       4.682  32.332  60.119  1.00  0.00     0.026 A 
BRANCH  23  27
HETATM   27  N   UNL     1       6.330  33.487  63.302  1.00  0.00    -0.332 N 
HETATM   28  C   UNL     1       5.691  34.538  63.929  1.00  0.00     0.096 A 
HETATM   29  C   UNL     1       6.238  34.726  65.181  1.00  0.00     0.019 A 
HETATM   30  C   UNL     1       7.265  33.776  65.335  1.00  0.00     0.019 A 
HETATM   31  C   UNL     1       7.316  33.044  64.169  1.00  0.00     0.096 A 
ENDBRANCH  23  27
ENDBRANCH  17  20
ENDBRANCH   1  16
BRANCH   6  32
HETATM   32  O   UNL     1       4.473  25.559  51.655  1.00  0.00    -0.346 OA
HETATM   33  H   UNL     1       3.561  25.859  51.498  1.00  0.00     0.219 HD
ENDBRANCH   6  32
TORSDOF 4
ENDMDL
MODEL 7
REMARK VINA RESULT:      -9.1      4.405      6.430
REMARK  4 active torsions:
REMARK  status: ('A' for Active; 'I' for Inactive)
REMARK    1  A    between atoms: C_3  and  N_4 
REMARK    2  A    between atoms: C_11  and  C_12 
REMARK       I    between atoms: C_12  and  N_13 
REMARK    3  A    between atoms: N_13  and  C_14 
REMARK    4  A    between atoms: C_19  and  O_20 
ROOT
HETATM    1  C   UNL     1       4.372  29.343  55.863  1.00  0.00     0.036 A 
HETATM    2  C   UNL     1       4.196  29.976  57.093  1.00  0.00     0.049 A 
HETATM    3  C   UNL     1       3.542  31.222  57.177  1.00  0.00     0.063 A 
HETATM    4  C   UNL     1       3.061  31.859  56.017  1.00  0.00     0.075 A 
HETATM    5  N   UNL     1       2.408  33.108  55.941  1.00  0.00    -0.226 NA
HETATM    6  C   UNL     1       2.828  34.097  56.658  1.00  0.00     0.161 C 
HETATM    7  C   UNL     1       3.962  34.071  57.663  1.00  0.00     0.164 C 
HETATM    8  N   UNL     1       3.515  33.148  58.696  1.00  0.00    -0.336 N 
HETATM    9  C   UNL     1       3.375  31.789  58.542  1.00  0.00     0.257 C 
HETATM   10  O   UNL     1       3.127  31.040  59.482  1.00  0.00    -0.267 OA
HETATM   11  C   UNL     1       4.236  35.371  58.417  1.00  0.00     0.035 C 
HETATM   12  C   UNL     1       3.312  35.288  59.630  1.00  0.00     0.022 C 
HETATM   13  C   UNL     1       3.333  33.806  59.974  1.00  0.00     0.127 C 
HETATM   14  C   UNL     1       3.206  31.186  54.798  1.00  0.00     0.035 A 
HETATM   15  C   UNL     1       3.845  29.946  54.719  1.00  0.00     0.032 A 
ENDROOT
BRANCH   1  16
HETATM   16  N   UNL     1       5.071  28.132  55.680  1.00  0.00    -0.323 N 
HETATM   17  C   UNL     1       6.438  27.965  55.535  1.00  0.00     0.256 C 
HETATM   18  O   UNL     1       7.286  28.844  55.630  1.00  0.00    -0.267 OA
HETATM   19  H   UNL     1       4.492  27.307  55.621  1.00  0.00     0.169 HD
BRANCH  17  20
HETATM   20  C   UNL     1       6.894  26.574  55.218  1.00  0.00     0.033 A 
HETATM   21  C   UNL     1       6.944  25.558  56.173  1.00  0.00     0.019 A 
HETATM   22  C   UNL     1       7.352  24.271  55.808  1.00  0.00     0.031 A 
HETATM   23  C   UNL     1       7.693  23.960  54.477  1.00  0.00     0.044 A 
HETATM   24  C   UNL     1       7.658  24.981  53.503  1.00  0.00    -0.034 A 
HETATM   25  C   UNL     1       8.071  24.816  52.065  1.00  0.00     0.050 C 
HETATM   26  C   UNL     1       7.240  26.272  53.893  1.00  0.00     0.026 A 
BRANCH  23  27
HETATM   27  N   UNL     1       8.039  22.604  54.188  1.00  0.00    -0.332 N 
HETATM   28  C   UNL     1       7.660  21.853  53.094  1.00  0.00     0.096 A 
HETATM   29  C   UNL     1       8.183  20.582  53.206  1.00  0.00     0.019 A 
HETATM   30  C   UNL     1       8.895  20.530  54.419  1.00  0.00     0.019 A 
HETATM   31  C   UNL     1       8.778  21.769  55.010  1.00  0.00     0.096 A 
ENDBRANCH  23  27
ENDBRANCH  17  20
ENDBRANCH   1  16
BRANCH   6  32
HETATM   32  O   UNL     1       2.191  35.263  56.498  1.00  0.00    -0.346 OA
HETATM   33  H   UNL     1       1.393  35.231  57.053  1.00  0.00     0.219 HD
ENDBRANCH   6  32
TORSDOF 4
ENDMDL
MODEL 8
REMARK VINA RESULT:      -8.6      3.457     11.084
REMARK  4 active torsions:
REMARK  status: ('A' for Active; 'I' for Inactive)
REMARK    1  A    between atoms: C_3  and  N_4 
REMARK    2  A    between atoms: C_11  and  C_12 
REMARK       I    between atoms: C_12  and  N_13 
REMARK    3  A    between atoms: N_13  and  C_14 
REMARK    4  A    between atoms: C_19  and  O_20 
ROOT
HETATM    1  C   UNL     1       5.266  29.390  55.847  1.00  0.00     0.036 A 
HETATM    2  C   UNL     1       4.713  29.901  54.674  1.00  0.00     0.049 A 
HETATM    3  C   UNL     1       4.471  29.064  53.564  1.00  0.00     0.063 A 
HETATM    4  C   UNL     1       4.794  27.695  53.616  1.00  0.00     0.075 A 
HETATM    5  N   UNL     1       4.630  26.743  52.587  1.00  0.00    -0.226 NA
HETATM    6  C   UNL     1       4.917  27.060  51.368  1.00  0.00     0.161 C 
HETATM    7  C   UNL     1       5.383  28.412  50.868  1.00  0.00     0.164 C 
HETATM    8  N   UNL     1       4.265  29.306  51.132  1.00  0.00    -0.336 N 
HETATM    9  C   UNL     1       3.844  29.706  52.379  1.00  0.00     0.257 C 
HETATM   10  O   UNL     1       2.984  30.567  52.540  1.00  0.00    -0.267 OA
HETATM   11  C   UNL     1       5.616  28.540  49.364  1.00  0.00     0.035 C 
HETATM   12  C   UNL     1       4.247  28.939  48.818  1.00  0.00     0.022 C 
HETATM   13  C   UNL     1       3.691  29.837  49.913  1.00  0.00     0.127 C 
HETATM   14  C   UNL     1       5.304  27.191  54.818  1.00  0.00     0.035 A 
HETATM   15  C   UNL     1       5.533  28.021  55.920  1.00  0.00     0.032 A 
ENDROOT
BRANCH   1  16
HETATM   16  N   UNL     1       5.601  30.165  56.976  1.00  0.00    -0.323 N 
HETATM   17  C   UNL     1       6.867  30.414  57.478  1.00  0.00     0.256 C 
HETATM   18  O   UNL     1       7.926  30.069  56.967  1.00  0.00    -0.267 OA
HETATM   19  H   UNL     1       4.816  30.549  57.481  1.00  0.00     0.169 HD
BRANCH  17  20
HETATM   20  C   UNL     1       6.919  31.162  58.775  1.00  0.00     0.033 A 
HETATM   21  C   UNL     1       5.856  31.933  59.247  1.00  0.00     0.019 A 
HETATM   22  C   UNL     1       5.954  32.585  60.480  1.00  0.00     0.031 A 
HETATM   23  C   UNL     1       7.103  32.460  61.285  1.00  0.00     0.044 A 
HETATM   24  C   UNL     1       8.191  31.692  60.816  1.00  0.00    -0.034 A 
HETATM   25  C   UNL     1       9.508  31.536  61.528  1.00  0.00     0.050 C 
HETATM   26  C   UNL     1       8.069  31.040  59.569  1.00  0.00     0.026 A 
BRANCH  23  27
HETATM   27  N   UNL     1       7.088  33.113  62.557  1.00  0.00    -0.332 N 
HETATM   28  C   UNL     1       7.724  32.715  63.715  1.00  0.00     0.096 A 
HETATM   29  C   UNL     1       7.433  33.606  64.726  1.00  0.00     0.019 A 
HETATM   30  C   UNL     1       6.572  34.581  64.189  1.00  0.00     0.019 A 
HETATM   31  C   UNL     1       6.360  34.249  62.869  1.00  0.00     0.096 A 
ENDBRANCH  23  27
ENDBRANCH  17  20
ENDBRANCH   1  16
BRANCH   6  32
HETATM   32  O   UNL     1       4.783  26.092  50.453  1.00  0.00    -0.346 OA
HETATM   33  H   UNL     1       4.296  26.474  49.703  1.00  0.00     0.219 HD
ENDBRANCH   6  32
TORSDOF 4
ENDMDL
MODEL 9
REMARK VINA RESULT:      -8.5      4.614      6.296
REMARK  4 active torsions:
REMARK  status: ('A' for Active; 'I' for Inactive)
REMARK    1  A    between atoms: C_3  and  N_4 
REMARK    2  A    between atoms: C_11  and  C_12 
REMARK       I    between atoms: C_12  and  N_13 
REMARK    3  A    between atoms: N_13  and  C_14 
REMARK    4  A    between atoms: C_19  and  O_20 
ROOT
HETATM    1  C   UNL     1       5.913  30.060  56.355  1.00  0.00     0.036 A 
HETATM    2  C   UNL     1       5.360  31.074  55.574  1.00  0.00     0.049 A 
HETATM    3  C   UNL     1       5.069  32.337  56.129  1.00  0.00     0.063 A 
HETATM    4  C   UNL     1       5.324  32.597  57.489  1.00  0.00     0.075 A 
HETATM    5  N   UNL     1       5.070  33.797  58.188  1.00  0.00    -0.226 NA
HETATM    6  C   UNL     1       3.974  34.446  57.971  1.00  0.00     0.161 C 
HETATM    7  C   UNL     1       2.892  34.092  56.971  1.00  0.00     0.164 C 
HETATM    8  N   UNL     1       3.542  34.201  55.674  1.00  0.00    -0.336 N 
HETATM    9  C   UNL     1       4.516  33.355  55.198  1.00  0.00     0.257 C 
HETATM   10  O   UNL     1       4.932  33.411  54.045  1.00  0.00    -0.267 OA
HETATM   11  C   UNL     1       1.708  35.052  56.879  1.00  0.00     0.035 C 
HETATM   12  C   UNL     1       2.159  36.085  55.849  1.00  0.00     0.022 C 
HETATM   13  C   UNL     1       2.966  35.254  54.862  1.00  0.00     0.127 C 
HETATM   14  C   UNL     1       5.923  31.583  58.245  1.00  0.00     0.035 A 
HETATM   15  C   UNL     1       6.219  30.335  57.690  1.00  0.00     0.032 A 
ENDROOT
BRANCH   1  16
HETATM   16  N   UNL     1       6.173  28.751  55.899  1.00  0.00    -0.323 N 
HETATM   17  C   UNL     1       5.295  27.898  55.251  1.00  0.00     0.256 C 
HETATM   18  O   UNL     1       4.158  28.175  54.885  1.00  0.00    -0.267 OA
HETATM   19  H   UNL     1       7.097  28.401  56.102  1.00  0.00     0.169 HD
BRANCH  17  20
HETATM   20  C   UNL     1       5.799  26.510  55.001  1.00  0.00     0.033 A 
HETATM   21  C   UNL     1       5.353  25.722  53.940  1.00  0.00     0.019 A 
HETATM   22  C   UNL     1       5.885  24.444  53.742  1.00  0.00     0.031 A 
HETATM   23  C   UNL     1       6.894  23.933  54.582  1.00  0.00     0.044 A 
HETATM   24  C   UNL     1       7.347  24.714  55.666  1.00  0.00    -0.034 A 
HETATM   25  C   UNL     1       8.358  24.268  56.688  1.00  0.00     0.050 C 
HETATM   26  C   UNL     1       6.799  26.003  55.844  1.00  0.00     0.026 A 
BRANCH  23  27
HETATM   27  N   UNL     1       7.419  22.641  54.265  1.00  0.00    -0.332 N 
HETATM   28  C   UNL     1       7.626  21.582  55.125  1.00  0.00     0.096 A 
HETATM   29  C   UNL     1       8.173  20.526  54.429  1.00  0.00     0.019 A 
HETATM   30  C   UNL     1       8.332  20.944  53.094  1.00  0.00     0.019 A 
HETATM   31  C   UNL     1       7.883  22.244  53.022  1.00  0.00     0.096 A 
ENDBRANCH  23  27
ENDBRANCH  17  20
ENDBRANCH   1  16
BRANCH   6  32
HETATM   32  O   UNL     1       3.780  35.549  58.704  1.00  0.00    -0.346 OA
HETATM   33  H   UNL     1       4.573  36.102  58.604  1.00  0.00     0.219 HD
ENDBRANCH   6  32
TORSDOF 4
ENDMDL
MODEL 10
REMARK VINA RESULT:      -8.4      3.213      4.764
REMARK  4 active torsions:
REMARK  status: ('A' for Active; 'I' for Inactive)
REMARK    1  A    between atoms: C_3  and  N_4 
REMARK    2  A    between atoms: C_11  and  C_12 
REMARK       I    between atoms: C_12  and  N_13 
REMARK    3  A    between atoms: N_13  and  C_14 
REMARK    4  A    between atoms: C_19  and  O_20 
ROOT
HETATM    1  C   UNL     1       5.947  30.656  56.576  1.00  0.00     0.036 A 
HETATM    2  C   UNL     1       5.321  31.764  57.144  1.00  0.00     0.049 A 
HETATM    3  C   UNL     1       5.704  32.237  58.416  1.00  0.00     0.063 A 
HETATM    4  C   UNL     1       6.722  31.592  59.144  1.00  0.00     0.075 A 
HETATM    5  N   UNL     1       7.198  31.934  60.428  1.00  0.00    -0.226 NA
HETATM    6  C   UNL     1       6.364  32.283  61.350  1.00  0.00     0.161 C 
HETATM    7  C   UNL     1       4.862  32.428  61.206  1.00  0.00     0.164 C 
HETATM    8  N   UNL     1       4.689  33.512  60.250  1.00  0.00    -0.336 N 
HETATM    9  C   UNL     1       4.996  33.447  58.911  1.00  0.00     0.257 C 
HETATM   10  O   UNL     1       4.704  34.342  58.123  1.00  0.00    -0.267 OA
HETATM   11  C   UNL     1       4.101  32.898  62.444  1.00  0.00     0.035 C 
HETATM   12  C   UNL     1       4.143  34.421  62.339  1.00  0.00     0.022 C 
HETATM   13  C   UNL     1       4.038  34.663  60.841  1.00  0.00     0.127 C 
HETATM   14  C   UNL     1       7.371  30.510  58.536  1.00  0.00     0.035 A 
HETATM   15  C   UNL     1       6.996  30.050  57.271  1.00  0.00     0.032 A 
ENDROOT
BRANCH   1  16
HETATM   16  N   UNL     1       5.583  30.078  55.342  1.00  0.00    -0.323 N 
HETATM   17  C   UNL     1       4.871  28.907  55.140  1.00  0.00     0.256 C 
HETATM   18  O   UNL     1       4.358  28.216  56.013  1.00  0.00    -0.267 OA
HETATM   19  H   UNL     1       5.911  30.570  54.524  1.00  0.00     0.169 HD
BRANCH  17  20
HETATM   20  C   UNL     1       4.745  28.458  53.717  1.00  0.00     0.033 A 
HETATM   21  C   UNL     1       3.919  29.098  52.792  1.00  0.00     0.019 A 
HETATM   22  C   UNL     1       3.866  28.648  51.469  1.00  0.00     0.031 A 
HETATM   23  C   UNL     1       4.657  27.568  51.031  1.00  0.00     0.044 A 
HETATM   24  C   UNL     1       5.489  26.904  51.958  1.00  0.00    -0.034 A 
HETATM   25  C   UNL     1       6.325  25.690  51.652  1.00  0.00     0.050 C 
HETATM   26  C   UNL     1       5.529  27.377  53.288  1.00  0.00     0.026 A 
BRANCH  23  27
HETATM   27  N   UNL     1       4.582  27.219  49.646  1.00  0.00    -0.332 N 
HETATM   28  C   UNL     1       3.928  26.142  49.083  1.00  0.00     0.096 A 
HETATM   29  C   UNL     1       4.122  26.149  47.719  1.00  0.00     0.019 A 
HETATM   30  C   UNL     1       4.940  27.255  47.420  1.00  0.00     0.019 A 
HETATM   31  C   UNL     1       5.224  27.882  48.613  1.00  0.00     0.096 A 
ENDBRANCH  23  27
ENDBRANCH  17  20
ENDBRANCH   1  16
BRANCH   6  32
HETATM   32  O   UNL     1       6.883  32.546  62.555  1.00  0.00    -0.346 OA
HETATM   33  H   UNL     1       6.161  32.895  63.106  1.00  0.00     0.219 HD
ENDBRANCH   6  32
TORSDOF 4
ENDMDL
