MODEL 1
REMARK VINA RESULT:      -9.4      0.000      0.000
REMARK  3 active torsions:
REMARK  status: ('A' for Active; 'I' for Inactive)
REMARK    1  A    between atoms: C_2  and  O_3 
REMARK    2  A    between atoms: O_3  and  C_4 
REMARK    3  A    between atoms: C_8  and  N_9 
REMARK       I    between atoms: N_9  and  C_10 
REMARK       I    between atoms: C_10  and  N_11 
ROOT
HETATM    1  N   UNL     1       7.023  29.594  57.123  1.00  0.00    -0.306 N 
HETATM    2  C   UNL     1       7.968  29.931  58.066  1.00  0.00     0.323 C 
HETATM    3  N   UNL     1       7.679  31.074  58.806  1.00  0.00    -0.328 N 
HETATM    4  C   UNL     1       8.665  31.465  59.825  1.00  0.00     0.185 C 
HETATM    5  C   UNL     1       7.943  32.018  61.005  1.00  0.00     0.035 A 
HETATM    6  C   UNL     1       6.607  32.358  61.079  1.00  0.00    -0.020 A 
HETATM    7  C   UNL     1       5.698  32.158  59.922  1.00  0.00     0.061 C 
HETATM    8  C   UNL     1       6.521  31.982  58.629  1.00  0.00     0.132 C 
HETATM    9  N   UNL     1       8.510  32.260  62.226  1.00  0.00    -0.357 N 
HETATM   10  H   UNL     1       9.473  32.083  62.473  1.00  0.00     0.166 HD
HETATM   11  C   UNL     1       7.560  32.764  63.090  1.00  0.00     0.043 A 
HETATM   12  C   UNL     1       6.353  32.840  62.390  1.00  0.00    -0.001 A 
HETATM   13  C   UNL     1       7.676  33.144  64.433  1.00  0.00     0.030 A 
HETATM   14  C   UNL     1       6.528  33.618  65.074  1.00  0.00     0.002 A 
HETATM   15  C   UNL     1       5.313  33.709  64.399  1.00  0.00     0.001 A 
HETATM   16  C   UNL     1       5.211  33.322  63.058  1.00  0.00     0.014 A 
HETATM   17  O   UNL     1       9.011  29.303  58.236  1.00  0.00    -0.247 OA
HETATM   18  H   UNL     1       6.600  30.372  56.648  1.00  0.00     0.171 HD
ENDROOT
BRANCH   1  19
HETATM   19  C   UNL     1       6.939  28.350  56.455  1.00  0.00     0.075 A 
HETATM   20  C   UNL     1       7.621  28.036  55.273  1.00  0.00     0.145 A 
HETATM   21  C   UNL     1       7.467  26.794  54.651  1.00  0.00     0.081 A 
HETATM   22  F   UNL     1       8.511  28.881  54.732  1.00  0.00    -0.204 F 
HETATM   23  C   UNL     1       6.636  25.833  55.218  1.00  0.00     0.072 A 
HETATM   24  C   UNL     1       6.009  26.108  56.435  1.00  0.00     0.039 A 
HETATM   25  C   UNL     1       6.156  27.355  57.050  1.00  0.00     0.035 A 
BRANCH  23  26
HETATM   26  O   UNL     1       6.393  24.587  54.714  1.00  0.00    -0.347 OA
BRANCH  26  27
HETATM   27  C   UNL     1       7.514  23.741  54.424  1.00  0.00     0.120 C 
HETATM   28  C   UNL     1       7.447  23.235  52.984  1.00  0.00     0.040 C 
HETATM   29  C   UNL     1       7.427  22.560  55.391  1.00  0.00     0.040 C 
ENDBRANCH  26  27
ENDBRANCH  23  26
ENDBRANCH   1  19
TORSDOF 3
ENDMDL
MODEL 2
REMARK VINA RESULT:      -9.3      8.726     11.760
REMARK  3 active torsions:
REMARK  status: ('A' for Active; 'I' for Inactive)
REMARK    1  A    between atoms: C_2  and  O_3 
REMARK    2  A    between atoms: O_3  and  C_4 
REMARK    3  A    between atoms: C_8  and  N_9 
REMARK       I    between atoms: N_9  and  C_10 
REMARK       I    between atoms: C_10  and  N_11 
ROOT
HETATM    1  N   UNL     1       5.937  26.003  50.653  1.00  0.00    -0.306 N 
HETATM    2  C   UNL     1       5.405  27.270  50.565  1.00  0.00     0.323 C 
HETATM    3  N   UNL     1       4.797  27.569  49.350  1.00  0.00    -0.328 N 
HETATM    4  C   UNL     1       4.213  28.913  49.218  1.00  0.00     0.185 C 
HETATM    5  C   UNL     1       2.965  28.819  48.410  1.00  0.00     0.035 A 
HETATM    6  C   UNL     1       2.526  27.732  47.681  1.00  0.00    -0.020 A 
HETATM    7  C   UNL     1       3.292  26.460  47.661  1.00  0.00     0.061 C 
HETATM    8  C   UNL     1       4.735  26.705  48.147  1.00  0.00     0.132 C 
HETATM    9  N   UNL     1       2.038  29.816  48.284  1.00  0.00    -0.357 N 
HETATM   10  H   UNL     1       2.084  30.722  48.729  1.00  0.00     0.166 HD
HETATM   11  C   UNL     1       1.006  29.395  47.472  1.00  0.00     0.043 A 
HETATM   12  C   UNL     1       1.292  28.086  47.074  1.00  0.00    -0.001 A 
HETATM   13  C   UNL     1      -0.156  30.065  47.072  1.00  0.00     0.030 A 
HETATM   14  C   UNL     1      -1.047  29.380  46.240  1.00  0.00     0.002 A 
HETATM   15  C   UNL     1      -0.785  28.076  45.825  1.00  0.00     0.001 A 
HETATM   16  C   UNL     1       0.379  27.417  46.236  1.00  0.00     0.014 A 
HETATM   17  O   UNL     1       5.479  28.101  51.467  1.00  0.00    -0.247 OA
HETATM   18  H   UNL     1       6.368  25.663  49.811  1.00  0.00     0.171 HD
ENDROOT
BRANCH   1  19
HETATM   19  C   UNL     1       6.346  25.367  51.849  1.00  0.00     0.075 A 
HETATM   20  C   UNL     1       5.492  25.052  52.913  1.00  0.00     0.145 A 
HETATM   21  C   UNL     1       5.972  24.448  54.078  1.00  0.00     0.081 A 
HETATM   22  F   UNL     1       4.167  25.241  52.827  1.00  0.00    -0.204 F 
HETATM   23  C   UNL     1       7.322  24.130  54.189  1.00  0.00     0.072 A 
HETATM   24  C   UNL     1       8.169  24.372  53.105  1.00  0.00     0.039 A 
HETATM   25  C   UNL     1       7.689  24.987  51.944  1.00  0.00     0.035 A 
BRANCH  23  26
HETATM   26  O   UNL     1       7.921  23.546  55.268  1.00  0.00    -0.347 OA
BRANCH  26  27
HETATM   27  C   UNL     1       7.579  22.190  55.583  1.00  0.00     0.120 C 
HETATM   28  C   UNL     1       8.386  21.697  56.784  1.00  0.00     0.040 C 
HETATM   29  C   UNL     1       7.927  21.357  54.350  1.00  0.00     0.040 C 
ENDBRANCH  26  27
ENDBRANCH  23  26
ENDBRANCH   1  19
TORSDOF 3
ENDMDL
MODEL 3
REMARK VINA RESULT:      -8.9      7.234     11.942
REMARK  3 active torsions:
REMARK  status: ('A' for Active; 'I' for Inactive)
REMARK    1  A    between atoms: C_2  and  O_3 
REMARK    2  A    between atoms: O_3  and  C_4 
REMARK    3  A    between atoms: C_8  and  N_9 
REMARK       I    between atoms: N_9  and  C_10 
REMARK       I    between atoms: C_10  and  N_11 
ROOT
HETATM    1  N   UNL     1       5.784  26.010  50.625  1.00  0.00    -0.306 N 
HETATM    2  C   UNL     1       5.362  27.298  50.383  1.00  0.00     0.323 C 
HETATM    3  N   UNL     1       4.753  27.495  49.148  1.00  0.00    -0.328 N 
HETATM    4  C   UNL     1       4.286  28.860  48.854  1.00  0.00     0.185 C 
HETATM    5  C   UNL     1       3.015  28.777  48.081  1.00  0.00     0.035 A 
HETATM    6  C   UNL     1       2.465  27.652  47.502  1.00  0.00    -0.020 A 
HETATM    7  C   UNL     1       3.117  26.323  47.634  1.00  0.00     0.061 C 
HETATM    8  C   UNL     1       4.587  26.497  48.065  1.00  0.00     0.132 C 
HETATM    9  N   UNL     1       2.176  29.830  47.841  1.00  0.00    -0.357 N 
HETATM   10  H   UNL     1       2.312  30.776  48.167  1.00  0.00     0.166 HD
HETATM   11  C   UNL     1       1.092  29.404  47.103  1.00  0.00     0.043 A 
HETATM   12  C   UNL     1       1.252  28.035  46.870  1.00  0.00    -0.001 A 
HETATM   13  C   UNL     1      -0.017  30.120  46.636  1.00  0.00     0.030 A 
HETATM   14  C   UNL     1      -0.984  29.419  45.909  1.00  0.00     0.002 A 
HETATM   15  C   UNL     1      -0.846  28.055  45.660  1.00  0.00     0.001 A 
HETATM   16  C   UNL     1       0.265  27.351  46.136  1.00  0.00     0.014 A 
HETATM   17  O   UNL     1       5.530  28.225  51.172  1.00  0.00    -0.247 OA
HETATM   18  H   UNL     1       6.163  25.530  49.827  1.00  0.00     0.171 HD
ENDROOT
BRANCH   1  19
HETATM   19  C   UNL     1       6.164  25.494  51.886  1.00  0.00     0.075 A 
HETATM   20  C   UNL     1       5.270  25.167  52.913  1.00  0.00     0.145 A 
HETATM   21  C   UNL     1       5.720  24.689  54.146  1.00  0.00     0.081 A 
HETATM   22  F   UNL     1       3.943  25.222  52.729  1.00  0.00    -0.204 F 
HETATM   23  C   UNL     1       7.082  24.511  54.365  1.00  0.00     0.072 A 
HETATM   24  C   UNL     1       7.978  24.763  53.324  1.00  0.00     0.039 A 
HETATM   25  C   UNL     1       7.526  25.252  52.094  1.00  0.00     0.035 A 
BRANCH  23  26
HETATM   26  O   UNL     1       7.655  24.058  55.519  1.00  0.00    -0.347 OA
BRANCH  26  27
HETATM   27  C   UNL     1       8.031  25.020  56.514  1.00  0.00     0.120 C 
HETATM   28  C   UNL     1       9.093  24.441  57.448  1.00  0.00     0.040 C 
HETATM   29  C   UNL     1       6.764  25.341  57.307  1.00  0.00     0.040 C 
ENDBRANCH  26  27
ENDBRANCH  23  26
ENDBRANCH   1  19
TORSDOF 3
ENDMDL
MODEL 4
REMARK VINA RESULT:      -8.8      8.330     10.610
REMARK  3 active torsions:
REMARK  status: ('A' for Active; 'I' for Inactive)
REMARK    1  A    between atoms: C_2  and  O_3 
REMARK    2  A    between atoms: O_3  and  C_4 
REMARK    3  A    between atoms: C_8  and  N_9 
REMARK       I    between atoms: N_9  and  C_10 
REMARK       I    between atoms: C_10  and  N_11 
ROOT
HETATM    1  N   UNL     1       5.615  26.642  52.378  1.00  0.00    -0.306 N 
HETATM    2  C   UNL     1       4.968  26.678  51.163  1.00  0.00     0.323 C 
HETATM    3  N   UNL     1       4.583  27.946  50.739  1.00  0.00    -0.328 N 
HETATM    4  C   UNL     1       3.891  28.025  49.443  1.00  0.00     0.185 C 
HETATM    5  C   UNL     1       4.315  29.272  48.747  1.00  0.00     0.035 A 
HETATM    6  C   UNL     1       5.032  30.322  49.283  1.00  0.00    -0.020 A 
HETATM    7  C   UNL     1       5.508  30.289  50.690  1.00  0.00     0.061 C 
HETATM    8  C   UNL     1       4.731  29.219  51.484  1.00  0.00     0.132 C 
HETATM    9  N   UNL     1       4.065  29.557  47.433  1.00  0.00    -0.357 N 
HETATM   10  H   UNL     1       3.578  28.957  46.783  1.00  0.00     0.166 HD
HETATM   11  C   UNL     1       4.601  30.787  47.112  1.00  0.00     0.043 A 
HETATM   12  C   UNL     1       5.212  31.293  48.263  1.00  0.00    -0.001 A 
HETATM   13  C   UNL     1       4.602  31.479  45.895  1.00  0.00     0.030 A 
HETATM   14  C   UNL     1       5.240  32.722  45.855  1.00  0.00     0.002 A 
HETATM   15  C   UNL     1       5.853  33.252  46.989  1.00  0.00     0.001 A 
HETATM   16  C   UNL     1       5.848  32.547  48.198  1.00  0.00     0.014 A 
HETATM   17  O   UNL     1       4.711  25.674  50.502  1.00  0.00    -0.247 OA
HETATM   18  H   UNL     1       5.265  27.286  53.066  1.00  0.00     0.171 HD
ENDROOT
BRANCH   1  19
HETATM   19  C   UNL     1       6.345  25.541  52.886  1.00  0.00     0.075 A 
HETATM   20  C   UNL     1       6.047  24.875  54.082  1.00  0.00     0.145 A 
HETATM   21  C   UNL     1       6.831  23.812  54.537  1.00  0.00     0.081 A 
HETATM   22  F   UNL     1       4.952  25.174  54.796  1.00  0.00    -0.204 F 
HETATM   23  C   UNL     1       7.922  23.384  53.789  1.00  0.00     0.072 A 
HETATM   24  C   UNL     1       8.185  23.993  52.560  1.00  0.00     0.039 A 
HETATM   25  C   UNL     1       7.406  25.064  52.110  1.00  0.00     0.035 A 
BRANCH  23  26
HETATM   26  O   UNL     1       8.771  22.366  54.119  1.00  0.00    -0.347 OA
BRANCH  26  27
HETATM   27  C   UNL     1       8.227  21.047  54.258  1.00  0.00     0.120 C 
HETATM   28  C   UNL     1       8.959  20.277  55.357  1.00  0.00     0.040 C 
HETATM   29  C   UNL     1       8.432  20.350  52.914  1.00  0.00     0.040 C 
ENDBRANCH  26  27
ENDBRANCH  23  26
ENDBRANCH   1  19
TORSDOF 3
ENDMDL
MODEL 5
REMARK VINA RESULT:      -8.5      7.679     10.464
REMARK  3 active torsions:
REMARK  status: ('A' for Active; 'I' for Inactive)
REMARK    1  A    between atoms: C_2  and  O_3 
REMARK    2  A    between atoms: O_3  and  C_4 
REMARK    3  A    between atoms: C_8  and  N_9 
REMARK       I    between atoms: N_9  and  C_10 
REMARK       I    between atoms: C_10  and  N_11 
ROOT
HETATM    1  N   UNL     1       6.365  27.172  52.621  1.00  0.00    -0.306 N 
HETATM    2  C   UNL     1       5.017  27.445  52.585  1.00  0.00     0.323 C 
HETATM    3  N   UNL     1       4.656  28.531  51.794  1.00  0.00    -0.328 N 
HETATM    4  C   UNL     1       3.222  28.852  51.729  1.00  0.00     0.185 C 
HETATM    5  C   UNL     1       2.895  29.317  50.352  1.00  0.00     0.035 A 
HETATM    6  C   UNL     1       3.787  29.647  49.351  1.00  0.00    -0.020 A 
HETATM    7  C   UNL     1       5.253  29.527  49.558  1.00  0.00     0.061 C 
HETATM    8  C   UNL     1       5.568  29.445  51.066  1.00  0.00     0.132 C 
HETATM    9  N   UNL     1       1.630  29.474  49.859  1.00  0.00    -0.357 N 
HETATM   10  H   UNL     1       0.774  29.283  50.362  1.00  0.00     0.166 HD
HETATM   11  C   UNL     1       1.687  29.912  48.552  1.00  0.00     0.043 A 
HETATM   12  C   UNL     1       3.037  30.034  48.209  1.00  0.00    -0.001 A 
HETATM   13  C   UNL     1       0.654  30.196  47.651  1.00  0.00     0.030 A 
HETATM   14  C   UNL     1       1.011  30.620  46.367  1.00  0.00     0.002 A 
HETATM   15  C   UNL     1       2.348  30.754  46.001  1.00  0.00     0.001 A 
HETATM   16  C   UNL     1       3.371  30.463  46.910  1.00  0.00     0.014 A 
HETATM   17  O   UNL     1       4.179  26.809  53.222  1.00  0.00    -0.247 OA
HETATM   18  H   UNL     1       6.963  27.981  52.625  1.00  0.00     0.171 HD
ENDROOT
BRANCH   1  19
HETATM   19  C   UNL     1       6.949  25.978  53.107  1.00  0.00     0.075 A 
HETATM   20  C   UNL     1       7.153  25.689  54.462  1.00  0.00     0.145 A 
HETATM   21  C   UNL     1       7.763  24.500  54.868  1.00  0.00     0.081 A 
HETATM   22  F   UNL     1       6.699  26.501  55.428  1.00  0.00    -0.204 F 
HETATM   23  C   UNL     1       8.164  23.566  53.919  1.00  0.00     0.072 A 
HETATM   24  C   UNL     1       7.898  23.810  52.570  1.00  0.00     0.039 A 
HETATM   25  C   UNL     1       7.298  25.006  52.164  1.00  0.00     0.035 A 
BRANCH  23  26
HETATM   26  O   UNL     1       8.773  22.371  54.178  1.00  0.00    -0.347 OA
BRANCH  26  27
HETATM   27  C   UNL     1       7.972  21.182  54.161  1.00  0.00     0.120 C 
HETATM   28  C   UNL     1       8.112  20.422  55.480  1.00  0.00     0.040 C 
HETATM   29  C   UNL     1       8.495  20.323  53.011  1.00  0.00     0.040 C 
ENDBRANCH  26  27
ENDBRANCH  23  26
ENDBRANCH   1  19
TORSDOF 3
ENDMDL
MODEL 6
REMARK VINA RESULT:      -8.4      7.190     10.335
REMARK  3 active torsions:
REMARK  status: ('A' for Active; 'I' for Inactive)
REMARK    1  A    between atoms: C_2  and  O_3 
REMARK    2  A    between atoms: O_3  and  C_4 
REMARK    3  A    between atoms: C_8  and  N_9 
REMARK       I    between atoms: N_9  and  C_10 
REMARK       I    between atoms: C_10  and  N_11 
ROOT
HETATM    1  N   UNL     1       4.688  28.335  52.228  1.00  0.00    -0.306 N 
HETATM    2  C   UNL     1       5.218  27.987  53.450  1.00  0.00     0.323 C 
HETATM    3  N   UNL     1       5.236  26.622  53.716  1.00  0.00    -0.328 N 
HETATM    4  C   UNL     1       5.798  26.210  55.012  1.00  0.00     0.185 C 
HETATM    5  C   UNL     1       6.539  24.930  54.830  1.00  0.00     0.035 A 
HETATM    6  C   UNL     1       6.520  24.108  53.722  1.00  0.00    -0.020 A 
HETATM    7  C   UNL     1       5.734  24.464  52.514  1.00  0.00     0.061 C 
HETATM    8  C   UNL     1       4.685  25.540  52.866  1.00  0.00     0.132 C 
HETATM    9  N   UNL     1       7.382  24.378  55.754  1.00  0.00    -0.357 N 
HETATM   10  H   UNL     1       7.610  24.774  56.655  1.00  0.00     0.166 HD
HETATM   11  C   UNL     1       7.905  23.199  55.264  1.00  0.00     0.043 A 
HETATM   12  C   UNL     1       7.373  23.003  53.986  1.00  0.00    -0.001 A 
HETATM   13  C   UNL     1       8.810  22.304  55.846  1.00  0.00     0.030 A 
HETATM   14  C   UNL     1       9.178  21.178  55.104  1.00  0.00     0.002 A 
HETATM   15  C   UNL     1       8.659  20.956  53.830  1.00  0.00     0.001 A 
HETATM   16  C   UNL     1       7.758  21.861  53.258  1.00  0.00     0.014 A 
HETATM   17  O   UNL     1       5.620  28.807  54.273  1.00  0.00    -0.247 OA
HETATM   18  H   UNL     1       3.901  27.784  51.933  1.00  0.00     0.171 HD
ENDROOT
BRANCH   1  19
HETATM   19  C   UNL     1       4.813  29.602  51.610  1.00  0.00     0.075 A 
HETATM   20  C   UNL     1       4.128  30.754  52.015  1.00  0.00     0.145 A 
HETATM   21  C   UNL     1       4.279  31.967  51.338  1.00  0.00     0.081 A 
HETATM   22  F   UNL     1       3.363  30.763  53.116  1.00  0.00    -0.204 F 
HETATM   23  C   UNL     1       5.140  32.051  50.249  1.00  0.00     0.072 A 
HETATM   24  C   UNL     1       5.884  30.928  49.882  1.00  0.00     0.039 A 
HETATM   25  C   UNL     1       5.723  29.711  50.554  1.00  0.00     0.035 A 
BRANCH  23  26
HETATM   26  O   UNL     1       5.376  33.167  49.498  1.00  0.00    -0.347 OA
BRANCH  26  27
HETATM   27  C   UNL     1       5.983  33.003  48.209  1.00  0.00     0.120 C 
HETATM   28  C   UNL     1       7.167  33.955  48.048  1.00  0.00     0.040 C 
HETATM   29  C   UNL     1       4.906  33.337  47.177  1.00  0.00     0.040 C 
ENDBRANCH  26  27
ENDBRANCH  23  26
ENDBRANCH   1  19
TORSDOF 3
ENDMDL
MODEL 7
REMARK VINA RESULT:      -8.2      7.863     10.546
REMARK  3 active torsions:
REMARK  status: ('A' for Active; 'I' for Inactive)
REMARK    1  A    between atoms: C_2  and  O_3 
REMARK    2  A    between atoms: O_3  and  C_4 
REMARK    3  A    between atoms: C_8  and  N_9 
REMARK       I    between atoms: N_9  and  C_10 
REMARK       I    between atoms: C_10  and  N_11 
ROOT
HETATM    1  N   UNL     1       5.774  27.798  52.050  1.00  0.00    -0.306 N 
HETATM    2  C   UNL     1       6.091  26.549  51.567  1.00  0.00     0.323 C 
HETATM    3  N   UNL     1       7.035  25.851  52.313  1.00  0.00    -0.328 N 
HETATM    4  C   UNL     1       7.398  24.510  51.830  1.00  0.00     0.185 C 
HETATM    5  C   UNL     1       7.628  23.621  53.003  1.00  0.00     0.035 A 
HETATM    6  C   UNL     1       7.740  24.001  54.325  1.00  0.00    -0.020 A 
HETATM    7  C   UNL     1       7.598  25.423  54.731  1.00  0.00     0.061 C 
HETATM    8  C   UNL     1       7.770  26.341  53.504  1.00  0.00     0.132 C 
HETATM    9  N   UNL     1       7.747  22.261  52.942  1.00  0.00    -0.357 N 
HETATM   10  H   UNL     1       7.682  21.701  52.103  1.00  0.00     0.166 HD
HETATM   11  C   UNL     1       7.946  21.751  54.208  1.00  0.00     0.043 A 
HETATM   12  C   UNL     1       7.951  22.829  55.099  1.00  0.00    -0.001 A 
HETATM   13  C   UNL     1       8.110  20.427  54.631  1.00  0.00     0.030 A 
HETATM   14  C   UNL     1       8.287  20.199  55.999  1.00  0.00     0.002 A 
HETATM   15  C   UNL     1       8.300  21.255  56.907  1.00  0.00     0.001 A 
HETATM   16  C   UNL     1       8.132  22.574  56.472  1.00  0.00     0.014 A 
HETATM   17  O   UNL     1       5.612  26.078  50.537  1.00  0.00    -0.247 OA
HETATM   18  H   UNL     1       6.546  28.312  52.437  1.00  0.00     0.171 HD
ENDROOT
BRANCH   1  19
HETATM   19  C   UNL     1       4.661  28.575  51.649  1.00  0.00     0.075 A 
HETATM   20  C   UNL     1       3.390  28.502  52.232  1.00  0.00     0.145 A 
HETATM   21  C   UNL     1       2.329  29.280  51.764  1.00  0.00     0.081 A 
HETATM   22  F   UNL     1       3.159  27.745  53.315  1.00  0.00    -0.204 F 
HETATM   23  C   UNL     1       2.529  30.164  50.709  1.00  0.00     0.072 A 
HETATM   24  C   UNL     1       3.809  30.299  50.168  1.00  0.00     0.039 A 
HETATM   25  C   UNL     1       4.868  29.511  50.630  1.00  0.00     0.035 A 
BRANCH  23  26
HETATM   26  O   UNL     1       1.581  30.975  50.153  1.00  0.00    -0.347 OA
BRANCH  26  27
HETATM   27  C   UNL     1       1.696  31.298  48.761  1.00  0.00     0.120 C 
HETATM   28  C   UNL     1       1.232  32.731  48.501  1.00  0.00     0.040 C 
HETATM   29  C   UNL     1       0.793  30.318  48.013  1.00  0.00     0.040 C 
ENDBRANCH  26  27
ENDBRANCH  23  26
ENDBRANCH   1  19
TORSDOF 3
ENDMDL
MODEL 8
REMARK VINA RESULT:      -8.1      7.530     10.510
REMARK  3 active torsions:
REMARK  status: ('A' for Active; 'I' for Inactive)
REMARK    1  A    between atoms: C_2  and  O_3 
REMARK    2  A    between atoms: O_3  and  C_4 
REMARK    3  A    between atoms: C_8  and  N_9 
REMARK       I    between atoms: N_9  and  C_10 
REMARK       I    between atoms: C_10  and  N_11 
ROOT
HETATM    1  N   UNL     1       5.006  28.564  49.927  1.00  0.00    -0.306 N 
HETATM    2  C   UNL     1       4.577  28.397  51.225  1.00  0.00     0.323 C 
HETATM    3  N   UNL     1       4.823  27.141  51.769  1.00  0.00    -0.328 N 
HETATM    4  C   UNL     1       4.381  26.926  53.157  1.00  0.00     0.185 C 
HETATM    5  C   UNL     1       5.374  26.057  53.848  1.00  0.00     0.035 A 
HETATM    6  C   UNL     1       6.407  25.348  53.268  1.00  0.00    -0.020 A 
HETATM    7  C   UNL     1       6.662  25.419  51.806  1.00  0.00     0.061 C 
HETATM    8  C   UNL     1       5.417  25.971  51.081  1.00  0.00     0.132 C 
HETATM    9  N   UNL     1       5.420  25.842  55.197  1.00  0.00    -0.357 N 
HETATM   10  H   UNL     1       4.798  26.253  55.880  1.00  0.00     0.166 HD
HETATM   11  C   UNL     1       6.463  24.993  55.501  1.00  0.00     0.043 A 
HETATM   12  C   UNL     1       7.099  24.663  54.301  1.00  0.00    -0.001 A 
HETATM   13  C   UNL     1       6.897  24.506  56.740  1.00  0.00     0.030 A 
HETATM   14  C   UNL     1       8.006  23.655  56.751  1.00  0.00     0.002 A 
HETATM   15  C   UNL     1       8.656  23.306  55.569  1.00  0.00     0.001 A 
HETATM   16  C   UNL     1       8.214  23.804  54.338  1.00  0.00     0.014 A 
HETATM   17  O   UNL     1       3.990  29.269  51.862  1.00  0.00    -0.247 OA
HETATM   18  H   UNL     1       4.891  27.760  49.335  1.00  0.00     0.171 HD
ENDROOT
BRANCH   1  19
HETATM   19  C   UNL     1       5.131  29.804  49.257  1.00  0.00     0.075 A 
HETATM   20  C   UNL     1       4.398  30.170  48.122  1.00  0.00     0.145 A 
HETATM   21  C   UNL     1       4.596  31.403  47.494  1.00  0.00     0.081 A 
HETATM   22  F   UNL     1       3.420  29.391  47.638  1.00  0.00    -0.204 F 
HETATM   23  C   UNL     1       5.524  32.302  48.009  1.00  0.00     0.072 A 
HETATM   24  C   UNL     1       6.208  31.978  49.183  1.00  0.00     0.039 A 
HETATM   25  C   UNL     1       6.016  30.739  49.804  1.00  0.00     0.035 A 
BRANCH  23  26
HETATM   26  O   UNL     1       5.819  33.532  47.493  1.00  0.00    -0.347 OA
BRANCH  26  27
HETATM   27  C   UNL     1       7.199  33.905  47.372  1.00  0.00     0.120 C 
HETATM   28  C   UNL     1       7.423  35.317  47.912  1.00  0.00     0.040 C 
HETATM   29  C   UNL     1       7.531  33.862  45.881  1.00  0.00     0.040 C 
ENDBRANCH  26  27
ENDBRANCH  23  26
ENDBRANCH   1  19
TORSDOF 3
ENDMDL
MODEL 9
REMARK VINA RESULT:      -8.1      7.226     10.382
REMARK  3 active torsions:
REMARK  status: ('A' for Active; 'I' for Inactive)
REMARK    1  A    between atoms: C_2  and  O_3 
REMARK    2  A    between atoms: O_3  and  C_4 
REMARK    3  A    between atoms: C_8  and  N_9 
REMARK       I    between atoms: N_9  and  C_10 
REMARK       I    between atoms: C_10  and  N_11 
ROOT
HETATM    1  N   UNL     1       4.690  28.373  52.286  1.00  0.00    -0.306 N 
HETATM    2  C   UNL     1       5.204  27.974  53.499  1.00  0.00     0.323 C 
HETATM    3  N   UNL     1       5.234  26.598  53.701  1.00  0.00    -0.328 N 
HETATM    4  C   UNL     1       5.779  26.132  54.986  1.00  0.00     0.185 C 
HETATM    5  C   UNL     1       6.538  24.871  54.757  1.00  0.00     0.035 A 
HETATM    6  C   UNL     1       6.547  24.101  53.612  1.00  0.00    -0.020 A 
HETATM    7  C   UNL     1       5.776  24.505  52.408  1.00  0.00     0.061 C 
HETATM    8  C   UNL     1       4.710  25.551  52.792  1.00  0.00     0.132 C 
HETATM    9  N   UNL     1       7.373  24.285  55.668  1.00  0.00    -0.357 N 
HETATM   10  H   UNL     1       7.581  24.641  56.590  1.00  0.00     0.166 HD
HETATM   11  C   UNL     1       7.916  23.136  55.132  1.00  0.00     0.043 A 
HETATM   12  C   UNL     1       7.408  22.994  53.838  1.00  0.00    -0.001 A 
HETATM   13  C   UNL     1       8.822  22.224  55.687  1.00  0.00     0.030 A 
HETATM   14  C   UNL     1       9.215  21.138  54.900  1.00  0.00     0.002 A 
HETATM   15  C   UNL     1       8.720  20.970  53.608  1.00  0.00     0.001 A 
HETATM   16  C   UNL     1       7.818  21.891  53.065  1.00  0.00     0.014 A 
HETATM   17  O   UNL     1       5.583  28.758  54.366  1.00  0.00    -0.247 OA
HETATM   18  H   UNL     1       3.914  27.828  51.953  1.00  0.00     0.171 HD
ENDROOT
BRANCH   1  19
HETATM   19  C   UNL     1       4.811  29.669  51.730  1.00  0.00     0.075 A 
HETATM   20  C   UNL     1       5.540  29.972  50.574  1.00  0.00     0.145 A 
HETATM   21  C   UNL     1       5.639  31.282  50.098  1.00  0.00     0.081 A 
HETATM   22  F   UNL     1       6.104  29.010  49.829  1.00  0.00    -0.204 F 
HETATM   23  C   UNL     1       4.989  32.314  50.767  1.00  0.00     0.072 A 
HETATM   24  C   UNL     1       4.199  32.013  51.879  1.00  0.00     0.039 A 
HETATM   25  C   UNL     1       4.110  30.703  52.360  1.00  0.00     0.035 A 
BRANCH  23  26
HETATM   26  O   UNL     1       5.008  33.634  50.415  1.00  0.00    -0.347 OA
BRANCH  26  27
HETATM   27  C   UNL     1       6.059  34.460  50.934  1.00  0.00     0.120 C 
HETATM   28  C   UNL     1       5.498  35.490  51.914  1.00  0.00     0.040 C 
HETATM   29  C   UNL     1       6.681  35.173  49.734  1.00  0.00     0.040 C 
ENDBRANCH  26  27
ENDBRANCH  23  26
ENDBRANCH   1  19
TORSDOF 3
ENDMDL
MODEL 10
REMARK VINA RESULT:      -7.8      6.657      9.964
REMARK  3 active torsions:
REMARK  status: ('A' for Active; 'I' for Inactive)
REMARK    1  A    between atoms: C_2  and  O_3 
REMARK    2  A    between atoms: O_3  and  C_4 
REMARK    3  A    between atoms: C_8  and  N_9 
REMARK       I    between atoms: N_9  and  C_10 
REMARK       I    between atoms: C_10  and  N_11 
ROOT
HETATM    1  N   UNL     1       3.877  27.411  50.630  1.00  0.00    -0.306 N 
HETATM    2  C   UNL     1       4.160  27.878  51.893  1.00  0.00     0.323 C 
HETATM    3  N   UNL     1       4.444  26.894  52.835  1.00  0.00    -0.328 N 
HETATM    4  C   UNL     1       4.754  27.355  54.197  1.00  0.00     0.185 C 
HETATM    5  C   UNL     1       5.805  26.473  54.776  1.00  0.00     0.035 A 
HETATM    6  C   UNL     1       6.260  25.274  54.265  1.00  0.00    -0.020 A 
HETATM    7  C   UNL     1       5.731  24.734  52.987  1.00  0.00     0.061 C 
HETATM    8  C   UNL     1       4.399  25.427  52.632  1.00  0.00     0.132 C 
HETATM    9  N   UNL     1       6.505  26.738  55.921  1.00  0.00    -0.357 N 
HETATM   10  H   UNL     1       6.401  27.561  56.497  1.00  0.00     0.166 HD
HETATM   11  C   UNL     1       7.402  25.719  56.166  1.00  0.00     0.043 A 
HETATM   12  C   UNL     1       7.264  24.781  55.140  1.00  0.00    -0.001 A 
HETATM   13  C   UNL     1       8.327  25.565  57.206  1.00  0.00     0.030 A 
HETATM   14  C   UNL     1       9.128  24.419  57.198  1.00  0.00     0.002 A 
HETATM   15  C   UNL     1       9.008  23.466  56.189  1.00  0.00     0.001 A 
HETATM   16  C   UNL     1       8.082  23.635  55.153  1.00  0.00     0.014 A 
HETATM   17  O   UNL     1       4.136  29.069  52.197  1.00  0.00    -0.247 OA
HETATM   18  H   UNL     1       3.345  26.559  50.601  1.00  0.00     0.171 HD
ENDROOT
BRANCH   1  19
HETATM   19  C   UNL     1       3.838  28.197  49.454  1.00  0.00     0.075 A 
HETATM   20  C   UNL     1       4.954  28.806  48.868  1.00  0.00     0.145 A 
HETATM   21  C   UNL     1       4.835  29.595  47.721  1.00  0.00     0.081 A 
HETATM   22  F   UNL     1       6.193  28.593  49.334  1.00  0.00    -0.204 F 
HETATM   23  C   UNL     1       3.590  29.771  47.127  1.00  0.00     0.072 A 
HETATM   24  C   UNL     1       2.482  29.109  47.659  1.00  0.00     0.039 A 
HETATM   25  C   UNL     1       2.601  28.329  48.814  1.00  0.00     0.035 A 
BRANCH  23  26
HETATM   26  O   UNL     1       3.333  30.517  46.011  1.00  0.00    -0.347 OA
BRANCH  26  27
HETATM   27  C   UNL     1       4.165  31.655  45.749  1.00  0.00     0.120 C 
HETATM   28  C   UNL     1       3.538  32.923  46.329  1.00  0.00     0.040 C 
HETATM   29  C   UNL     1       4.267  31.777  44.229  1.00  0.00     0.040 C 
ENDBRANCH  26  27
ENDBRANCH  23  26
ENDBRANCH   1  19
TORSDOF 3
ENDMDL
