MODEL 1
REMARK VINA RESULT:     -10.1      0.000      0.000
REMARK  3 active torsions:
REMARK  status: ('A' for Active; 'I' for Inactive)
REMARK    1  A    between atoms: C_2  and  C_3 
REMARK    2  A    between atoms: C_6  and  C_7 
REMARK       I    between atoms: C_7  and  N_8 
REMARK    3  A    between atoms: N_8  and  N_9 
ROOT
HETATM    1  C   UNL     1       7.418  26.013  55.122  1.00  0.00    -0.021 A 
HETATM    2  C   UNL     1       7.784  25.816  56.467  1.00  0.00     0.011 A 
HETATM    3  C   UNL     1       8.238  26.876  57.268  1.00  0.00     0.018 A 
HETATM    4  C   UNL     1       8.336  28.166  56.741  1.00  0.00     0.033 A 
HETATM    5  C   UNL     1       7.956  28.375  55.409  1.00  0.00     0.018 A 
HETATM    6  C   UNL     1       7.496  27.320  54.617  1.00  0.00     0.011 A 
ENDROOT
BRANCH   4   7
HETATM    7  C   UNL     1       8.786  29.358  57.526  1.00  0.00     0.266 C 
HETATM    8  N   UNL     1       7.897  29.884  58.461  1.00  0.00    -0.284 N 
HETATM    9  H   UNL     1       7.024  29.418  58.676  1.00  0.00     0.184 HD
HETATM   10  O   UNL     1       9.910  29.813  57.316  1.00  0.00    -0.266 OA
BRANCH   8  11
HETATM   11  N   UNL     1       8.212  31.011  59.261  1.00  0.00    -0.220 NA
HETATM   12  C   UNL     1       7.068  31.938  59.481  1.00  0.00     0.153 C 
HETATM   13  C   UNL     1       7.172  32.370  60.908  1.00  0.00    -0.036 A 
HETATM   14  C   UNL     1       8.165  31.637  61.553  1.00  0.00    -0.036 A 
HETATM   15  C   UNL     1       6.413  33.306  61.592  1.00  0.00     0.009 A 
HETATM   16  C   UNL     1       8.793  30.680  60.590  1.00  0.00     0.153 C 
HETATM   17  C   UNL     1       8.426  31.814  62.901  1.00  0.00     0.009 A 
HETATM   18  C   UNL     1       7.669  32.756  63.602  1.00  0.00     0.001 A 
HETATM   19  C   UNL     1       6.670  33.498  62.951  1.00  0.00     0.001 A 
ENDBRANCH   8  11
ENDBRANCH   4   7
BRANCH   1  20
HETATM   20  C   UNL     1       6.873  24.869  54.270  1.00  0.00     0.139 A 
HETATM   21  C   UNL     1       5.486  25.196  53.720  1.00  0.00     0.054 C 
HETATM   22  N   UNL     1       6.855  23.609  54.991  1.00  0.00    -0.321 N 
HETATM   23  C   UNL     1       7.646  22.648  54.417  1.00  0.00     0.324 A 
HETATM   24  H   UNL     1       6.283  23.391  55.793  1.00  0.00     0.165 HD
HETATM   25  O   UNL     1       7.749  21.504  54.818  1.00  0.00    -0.247 OA
HETATM   26  N   UNL     1       8.249  23.173  53.332  1.00  0.00    -0.277 N 
HETATM   27  C   UNL     1       7.810  24.441  53.107  1.00  0.00     0.258 A 
HETATM   28  H   UNL     1       8.839  22.652  52.706  1.00  0.00     0.173 HD
HETATM   29  O   UNL     1       8.104  25.099  52.119  1.00  0.00    -0.270 OA
ENDBRANCH   1  20
TORSDOF 3
ENDMDL
MODEL 2
REMARK VINA RESULT:      -9.8      3.669     10.370
REMARK  3 active torsions:
REMARK  status: ('A' for Active; 'I' for Inactive)
REMARK    1  A    between atoms: C_2  and  C_3 
REMARK    2  A    between atoms: C_6  and  C_7 
REMARK       I    between atoms: C_7  and  N_8 
REMARK    3  A    between atoms: N_8  and  N_9 
ROOT
HETATM    1  C   UNL     1       6.646  33.194  62.491  1.00  0.00    -0.021 A 
HETATM    2  C   UNL     1       7.812  32.501  62.866  1.00  0.00     0.011 A 
HETATM    3  C   UNL     1       8.474  31.640  61.978  1.00  0.00     0.018 A 
HETATM    4  C   UNL     1       7.983  31.450  60.683  1.00  0.00     0.033 A 
HETATM    5  C   UNL     1       6.834  32.150  60.294  1.00  0.00     0.018 A 
HETATM    6  C   UNL     1       6.183  33.014  61.179  1.00  0.00     0.011 A 
ENDROOT
BRANCH   4   7
HETATM    7  C   UNL     1       8.635  30.570  59.662  1.00  0.00     0.266 C 
HETATM    8  N   UNL     1       7.827  29.648  59.001  1.00  0.00    -0.284 N 
HETATM    9  H   UNL     1       6.823  29.642  59.128  1.00  0.00     0.184 HD
HETATM   10  O   UNL     1       9.839  30.703  59.453  1.00  0.00    -0.266 OA
BRANCH   8  11
HETATM   11  N   UNL     1       8.333  28.762  58.016  1.00  0.00    -0.220 NA
HETATM   12  C   UNL     1       7.598  27.471  57.926  1.00  0.00     0.153 C 
HETATM   13  C   UNL     1       7.504  27.164  56.466  1.00  0.00    -0.036 A 
HETATM   14  C   UNL     1       7.965  28.249  55.725  1.00  0.00    -0.036 A 
HETATM   15  C   UNL     1       7.005  26.031  55.845  1.00  0.00     0.009 A 
HETATM   16  C   UNL     1       8.408  29.341  56.647  1.00  0.00     0.153 C 
HETATM   17  C   UNL     1       7.937  28.235  54.341  1.00  0.00     0.009 A 
HETATM   18  C   UNL     1       7.438  27.098  53.701  1.00  0.00     0.001 A 
HETATM   19  C   UNL     1       6.975  26.003  54.449  1.00  0.00     0.001 A 
ENDBRANCH   8  11
ENDBRANCH   4   7
BRANCH   1  20
HETATM   20  C   UNL     1       5.960  34.173  63.442  1.00  0.00     0.139 A 
HETATM   21  C   UNL     1       5.681  35.510  62.759  1.00  0.00     0.054 C 
HETATM   22  N   UNL     1       6.717  34.370  64.665  1.00  0.00    -0.321 N 
HETATM   23  C   UNL     1       6.036  33.982  65.789  1.00  0.00     0.324 A 
HETATM   24  H   UNL     1       7.624  34.807  64.740  1.00  0.00     0.165 HD
HETATM   25  O   UNL     1       6.450  34.098  66.927  1.00  0.00    -0.247 OA
HETATM   26  N   UNL     1       4.834  33.493  65.421  1.00  0.00    -0.277 N 
HETATM   27  C   UNL     1       4.653  33.627  64.079  1.00  0.00     0.258 A 
HETATM   28  H   UNL     1       4.124  33.193  66.067  1.00  0.00     0.173 HD
HETATM   29  O   UNL     1       3.602  33.377  63.505  1.00  0.00    -0.270 OA
ENDBRANCH   1  20
TORSDOF 3
ENDMDL
MODEL 3
REMARK VINA RESULT:      -9.5      2.035      3.029
REMARK  3 active torsions:
REMARK  status: ('A' for Active; 'I' for Inactive)
REMARK    1  A    between atoms: C_2  and  C_3 
REMARK    2  A    between atoms: C_6  and  C_7 
REMARK       I    between atoms: C_7  and  N_8 
REMARK    3  A    between atoms: N_8  and  N_9 
ROOT
HETATM    1  C   UNL     1       7.273  27.401  56.667  1.00  0.00    -0.021 A 
HETATM    2  C   UNL     1       8.583  27.754  57.041  1.00  0.00     0.011 A 
HETATM    3  C   UNL     1       8.852  28.928  57.763  1.00  0.00     0.018 A 
HETATM    4  C   UNL     1       7.809  29.783  58.131  1.00  0.00     0.033 A 
HETATM    5  C   UNL     1       6.500  29.430  57.780  1.00  0.00     0.018 A 
HETATM    6  C   UNL     1       6.235  28.256  57.069  1.00  0.00     0.011 A 
ENDROOT
BRANCH   4   7
HETATM    7  C   UNL     1       7.998  31.041  58.919  1.00  0.00     0.266 C 
HETATM    8  N   UNL     1       7.126  31.270  59.980  1.00  0.00    -0.284 N 
HETATM    9  H   UNL     1       6.459  30.567  60.274  1.00  0.00     0.184 HD
HETATM   10  O   UNL     1       8.908  31.805  58.599  1.00  0.00    -0.266 OA
BRANCH   8  11
HETATM   11  N   UNL     1       7.208  32.427  60.796  1.00  0.00    -0.220 NA
HETATM   12  C   UNL     1       5.887  32.956  61.233  1.00  0.00     0.153 C 
HETATM   13  C   UNL     1       6.074  33.376  62.655  1.00  0.00    -0.036 A 
HETATM   14  C   UNL     1       7.328  32.972  63.106  1.00  0.00    -0.036 A 
HETATM   15  C   UNL     1       5.184  34.025  63.496  1.00  0.00     0.009 A 
HETATM   16  C   UNL     1       8.059  32.268  62.007  1.00  0.00     0.153 C 
HETATM   17  C   UNL     1       7.728  33.199  64.412  1.00  0.00     0.009 A 
HETATM   18  C   UNL     1       6.841  33.853  65.270  1.00  0.00     0.001 A 
HETATM   19  C   UNL     1       5.577  34.264  64.815  1.00  0.00     0.001 A 
ENDBRANCH   8  11
ENDBRANCH   4   7
BRANCH   1  20
HETATM   20  C   UNL     1       6.979  26.096  55.931  1.00  0.00     0.139 A 
HETATM   21  C   UNL     1       7.966  25.000  56.324  1.00  0.00     0.054 C 
HETATM   22  N   UNL     1       6.956  26.274  54.490  1.00  0.00    -0.321 N 
HETATM   23  C   UNL     1       5.741  25.977  53.930  1.00  0.00     0.324 A 
HETATM   24  H   UNL     1       7.743  26.518  53.908  1.00  0.00     0.165 HD
HETATM   25  O   UNL     1       5.501  26.006  52.737  1.00  0.00    -0.247 OA
HETATM   26  N   UNL     1       4.886  25.620  54.910  1.00  0.00    -0.277 N 
HETATM   27  C   UNL     1       5.524  25.580  56.110  1.00  0.00     0.258 A 
HETATM   28  H   UNL     1       3.945  25.303  54.751  1.00  0.00     0.173 HD
HETATM   29  O   UNL     1       5.012  25.168  57.142  1.00  0.00    -0.270 OA
ENDBRANCH   1  20
TORSDOF 3
ENDMDL
MODEL 4
REMARK VINA RESULT:      -9.3      6.781      9.654
REMARK  3 active torsions:
REMARK  status: ('A' for Active; 'I' for Inactive)
REMARK    1  A    between atoms: C_2  and  C_3 
REMARK    2  A    between atoms: C_6  and  C_7 
REMARK       I    between atoms: C_7  and  N_8 
REMARK    3  A    between atoms: N_8  and  N_9 
ROOT
HETATM    1  C   UNL     1       3.611  28.272  50.422  1.00  0.00    -0.021 A 
HETATM    2  C   UNL     1       3.809  28.685  51.753  1.00  0.00     0.011 A 
HETATM    3  C   UNL     1       4.785  28.093  52.570  1.00  0.00     0.018 A 
HETATM    4  C   UNL     1       5.594  27.068  52.071  1.00  0.00     0.033 A 
HETATM    5  C   UNL     1       5.419  26.664  50.742  1.00  0.00     0.018 A 
HETATM    6  C   UNL     1       4.451  27.261  49.929  1.00  0.00     0.011 A 
ENDROOT
BRANCH   4   7
HETATM    7  C   UNL     1       6.674  26.397  52.860  1.00  0.00     0.266 C 
HETATM    8  N   UNL     1       6.670  25.004  52.898  1.00  0.00    -0.284 N 
HETATM    9  H   UNL     1       6.027  24.465  52.331  1.00  0.00     0.184 HD
HETATM   10  O   UNL     1       7.510  27.097  53.430  1.00  0.00    -0.266 OA
BRANCH   8  11
HETATM   11  N   UNL     1       7.641  24.259  53.614  1.00  0.00    -0.220 NA
HETATM   12  C   UNL     1       7.174  23.767  54.938  1.00  0.00     0.153 C 
HETATM   13  C   UNL     1       7.727  22.385  55.070  1.00  0.00    -0.036 A 
HETATM   14  C   UNL     1       8.315  21.995  53.870  1.00  0.00    -0.036 A 
HETATM   15  C   UNL     1       7.672  21.525  56.155  1.00  0.00     0.009 A 
HETATM   16  C   UNL     1       8.201  23.100  52.868  1.00  0.00     0.153 C 
HETATM   17  C   UNL     1       8.861  20.732  53.716  1.00  0.00     0.009 A 
HETATM   18  C   UNL     1       8.814  19.855  54.802  1.00  0.00     0.001 A 
HETATM   19  C   UNL     1       8.224  20.249  56.014  1.00  0.00     0.001 A 
ENDBRANCH   8  11
ENDBRANCH   4   7
BRANCH   1  20
HETATM   20  C   UNL     1       2.586  28.955  49.520  1.00  0.00     0.139 A 
HETATM   21  C   UNL     1       2.162  30.309  50.084  1.00  0.00     0.054 C 
HETATM   22  N   UNL     1       1.427  28.115  49.275  1.00  0.00    -0.321 N 
HETATM   23  C   UNL     1       1.256  27.804  47.951  1.00  0.00     0.324 A 
HETATM   24  H   UNL     1       0.747  27.824  49.962  1.00  0.00     0.165 HD
HETATM   25  O   UNL     1       0.329  27.156  47.504  1.00  0.00    -0.247 OA
HETATM   26  N   UNL     1       2.258  28.364  47.241  1.00  0.00    -0.277 N 
HETATM   27  C   UNL     1       3.049  29.123  48.046  1.00  0.00     0.258 A 
HETATM   28  H   UNL     1       2.328  28.328  46.239  1.00  0.00     0.173 HD
HETATM   29  O   UNL     1       3.954  29.836  47.636  1.00  0.00    -0.270 OA
ENDBRANCH   1  20
TORSDOF 3
ENDMDL
MODEL 5
REMARK VINA RESULT:      -9.0      1.657      2.384
REMARK  3 active torsions:
REMARK  status: ('A' for Active; 'I' for Inactive)
REMARK    1  A    between atoms: C_2  and  C_3 
REMARK    2  A    between atoms: C_6  and  C_7 
REMARK       I    between atoms: C_7  and  N_8 
REMARK    3  A    between atoms: N_8  and  N_9 
ROOT
HETATM    1  C   UNL     1       7.323  26.394  54.359  1.00  0.00    -0.021 A 
HETATM    2  C   UNL     1       7.508  26.041  55.709  1.00  0.00     0.011 A 
HETATM    3  C   UNL     1       8.006  26.958  56.648  1.00  0.00     0.018 A 
HETATM    4  C   UNL     1       8.332  28.260  56.257  1.00  0.00     0.033 A 
HETATM    5  C   UNL     1       8.132  28.627  54.920  1.00  0.00     0.018 A 
HETATM    6  C   UNL     1       7.628  27.713  53.990  1.00  0.00     0.011 A 
ENDROOT
BRANCH   4   7
HETATM    7  C   UNL     1       8.846  29.310  57.192  1.00  0.00     0.266 C 
HETATM    8  N   UNL     1       7.906  30.028  57.929  1.00  0.00    -0.284 N 
HETATM    9  H   UNL     1       6.924  29.781  57.911  1.00  0.00     0.184 HD
HETATM   10  O   UNL     1      10.060  29.486  57.271  1.00  0.00    -0.266 OA
BRANCH   8  11
HETATM   11  N   UNL     1       8.274  31.047  58.843  1.00  0.00    -0.220 NA
HETATM   12  C   UNL     1       7.165  31.974  59.197  1.00  0.00     0.153 C 
HETATM   13  C   UNL     1       7.313  32.237  60.661  1.00  0.00    -0.036 A 
HETATM   14  C   UNL     1       8.297  31.407  61.193  1.00  0.00    -0.036 A 
HETATM   15  C   UNL     1       6.600  33.110  61.466  1.00  0.00     0.009 A 
HETATM   16  C   UNL     1       8.874  30.549  60.111  1.00  0.00     0.153 C 
HETATM   17  C   UNL     1       8.593  31.421  62.545  1.00  0.00     0.009 A 
HETATM   18  C   UNL     1       7.882  32.297  63.368  1.00  0.00     0.001 A 
HETATM   19  C   UNL     1       6.892  33.137  62.831  1.00  0.00     0.001 A 
ENDBRANCH   8  11
ENDBRANCH   4   7
BRANCH   1  20
HETATM   20  C   UNL     1       6.729  25.411  53.353  1.00  0.00     0.139 A 
HETATM   21  C   UNL     1       7.408  24.046  53.440  1.00  0.00     0.054 C 
HETATM   22  N   UNL     1       6.778  25.922  51.994  1.00  0.00    -0.321 N 
HETATM   23  C   UNL     1       5.538  26.072  51.430  1.00  0.00     0.324 A 
HETATM   24  H   UNL     1       7.612  26.097  51.454  1.00  0.00     0.165 HD
HETATM   25  O   UNL     1       5.335  26.437  50.288  1.00  0.00    -0.247 OA
HETATM   26  N   UNL     1       4.603  25.715  52.334  1.00  0.00    -0.277 N 
HETATM   27  C   UNL     1       5.190  25.239  53.466  1.00  0.00     0.258 A 
HETATM   28  H   UNL     1       3.616  25.683  52.144  1.00  0.00     0.173 HD
HETATM   29  O   UNL     1       4.572  24.734  54.393  1.00  0.00    -0.270 OA
ENDBRANCH   1  20
TORSDOF 3
ENDMDL
MODEL 6
REMARK VINA RESULT:      -9.0      4.213     10.809
REMARK  3 active torsions:
REMARK  status: ('A' for Active; 'I' for Inactive)
REMARK    1  A    between atoms: C_2  and  C_3 
REMARK    2  A    between atoms: C_6  and  C_7 
REMARK       I    between atoms: C_7  and  N_8 
REMARK    3  A    between atoms: N_8  and  N_9 
ROOT
HETATM    1  C   UNL     1       5.589  34.059  62.782  1.00  0.00    -0.021 A 
HETATM    2  C   UNL     1       6.718  33.229  62.645  1.00  0.00     0.011 A 
HETATM    3  C   UNL     1       6.979  32.532  61.455  1.00  0.00     0.018 A 
HETATM    4  C   UNL     1       6.112  32.650  60.364  1.00  0.00     0.033 A 
HETATM    5  C   UNL     1       4.997  33.489  60.484  1.00  0.00     0.018 A 
HETATM    6  C   UNL     1       4.745  34.188  61.668  1.00  0.00     0.011 A 
ENDROOT
BRANCH   4   7
HETATM    7  C   UNL     1       6.323  31.965  59.051  1.00  0.00     0.266 C 
HETATM    8  N   UNL     1       6.647  30.610  59.079  1.00  0.00    -0.284 N 
HETATM    9  H   UNL     1       6.638  30.085  59.945  1.00  0.00     0.184 HD
HETATM   10  O   UNL     1       6.198  32.620  58.017  1.00  0.00    -0.266 OA
BRANCH   8  11
HETATM   11  N   UNL     1       6.871  29.857  57.899  1.00  0.00    -0.220 NA
HETATM   12  C   UNL     1       7.976  28.867  58.011  1.00  0.00     0.153 C 
HETATM   13  C   UNL     1       7.498  27.648  57.291  1.00  0.00    -0.036 A 
HETATM   14  C   UNL     1       6.160  27.804  56.935  1.00  0.00    -0.036 A 
HETATM   15  C   UNL     1       8.181  26.476  57.014  1.00  0.00     0.009 A 
HETATM   16  C   UNL     1       5.669  29.143  57.387  1.00  0.00     0.153 C 
HETATM   17  C   UNL     1       5.466  26.791  56.297  1.00  0.00     0.009 A 
HETATM   18  C   UNL     1       6.143  25.603  56.011  1.00  0.00     0.001 A 
HETATM   19  C   UNL     1       7.493  25.447  56.366  1.00  0.00     0.001 A 
ENDBRANCH   8  11
ENDBRANCH   4   7
BRANCH   1  20
HETATM   20  C   UNL     1       5.338  34.858  64.058  1.00  0.00     0.139 A 
HETATM   21  C   UNL     1       5.005  36.316  63.747  1.00  0.00     0.054 C 
HETATM   22  N   UNL     1       6.453  34.773  64.986  1.00  0.00    -0.321 N 
HETATM   23  C   UNL     1       6.114  34.200  66.184  1.00  0.00     0.324 A 
HETATM   24  H   UNL     1       7.379  35.146  64.839  1.00  0.00     0.165 HD
HETATM   25  O   UNL     1       6.869  34.069  67.129  1.00  0.00    -0.247 OA
HETATM   26  N   UNL     1       4.812  33.848  66.145  1.00  0.00    -0.277 N 
HETATM   27  C   UNL     1       4.241  34.255  64.979  1.00  0.00     0.258 A 
HETATM   28  H   UNL     1       4.309  33.458  66.923  1.00  0.00     0.173 HD
HETATM   29  O   UNL     1       3.045  34.172  64.741  1.00  0.00    -0.270 OA
ENDBRANCH   1  20
TORSDOF 3
ENDMDL
MODEL 7
REMARK VINA RESULT:      -8.8      1.967      2.807
REMARK  3 active torsions:
REMARK  status: ('A' for Active; 'I' for Inactive)
REMARK    1  A    between atoms: C_2  and  C_3 
REMARK    2  A    between atoms: C_6  and  C_7 
REMARK       I    between atoms: C_7  and  N_8 
REMARK    3  A    between atoms: N_8  and  N_9 
ROOT
HETATM    1  C   UNL     1       6.500  28.067  56.545  1.00  0.00    -0.021 A 
HETATM    2  C   UNL     1       5.679  29.206  56.639  1.00  0.00     0.011 A 
HETATM    3  C   UNL     1       6.014  30.288  57.469  1.00  0.00     0.018 A 
HETATM    4  C   UNL     1       7.187  30.257  58.228  1.00  0.00     0.033 A 
HETATM    5  C   UNL     1       8.021  29.136  58.126  1.00  0.00     0.018 A 
HETATM    6  C   UNL     1       7.688  28.064  57.293  1.00  0.00     0.011 A 
ENDROOT
BRANCH   4   7
HETATM    7  C   UNL     1       7.636  31.372  59.120  1.00  0.00     0.266 C 
HETATM    8  N   UNL     1       6.833  31.679  60.217  1.00  0.00    -0.284 N 
HETATM    9  H   UNL     1       6.036  31.105  60.461  1.00  0.00     0.184 HD
HETATM   10  O   UNL     1       8.683  31.958  58.850  1.00  0.00    -0.266 OA
BRANCH   8  11
HETATM   11  N   UNL     1       7.156  32.715  61.129  1.00  0.00    -0.220 NA
HETATM   12  C   UNL     1       6.009  33.600  61.472  1.00  0.00     0.153 C 
HETATM   13  C   UNL     1       6.138  33.874  62.936  1.00  0.00    -0.036 A 
HETATM   14  C   UNL     1       7.151  33.085  63.477  1.00  0.00    -0.036 A 
HETATM   15  C   UNL     1       5.387  34.722  63.733  1.00  0.00     0.009 A 
HETATM   16  C   UNL     1       7.767  32.246  62.403  1.00  0.00     0.153 C 
HETATM   17  C   UNL     1       7.438  33.117  64.830  1.00  0.00     0.009 A 
HETATM   18  C   UNL     1       6.688  33.969  65.646  1.00  0.00     0.001 A 
HETATM   19  C   UNL     1       5.670  34.766  65.099  1.00  0.00     0.001 A 
ENDBRANCH   8  11
ENDBRANCH   4   7
BRANCH   1  20
HETATM   20  C   UNL     1       6.160  26.916  55.601  1.00  0.00     0.139 A 
HETATM   21  C   UNL     1       4.860  27.180  54.846  1.00  0.00     0.054 C 
HETATM   22  N   UNL     1       6.102  25.640  56.292  1.00  0.00    -0.321 N 
HETATM   23  C   UNL     1       7.026  24.737  55.834  1.00  0.00     0.324 A 
HETATM   24  H   UNL     1       5.426  25.372  56.991  1.00  0.00     0.165 HD
HETATM   25  O   UNL     1       7.131  23.591  56.228  1.00  0.00    -0.247 OA
HETATM   26  N   UNL     1       7.760  25.320  54.864  1.00  0.00    -0.277 N 
HETATM   27  C   UNL     1       7.290  26.568  54.593  1.00  0.00     0.258 A 
HETATM   28  H   UNL     1       8.469  24.847  54.331  1.00  0.00     0.173 HD
HETATM   29  O   UNL     1       7.696  27.264  53.673  1.00  0.00    -0.270 OA
ENDBRANCH   1  20
TORSDOF 3
ENDMDL
MODEL 8
REMARK VINA RESULT:      -8.1      2.911      4.171
REMARK  3 active torsions:
REMARK  status: ('A' for Active; 'I' for Inactive)
REMARK    1  A    between atoms: C_2  and  C_3 
REMARK    2  A    between atoms: C_6  and  C_7 
REMARK       I    between atoms: C_7  and  N_8 
REMARK    3  A    between atoms: N_8  and  N_9 
ROOT
HETATM    1  C   UNL     1       6.648  29.212  55.855  1.00  0.00    -0.021 A 
HETATM    2  C   UNL     1       5.699  30.118  56.365  1.00  0.00     0.011 A 
HETATM    3  C   UNL     1       5.977  30.925  57.480  1.00  0.00     0.018 A 
HETATM    4  C   UNL     1       7.219  30.845  58.115  1.00  0.00     0.033 A 
HETATM    5  C   UNL     1       8.177  29.961  57.603  1.00  0.00     0.018 A 
HETATM    6  C   UNL     1       7.900  29.165  56.488  1.00  0.00     0.011 A 
ENDROOT
BRANCH   4   7
HETATM    7  C   UNL     1       7.611  31.681  59.293  1.00  0.00     0.266 C 
HETATM    8  N   UNL     1       6.768  31.663  60.402  1.00  0.00    -0.284 N 
HETATM    9  H   UNL     1       5.979  31.030  60.452  1.00  0.00     0.184 HD
HETATM   10  O   UNL     1       8.649  32.337  59.231  1.00  0.00    -0.266 OA
BRANCH   8  11
HETATM   11  N   UNL     1       7.035  32.415  61.573  1.00  0.00    -0.220 NA
HETATM   12  C   UNL     1       6.729  33.866  61.446  1.00  0.00     0.153 C 
HETATM   13  C   UNL     1       6.114  34.262  62.750  1.00  0.00    -0.036 A 
HETATM   14  C   UNL     1       5.890  33.130  63.530  1.00  0.00    -0.036 A 
HETATM   15  C   UNL     1       5.741  35.521  63.190  1.00  0.00     0.009 A 
HETATM   16  C   UNL     1       6.355  31.911  62.798  1.00  0.00     0.153 C 
HETATM   17  C   UNL     1       5.283  33.223  64.770  1.00  0.00     0.009 A 
HETATM   18  C   UNL     1       4.902  34.488  65.227  1.00  0.00     0.001 A 
HETATM   19  C   UNL     1       5.131  35.629  64.441  1.00  0.00     0.001 A 
ENDBRANCH   8  11
ENDBRANCH   4   7
BRANCH   1  20
HETATM   20  C   UNL     1       6.362  28.376  54.610  1.00  0.00     0.139 A 
HETATM   21  C   UNL     1       7.655  27.925  53.933  1.00  0.00     0.054 C 
HETATM   22  N   UNL     1       5.506  29.074  53.666  1.00  0.00    -0.321 N 
HETATM   23  C   UNL     1       4.317  28.432  53.441  1.00  0.00     0.324 A 
HETATM   24  H   UNL     1       5.745  29.908  53.151  1.00  0.00     0.165 HD
HETATM   25  O   UNL     1       3.465  28.803  52.656  1.00  0.00    -0.247 OA
HETATM   26  N   UNL     1       4.273  27.318  54.202  1.00  0.00    -0.277 N 
HETATM   27  C   UNL     1       5.448  27.147  54.866  1.00  0.00     0.258 A 
HETATM   28  H   UNL     1       3.527  26.646  54.175  1.00  0.00     0.173 HD
HETATM   29  O   UNL     1       5.719  26.154  55.527  1.00  0.00    -0.270 OA
ENDBRANCH   1  20
TORSDOF 3
ENDMDL
MODEL 9
REMARK VINA RESULT:      -8.0      3.293      9.653
REMARK  3 active torsions:
REMARK  status: ('A' for Active; 'I' for Inactive)
REMARK    1  A    between atoms: C_2  and  C_3 
REMARK    2  A    between atoms: C_6  and  C_7 
REMARK       I    between atoms: C_7  and  N_8 
REMARK    3  A    between atoms: N_8  and  N_9 
ROOT
HETATM    1  C   UNL     1       5.228  31.568  58.440  1.00  0.00    -0.021 A 
HETATM    2  C   UNL     1       4.177  30.831  57.861  1.00  0.00     0.011 A 
HETATM    3  C   UNL     1       4.406  29.606  57.215  1.00  0.00     0.018 A 
HETATM    4  C   UNL     1       5.701  29.085  57.131  1.00  0.00     0.033 A 
HETATM    5  C   UNL     1       6.750  29.801  57.721  1.00  0.00     0.018 A 
HETATM    6  C   UNL     1       6.517  31.016  58.371  1.00  0.00     0.011 A 
ENDROOT
BRANCH   4   7
HETATM    7  C   UNL     1       6.035  27.778  56.483  1.00  0.00     0.266 C 
HETATM    8  N   UNL     1       5.089  26.758  56.569  1.00  0.00    -0.284 N 
HETATM    9  H   UNL     1       4.171  26.925  56.963  1.00  0.00     0.184 HD
HETATM   10  O   UNL     1       7.115  27.665  55.906  1.00  0.00    -0.266 OA
BRANCH   8  11
HETATM   11  N   UNL     1       5.296  25.479  55.996  1.00  0.00    -0.220 NA
HETATM   12  C   UNL     1       5.318  25.477  54.508  1.00  0.00     0.153 C 
HETATM   13  C   UNL     1       6.406  24.526  54.124  1.00  0.00    -0.036 A 
HETATM   14  C   UNL     1       7.108  24.128  55.259  1.00  0.00    -0.036 A 
HETATM   15  C   UNL     1       6.773  24.086  52.863  1.00  0.00     0.009 A 
HETATM   16  C   UNL     1       6.521  24.781  56.471  1.00  0.00     0.153 C 
HETATM   17  C   UNL     1       8.199  23.283  55.167  1.00  0.00     0.009 A 
HETATM   18  C   UNL     1       8.580  22.830  53.901  1.00  0.00     0.001 A 
HETATM   19  C   UNL     1       7.870  23.228  52.757  1.00  0.00     0.001 A 
ENDBRANCH   8  11
ENDBRANCH   4   7
BRANCH   1  20
HETATM   20  C   UNL     1       4.968  32.872  59.190  1.00  0.00     0.139 A 
HETATM   21  C   UNL     1       4.704  34.027  58.226  1.00  0.00     0.054 C 
HETATM   22  N   UNL     1       6.047  33.203  60.104  1.00  0.00    -0.321 N 
HETATM   23  C   UNL     1       5.646  33.256  61.414  1.00  0.00     0.324 A 
HETATM   24  H   UNL     1       6.992  33.446  59.846  1.00  0.00     0.165 HD
HETATM   25  O   UNL     1       6.365  33.561  62.347  1.00  0.00    -0.247 OA
HETATM   26  N   UNL     1       4.334  32.953  61.480  1.00  0.00    -0.277 N 
HETATM   27  C   UNL     1       3.818  32.786  60.232  1.00  0.00     0.258 A 
HETATM   28  H   UNL     1       3.791  32.978  62.325  1.00  0.00     0.173 HD
HETATM   29  O   UNL     1       2.627  32.627  60.002  1.00  0.00    -0.270 OA
ENDBRANCH   1  20
TORSDOF 3
ENDMDL
MODEL 10
REMARK VINA RESULT:      -8.0      3.335      5.404
REMARK  3 active torsions:
REMARK  status: ('A' for Active; 'I' for Inactive)
REMARK    1  A    between atoms: C_2  and  C_3 
REMARK    2  A    between atoms: C_6  and  C_7 
REMARK       I    between atoms: C_7  and  N_8 
REMARK    3  A    between atoms: N_8  and  N_9 
ROOT
HETATM    1  C   UNL     1       7.151  29.958  57.349  1.00  0.00    -0.021 A 
HETATM    2  C   UNL     1       5.783  30.002  57.023  1.00  0.00     0.011 A 
HETATM    3  C   UNL     1       4.890  30.845  57.704  1.00  0.00     0.018 A 
HETATM    4  C   UNL     1       5.349  31.672  58.734  1.00  0.00     0.033 A 
HETATM    5  C   UNL     1       6.713  31.650  59.052  1.00  0.00     0.018 A 
HETATM    6  C   UNL     1       7.599  30.815  58.366  1.00  0.00     0.011 A 
ENDROOT
BRANCH   4   7
HETATM    7  C   UNL     1       4.476  32.618  59.497  1.00  0.00     0.266 C 
HETATM    8  N   UNL     1       5.032  33.249  60.608  1.00  0.00    -0.284 N 
HETATM    9  H   UNL     1       6.016  33.154  60.830  1.00  0.00     0.184 HD
HETATM   10  O   UNL     1       3.322  32.798  59.112  1.00  0.00    -0.266 OA
BRANCH   8  11
HETATM   11  N   UNL     1       4.303  34.164  61.408  1.00  0.00    -0.220 NA
HETATM   12  C   UNL     1       3.681  33.553  62.614  1.00  0.00     0.153 C 
HETATM   13  C   UNL     1       3.860  34.556  63.709  1.00  0.00    -0.036 A 
HETATM   14  C   UNL     1       4.676  35.595  63.269  1.00  0.00    -0.036 A 
HETATM   15  C   UNL     1       3.376  34.525  65.006  1.00  0.00     0.009 A 
HETATM   16  C   UNL     1       5.080  35.354  61.848  1.00  0.00     0.153 C 
HETATM   17  C   UNL     1       5.036  36.631  64.113  1.00  0.00     0.009 A 
HETATM   18  C   UNL     1       4.554  36.612  65.424  1.00  0.00     0.001 A 
HETATM   19  C   UNL     1       3.728  35.566  65.867  1.00  0.00     0.001 A 
ENDBRANCH   8  11
ENDBRANCH   4   7
BRANCH   1  20
HETATM   20  C   UNL     1       8.128  29.081  56.570  1.00  0.00     0.139 A 
HETATM   21  C   UNL     1       9.576  29.489  56.834  1.00  0.00     0.054 C 
HETATM   22  N   UNL     1       7.847  29.080  55.145  1.00  0.00    -0.321 N 
HETATM   23  C   UNL     1       7.529  27.838  54.660  1.00  0.00     0.324 A 
HETATM   24  H   UNL     1       7.932  29.868  54.521  1.00  0.00     0.165 HD
HETATM   25  O   UNL     1       7.304  27.587  53.491  1.00  0.00    -0.247 OA
HETATM   26  N   UNL     1       7.545  26.956  55.680  1.00  0.00    -0.277 N 
HETATM   27  C   UNL     1       7.958  27.558  56.827  1.00  0.00     0.258 A 
HETATM   28  H   UNL     1       7.398  25.967  55.573  1.00  0.00     0.173 HD
HETATM   29  O   UNL     1       8.179  26.959  57.870  1.00  0.00    -0.270 OA
ENDBRANCH   1  20
TORSDOF 3
ENDMDL
