MODEL 1
REMARK VINA RESULT:      -9.5      0.000      0.000
REMARK  7 active torsions:
REMARK  status: ('A' for Active; 'I' for Inactive)
REMARK    1  A    between atoms: C_2  and  N_3 
REMARK    2  A    between atoms: N_7  and  C_8 
REMARK    3  A    between atoms: C_9  and  N_10 
REMARK       I    between atoms: N_10  and  C_11 
REMARK    4  A    between atoms: C_11  and  C_12 
REMARK    5  A    between atoms: C_15  and  C_16 
REMARK    6  A    between atoms: C_16  and  O_17 
REMARK    7  A    between atoms: O_17  and  C_18 
ROOT
HETATM    1  N   UNL     1       7.261  30.889  60.437  1.00  0.00    -0.321 N 
HETATM    2  C   UNL     1       7.956  31.096  59.263  1.00  0.00     0.256 C 
HETATM    3  O   UNL     1       8.579  32.107  58.961  1.00  0.00    -0.267 OA
HETATM    4  H   UNL     1       6.564  30.154  60.464  1.00  0.00     0.169 HD
ENDROOT
BRANCH   1   5
HETATM    5  C   UNL     1       7.234  31.772  61.540  1.00  0.00     0.061 A 
HETATM    6  C   UNL     1       6.002  32.412  61.857  1.00  0.00     0.057 A 
HETATM    7  C   UNL     1       5.942  33.087  63.089  1.00  0.00     0.031 A 
HETATM    8  C   UNL     1       7.067  33.218  63.913  1.00  0.00     0.002 A 
HETATM    9  C   UNL     1       8.280  32.663  63.533  1.00  0.00     0.002 A 
HETATM   10  C   UNL     1       8.362  31.931  62.353  1.00  0.00     0.032 A 
BRANCH   6  11
HETATM   11  N   UNL     1       4.918  32.389  60.944  1.00  0.00    -0.376 N 
HETATM   12  C   UNL     1       5.025  33.375  59.832  1.00  0.00     0.150 C 
HETATM   13  C   UNL     1       4.466  34.750  60.232  1.00  0.00     0.254 C 
HETATM   14  N   UNL     1       3.007  34.620  60.675  1.00  0.00    -0.068 N 
HETATM   15  H   UNL     1       2.479  34.222  59.887  1.00  0.00     0.280 HD
HETATM   16  C   UNL     1       2.899  33.617  61.829  1.00  0.00     0.254 C 
HETATM   17  C   UNL     1       3.538  32.254  61.460  1.00  0.00     0.150 C 
BRANCH  14  18
HETATM   18  C   UNL     1       2.383  35.947  61.038  1.00  0.00     0.230 C 
HETATM   19  C   UNL     1       3.098  36.573  62.222  1.00  0.00     0.034 C 
ENDBRANCH  14  18
ENDBRANCH   6  11
ENDBRANCH   1   5
BRANCH   2  20
HETATM   20  C   UNL     1       7.784  30.024  58.253  1.00  0.00     0.032 A 
HETATM   21  C   UNL     1       6.511  29.807  57.721  1.00  0.00     0.017 A 
HETATM   22  C   UNL     1       6.317  28.803  56.771  1.00  0.00     0.010 A 
HETATM   23  C   UNL     1       7.398  28.023  56.331  1.00  0.00    -0.034 A 
HETATM   24  C   UNL     1       8.675  28.258  56.864  1.00  0.00     0.010 A 
HETATM   25  C   UNL     1       8.869  29.252  57.827  1.00  0.00     0.017 A 
BRANCH  23  26
HETATM   26  C   UNL     1       7.185  26.984  55.253  1.00  0.00     0.214 C 
BRANCH  26  27
HETATM   27  O   UNL     1       7.525  25.717  55.807  1.00  0.00    -0.347 OA
BRANCH  27  28
HETATM   28  C   UNL     1       7.618  24.660  54.946  1.00  0.00     0.069 A 
HETATM   29  C   UNL     1       7.612  23.309  55.295  1.00  0.00     0.037 A 
HETATM   30  C   UNL     1       7.719  22.329  54.303  1.00  0.00     0.003 A 
HETATM   31  C   UNL     1       7.828  22.694  52.962  1.00  0.00     0.000 A 
HETATM   32  C   UNL     1       7.833  24.041  52.609  1.00  0.00     0.003 A 
HETATM   33  C   UNL     1       7.726  25.018  53.600  1.00  0.00     0.037 A 
ENDBRANCH  27  28
ENDBRANCH  26  27
ENDBRANCH  23  26
ENDBRANCH   2  20
TORSDOF 7
ENDMDL
MODEL 2
REMARK VINA RESULT:      -9.0      1.820      2.596
REMARK  7 active torsions:
REMARK  status: ('A' for Active; 'I' for Inactive)
REMARK    1  A    between atoms: C_2  and  N_3 
REMARK    2  A    between atoms: N_7  and  C_8 
REMARK    3  A    between atoms: C_9  and  N_10 
REMARK       I    between atoms: N_10  and  C_11 
REMARK    4  A    between atoms: C_11  and  C_12 
REMARK    5  A    between atoms: C_15  and  C_16 
REMARK    6  A    between atoms: C_16  and  O_17 
REMARK    7  A    between atoms: O_17  and  C_18 
ROOT
HETATM    1  N   UNL     1       7.333  29.840  58.532  1.00  0.00    -0.321 N 
HETATM    2  C   UNL     1       8.233  29.414  57.577  1.00  0.00     0.256 C 
HETATM    3  O   UNL     1       9.282  29.970  57.275  1.00  0.00    -0.267 OA
HETATM    4  H   UNL     1       6.388  29.475  58.503  1.00  0.00     0.169 HD
ENDROOT
BRANCH   1   5
HETATM    5  C   UNL     1       7.516  30.939  59.400  1.00  0.00     0.061 A 
HETATM    6  C   UNL     1       6.414  31.812  59.620  1.00  0.00     0.057 A 
HETATM    7  C   UNL     1       6.548  32.745  60.664  1.00  0.00     0.031 A 
HETATM    8  C   UNL     1       7.745  32.885  61.378  1.00  0.00     0.002 A 
HETATM    9  C   UNL     1       8.836  32.083  61.077  1.00  0.00     0.002 A 
HETATM   10  C   UNL     1       8.720  31.104  60.097  1.00  0.00     0.032 A 
BRANCH   6  11
HETATM   11  N   UNL     1       5.264  31.750  58.794  1.00  0.00    -0.376 N 
HETATM   12  C   UNL     1       5.289  32.681  57.630  1.00  0.00     0.150 C 
HETATM   13  C   UNL     1       4.762  34.077  58.004  1.00  0.00     0.254 C 
HETATM   14  N   UNL     1       3.341  33.975  58.561  1.00  0.00    -0.068 N 
HETATM   15  H   UNL     1       2.755  33.542  57.835  1.00  0.00     0.280 HD
HETATM   16  C   UNL     1       3.318  33.029  59.767  1.00  0.00     0.254 C 
HETATM   17  C   UNL     1       3.926  31.647  59.417  1.00  0.00     0.150 C 
BRANCH  14  18
HETATM   18  C   UNL     1       2.748  35.321  58.905  1.00  0.00     0.230 C 
HETATM   19  C   UNL     1       3.825  36.390  58.949  1.00  0.00     0.034 C 
ENDBRANCH  14  18
ENDBRANCH   6  11
ENDBRANCH   1   5
BRANCH   2  20
HETATM   20  C   UNL     1       7.773  28.253  56.778  1.00  0.00     0.032 A 
HETATM   21  C   UNL     1       7.515  27.049  57.437  1.00  0.00     0.017 A 
HETATM   22  C   UNL     1       7.084  25.938  56.712  1.00  0.00     0.010 A 
HETATM   23  C   UNL     1       6.887  26.028  55.324  1.00  0.00    -0.034 A 
HETATM   24  C   UNL     1       7.139  27.245  54.674  1.00  0.00     0.010 A 
HETATM   25  C   UNL     1       7.586  28.356  55.396  1.00  0.00     0.017 A 
BRANCH  23  26
HETATM   26  C   UNL     1       6.357  24.835  54.561  1.00  0.00     0.214 C 
BRANCH  26  27
HETATM   27  O   UNL     1       7.442  24.280  53.825  1.00  0.00    -0.347 OA
BRANCH  27  28
HETATM   28  C   UNL     1       7.676  22.942  53.965  1.00  0.00     0.069 A 
HETATM   29  C   UNL     1       7.920  22.035  52.933  1.00  0.00     0.037 A 
HETATM   30  C   UNL     1       8.140  20.684  53.224  1.00  0.00     0.003 A 
HETATM   31  C   UNL     1       8.119  20.237  54.544  1.00  0.00     0.000 A 
HETATM   32  C   UNL     1       7.878  21.139  55.577  1.00  0.00     0.003 A 
HETATM   33  C   UNL     1       7.658  22.486  55.286  1.00  0.00     0.037 A 
ENDBRANCH  27  28
ENDBRANCH  26  27
ENDBRANCH  23  26
ENDBRANCH   2  20
TORSDOF 7
ENDMDL
MODEL 3
REMARK VINA RESULT:      -9.0      3.441     10.609
REMARK  7 active torsions:
REMARK  status: ('A' for Active; 'I' for Inactive)
REMARK    1  A    between atoms: C_2  and  N_3 
REMARK    2  A    between atoms: N_7  and  C_8 
REMARK    3  A    between atoms: C_9  and  N_10 
REMARK       I    between atoms: N_10  and  C_11 
REMARK    4  A    between atoms: C_11  and  C_12 
REMARK    5  A    between atoms: C_15  and  C_16 
REMARK    6  A    between atoms: C_16  and  O_17 
REMARK    7  A    between atoms: O_17  and  C_18 
ROOT
HETATM    1  N   UNL     1       7.542  26.115  55.586  1.00  0.00    -0.321 N 
HETATM    2  C   UNL     1       6.818  26.334  56.740  1.00  0.00     0.256 C 
HETATM    3  O   UNL     1       6.055  25.540  57.276  1.00  0.00    -0.267 OA
HETATM    4  H   UNL     1       7.910  26.915  55.086  1.00  0.00     0.169 HD
ENDROOT
BRANCH   1   5
HETATM    5  C   UNL     1       7.605  24.893  54.878  1.00  0.00     0.061 A 
HETATM    6  C   UNL     1       6.724  24.711  53.775  1.00  0.00     0.057 A 
HETATM    7  C   UNL     1       6.973  23.601  52.948  1.00  0.00     0.031 A 
HETATM    8  C   UNL     1       7.966  22.662  53.253  1.00  0.00     0.002 A 
HETATM    9  C   UNL     1       8.749  22.817  54.388  1.00  0.00     0.002 A 
HETATM   10  C   UNL     1       8.577  23.936  55.194  1.00  0.00     0.032 A 
BRANCH   6  11
HETATM   11  N   UNL     1       5.635  25.593  53.564  1.00  0.00    -0.376 N 
HETATM   12  C   UNL     1       4.453  24.970  52.904  1.00  0.00     0.150 C 
HETATM   13  C   UNL     1       4.576  24.992  51.371  1.00  0.00     0.254 C 
HETATM   14  N   UNL     1       4.754  26.427  50.875  1.00  0.00    -0.068 N 
HETATM   15  H   UNL     1       3.935  26.966  51.187  1.00  0.00     0.280 HD
HETATM   16  C   UNL     1       5.979  27.065  51.542  1.00  0.00     0.254 C 
HETATM   17  C   UNL     1       5.898  26.969  53.087  1.00  0.00     0.150 C 
BRANCH  14  18
HETATM   18  C   UNL     1       4.835  26.523  49.370  1.00  0.00     0.230 C 
HETATM   19  C   UNL     1       3.652  25.826  48.721  1.00  0.00     0.034 C 
ENDBRANCH  14  18
ENDBRANCH   6  11
ENDBRANCH   1   5
BRANCH   2  20
HETATM   20  C   UNL     1       6.900  27.721  57.259  1.00  0.00     0.032 A 
HETATM   21  C   UNL     1       5.760  28.526  57.193  1.00  0.00     0.017 A 
HETATM   22  C   UNL     1       5.807  29.836  57.671  1.00  0.00     0.010 A 
HETATM   23  C   UNL     1       6.987  30.345  58.237  1.00  0.00    -0.034 A 
HETATM   24  C   UNL     1       8.122  29.523  58.308  1.00  0.00     0.010 A 
HETATM   25  C   UNL     1       8.083  28.215  57.816  1.00  0.00     0.017 A 
BRANCH  23  26
HETATM   26  C   UNL     1       7.004  31.744  58.810  1.00  0.00     0.214 C 
BRANCH  26  27
HETATM   27  O   UNL     1       7.939  31.756  59.884  1.00  0.00    -0.347 OA
BRANCH  27  28
HETATM   28  C   UNL     1       7.522  32.285  61.072  1.00  0.00     0.069 A 
HETATM   29  C   UNL     1       6.347  33.006  61.287  1.00  0.00     0.037 A 
HETATM   30  C   UNL     1       6.048  33.494  62.564  1.00  0.00     0.003 A 
HETATM   31  C   UNL     1       6.920  33.263  63.627  1.00  0.00     0.000 A 
HETATM   32  C   UNL     1       8.093  32.543  63.417  1.00  0.00     0.003 A 
HETATM   33  C   UNL     1       8.390  32.056  62.144  1.00  0.00     0.037 A 
ENDBRANCH  27  28
ENDBRANCH  26  27
ENDBRANCH  23  26
ENDBRANCH   2  20
TORSDOF 7
ENDMDL
MODEL 4
REMARK VINA RESULT:      -8.9      1.441      3.460
REMARK  7 active torsions:
REMARK  status: ('A' for Active; 'I' for Inactive)
REMARK    1  A    between atoms: C_2  and  N_3 
REMARK    2  A    between atoms: N_7  and  C_8 
REMARK    3  A    between atoms: C_9  and  N_10 
REMARK       I    between atoms: N_10  and  C_11 
REMARK    4  A    between atoms: C_11  and  C_12 
REMARK    5  A    between atoms: C_15  and  C_16 
REMARK    6  A    between atoms: C_16  and  O_17 
REMARK    7  A    between atoms: O_17  and  C_18 
ROOT
HETATM    1  N   UNL     1       5.280  31.252  58.865  1.00  0.00    -0.321 N 
HETATM    2  C   UNL     1       6.559  31.055  58.385  1.00  0.00     0.256 C 
HETATM    3  O   UNL     1       7.412  31.920  58.228  1.00  0.00    -0.267 OA
HETATM    4  H   UNL     1       4.582  30.538  58.691  1.00  0.00     0.169 HD
ENDROOT
BRANCH   1   5
HETATM    5  C   UNL     1       4.767  32.474  59.355  1.00  0.00     0.061 A 
HETATM    6  C   UNL     1       5.137  32.878  60.670  1.00  0.00     0.057 A 
HETATM    7  C   UNL     1       4.814  34.196  61.037  1.00  0.00     0.031 A 
HETATM    8  C   UNL     1       4.071  35.035  60.197  1.00  0.00     0.002 A 
HETATM    9  C   UNL     1       3.643  34.581  58.957  1.00  0.00     0.002 A 
HETATM   10  C   UNL     1       3.999  33.306  58.532  1.00  0.00     0.032 A 
BRANCH   6  11
HETATM   11  N   UNL     1       5.763  31.968  61.558  1.00  0.00    -0.376 N 
HETATM   12  C   UNL     1       4.997  31.698  62.807  1.00  0.00     0.150 C 
HETATM   13  C   UNL     1       5.297  32.739  63.898  1.00  0.00     0.254 C 
HETATM   14  N   UNL     1       6.796  32.771  64.201  1.00  0.00    -0.068 N 
HETATM   15  H   UNL     1       7.070  31.828  64.507  1.00  0.00     0.280 HD
HETATM   16  C   UNL     1       7.584  33.064  62.919  1.00  0.00     0.254 C 
HETATM   17  C   UNL     1       7.221  32.067  61.789  1.00  0.00     0.150 C 
BRANCH  14  18
HETATM   18  C   UNL     1       7.152  33.744  65.301  1.00  0.00     0.230 C 
HETATM   19  C   UNL     1       5.919  34.133  66.097  1.00  0.00     0.034 C 
ENDBRANCH  14  18
ENDBRANCH   6  11
ENDBRANCH   1   5
BRANCH   2  20
HETATM   20  C   UNL     1       6.825  29.680  57.900  1.00  0.00     0.032 A 
HETATM   21  C   UNL     1       8.137  29.203  57.931  1.00  0.00     0.017 A 
HETATM   22  C   UNL     1       8.419  27.914  57.478  1.00  0.00     0.010 A 
HETATM   23  C   UNL     1       7.388  27.084  57.010  1.00  0.00    -0.034 A 
HETATM   24  C   UNL     1       6.072  27.569  56.994  1.00  0.00     0.010 A 
HETATM   25  C   UNL     1       5.788  28.866  57.433  1.00  0.00     0.017 A 
BRANCH  23  26
HETATM   26  C   UNL     1       7.699  25.666  56.584  1.00  0.00     0.214 C 
BRANCH  26  27
HETATM   27  O   UNL     1       7.014  25.428  55.358  1.00  0.00    -0.347 OA
BRANCH  27  28
HETATM   28  C   UNL     1       7.335  24.291  54.672  1.00  0.00     0.069 A 
HETATM   29  C   UNL     1       7.580  24.196  53.302  1.00  0.00     0.037 A 
HETATM   30  C   UNL     1       7.895  22.959  52.730  1.00  0.00     0.003 A 
HETATM   31  C   UNL     1       7.969  21.816  53.524  1.00  0.00     0.000 A 
HETATM   32  C   UNL     1       7.726  21.906  54.892  1.00  0.00     0.003 A 
HETATM   33  C   UNL     1       7.412  23.140  55.461  1.00  0.00     0.037 A 
ENDBRANCH  27  28
ENDBRANCH  26  27
ENDBRANCH  23  26
ENDBRANCH   2  20
TORSDOF 7
ENDMDL
MODEL 5
REMARK VINA RESULT:      -8.8      3.226      9.877
REMARK  7 active torsions:
REMARK  status: ('A' for Active; 'I' for Inactive)
REMARK    1  A    between atoms: C_2  and  N_3 
REMARK    2  A    between atoms: N_7  and  C_8 
REMARK    3  A    between atoms: C_9  and  N_10 
REMARK       I    between atoms: N_10  and  C_11 
REMARK    4  A    between atoms: C_11  and  C_12 
REMARK    5  A    between atoms: C_15  and  C_16 
REMARK    6  A    between atoms: C_16  and  O_17 
REMARK    7  A    between atoms: O_17  and  C_18 
ROOT
HETATM    1  N   UNL     1       8.194  30.718  59.383  1.00  0.00    -0.321 N 
HETATM    2  C   UNL     1       8.463  31.960  59.919  1.00  0.00     0.256 C 
HETATM    3  O   UNL     1       9.337  32.733  59.548  1.00  0.00    -0.267 OA
HETATM    4  H   UNL     1       7.654  30.059  59.932  1.00  0.00     0.169 HD
ENDROOT
BRANCH   1   5
HETATM    5  C   UNL     1       8.818  30.165  58.241  1.00  0.00     0.061 A 
HETATM    6  C   UNL     1       7.989  29.605  57.228  1.00  0.00     0.057 A 
HETATM    7  C   UNL     1       8.613  29.286  56.009  1.00  0.00     0.031 A 
HETATM    8  C   UNL     1       9.997  29.408  55.836  1.00  0.00     0.002 A 
HETATM    9  C   UNL     1      10.794  29.869  56.875  1.00  0.00     0.002 A 
HETATM   10  C   UNL     1      10.205  30.257  58.073  1.00  0.00     0.032 A 
BRANCH   6  11
HETATM   11  N   UNL     1       6.614  29.357  57.472  1.00  0.00    -0.376 N 
HETATM   12  C   UNL     1       6.213  27.928  57.345  1.00  0.00     0.150 C 
HETATM   13  C   UNL     1       5.870  27.557  55.892  1.00  0.00     0.254 C 
HETATM   14  N   UNL     1       4.755  28.461  55.364  1.00  0.00    -0.068 N 
HETATM   15  H   UNL     1       3.940  28.336  55.978  1.00  0.00     0.280 HD
HETATM   16  C   UNL     1       5.174  29.932  55.481  1.00  0.00     0.254 C 
HETATM   17  C   UNL     1       5.601  30.287  56.927  1.00  0.00     0.150 C 
BRANCH  14  18
HETATM   18  C   UNL     1       4.339  28.117  53.953  1.00  0.00     0.230 C 
HETATM   19  C   UNL     1       5.444  28.451  52.968  1.00  0.00     0.034 C 
ENDBRANCH  14  18
ENDBRANCH   6  11
ENDBRANCH   1   5
BRANCH   2  20
HETATM   20  C   UNL     1       7.687  32.279  61.142  1.00  0.00     0.032 A 
HETATM   21  C   UNL     1       8.375  32.432  62.348  1.00  0.00     0.017 A 
HETATM   22  C   UNL     1       7.672  32.729  63.516  1.00  0.00     0.010 A 
HETATM   23  C   UNL     1       6.279  32.896  63.484  1.00  0.00    -0.034 A 
HETATM   24  C   UNL     1       5.599  32.752  62.265  1.00  0.00     0.010 A 
HETATM   25  C   UNL     1       6.299  32.439  61.096  1.00  0.00     0.017 A 
BRANCH  23  26
HETATM   26  C   UNL     1       5.539  33.283  64.745  1.00  0.00     0.214 C 
BRANCH  26  27
HETATM   27  O   UNL     1       5.835  34.650  65.013  1.00  0.00    -0.347 OA
BRANCH  27  28
HETATM   28  C   UNL     1       5.336  35.581  64.147  1.00  0.00     0.069 A 
HETATM   29  C   UNL     1       6.080  36.490  63.395  1.00  0.00     0.037 A 
HETATM   30  C   UNL     1       5.432  37.395  62.547  1.00  0.00     0.003 A 
HETATM   31  C   UNL     1       4.042  37.393  62.447  1.00  0.00     0.000 A 
HETATM   32  C   UNL     1       3.295  36.486  63.195  1.00  0.00     0.003 A 
HETATM   33  C   UNL     1       3.942  35.584  64.040  1.00  0.00     0.037 A 
ENDBRANCH  27  28
ENDBRANCH  26  27
ENDBRANCH  23  26
ENDBRANCH   2  20
TORSDOF 7
ENDMDL
MODEL 6
REMARK VINA RESULT:      -8.8      1.099      1.676
REMARK  7 active torsions:
REMARK  status: ('A' for Active; 'I' for Inactive)
REMARK    1  A    between atoms: C_2  and  N_3 
REMARK    2  A    between atoms: N_7  and  C_8 
REMARK    3  A    between atoms: C_9  and  N_10 
REMARK       I    between atoms: N_10  and  C_11 
REMARK    4  A    between atoms: C_11  and  C_12 
REMARK    5  A    between atoms: C_15  and  C_16 
REMARK    6  A    between atoms: C_16  and  O_17 
REMARK    7  A    between atoms: O_17  and  C_18 
ROOT
HETATM    1  N   UNL     1       7.016  30.666  59.385  1.00  0.00    -0.321 N 
HETATM    2  C   UNL     1       7.850  30.368  58.327  1.00  0.00     0.256 C 
HETATM    3  O   UNL     1       8.973  30.819  58.144  1.00  0.00    -0.267 OA
HETATM    4  H   UNL     1       6.027  30.467  59.293  1.00  0.00     0.169 HD
ENDROOT
BRANCH   1   5
HETATM    5  C   UNL     1       7.357  31.468  60.498  1.00  0.00     0.061 A 
HETATM    6  C   UNL     1       6.325  32.225  61.120  1.00  0.00     0.057 A 
HETATM    7  C   UNL     1       6.638  32.816  62.358  1.00  0.00     0.031 A 
HETATM    8  C   UNL     1       7.929  32.756  62.898  1.00  0.00     0.002 A 
HETATM    9  C   UNL     1       8.939  32.089  62.221  1.00  0.00     0.002 A 
HETATM   10  C   UNL     1       8.653  31.436  61.028  1.00  0.00     0.032 A 
BRANCH   6  11
HETATM   11  N   UNL     1       5.068  32.393  60.489  1.00  0.00    -0.376 N 
HETATM   12  C   UNL     1       4.923  33.668  59.731  1.00  0.00     0.150 C 
HETATM   13  C   UNL     1       4.456  34.821  60.635  1.00  0.00     0.254 C 
HETATM   14  N   UNL     1       3.131  34.461  61.310  1.00  0.00    -0.068 N 
HETATM   15  H   UNL     1       2.446  34.276  60.566  1.00  0.00     0.280 HD
HETATM   16  C   UNL     1       3.284  33.158  62.102  1.00  0.00     0.254 C 
HETATM   17  C   UNL     1       3.835  32.014  61.214  1.00  0.00     0.150 C 
BRANCH  14  18
HETATM   18  C   UNL     1       2.593  35.574  62.179  1.00  0.00     0.230 C 
HETATM   19  C   UNL     1       3.692  36.159  63.048  1.00  0.00     0.034 C 
ENDBRANCH  14  18
ENDBRANCH   6  11
ENDBRANCH   1   5
BRANCH   2  20
HETATM   20  C   UNL     1       7.226  29.532  57.273  1.00  0.00     0.032 A 
HETATM   21  C   UNL     1       7.971  29.232  56.130  1.00  0.00     0.017 A 
HETATM   22  C   UNL     1       7.409  28.450  55.120  1.00  0.00     0.010 A 
HETATM   23  C   UNL     1       6.107  27.943  55.255  1.00  0.00    -0.034 A 
HETATM   24  C   UNL     1       5.372  28.241  56.412  1.00  0.00     0.010 A 
HETATM   25  C   UNL     1       5.926  29.037  57.419  1.00  0.00     0.017 A 
BRANCH  23  26
HETATM   26  C   UNL     1       5.536  27.043  54.182  1.00  0.00     0.214 C 
BRANCH  26  27
HETATM   27  O   UNL     1       5.403  25.741  54.743  1.00  0.00    -0.347 OA
BRANCH  27  28
HETATM   28  C   UNL     1       6.335  24.807  54.389  1.00  0.00     0.069 A 
HETATM   29  C   UNL     1       6.600  24.355  53.096  1.00  0.00     0.037 A 
HETATM   30  C   UNL     1       7.586  23.386  52.880  1.00  0.00     0.003 A 
HETATM   31  C   UNL     1       8.311  22.870  53.954  1.00  0.00     0.000 A 
HETATM   32  C   UNL     1       8.051  23.319  55.246  1.00  0.00     0.003 A 
HETATM   33  C   UNL     1       7.067  24.285  55.459  1.00  0.00     0.037 A 
ENDBRANCH  27  28
ENDBRANCH  26  27
ENDBRANCH  23  26
ENDBRANCH   2  20
TORSDOF 7
ENDMDL
MODEL 7
REMARK VINA RESULT:      -8.6      8.512     11.009
REMARK  7 active torsions:
REMARK  status: ('A' for Active; 'I' for Inactive)
REMARK    1  A    between atoms: C_2  and  N_3 
REMARK    2  A    between atoms: N_7  and  C_8 
REMARK    3  A    between atoms: C_9  and  N_10 
REMARK       I    between atoms: N_10  and  C_11 
REMARK    4  A    between atoms: C_11  and  C_12 
REMARK    5  A    between atoms: C_15  and  C_16 
REMARK    6  A    between atoms: C_16  and  O_17 
REMARK    7  A    between atoms: O_17  and  C_18 
ROOT
HETATM    1  N   UNL     1       3.215  27.626  49.910  1.00  0.00    -0.321 N 
HETATM    2  C   UNL     1       4.396  26.929  49.758  1.00  0.00     0.256 C 
HETATM    3  O   UNL     1       4.874  26.540  48.700  1.00  0.00    -0.267 OA
HETATM    4  H   UNL     1       2.780  27.648  50.825  1.00  0.00     0.169 HD
ENDROOT
BRANCH   1   5
HETATM    5  C   UNL     1       2.401  28.102  48.857  1.00  0.00     0.061 A 
HETATM    6  C   UNL     1       2.692  29.384  48.311  1.00  0.00     0.057 A 
HETATM    7  C   UNL     1       2.031  29.724  47.118  1.00  0.00     0.031 A 
HETATM    8  C   UNL     1       1.054  28.894  46.553  1.00  0.00     0.002 A 
HETATM    9  C   UNL     1       0.724  27.691  47.160  1.00  0.00     0.002 A 
HETATM   10  C   UNL     1       1.403  27.289  48.305  1.00  0.00     0.032 A 
BRANCH   6  11
HETATM   11  N   UNL     1       3.578  30.270  48.974  1.00  0.00    -0.376 N 
HETATM   12  C   UNL     1       2.927  31.486  49.539  1.00  0.00     0.150 C 
HETATM   13  C   UNL     1       2.818  32.612  48.496  1.00  0.00     0.254 C 
HETATM   14  N   UNL     1       4.203  32.965  47.952  1.00  0.00    -0.068 N 
HETATM   15  H   UNL     1       4.783  33.257  48.750  1.00  0.00     0.280 HD
HETATM   16  C   UNL     1       4.867  31.717  47.358  1.00  0.00     0.254 C 
HETATM   17  C   UNL     1       4.903  30.552  48.379  1.00  0.00     0.150 C 
BRANCH  14  18
HETATM   18  C   UNL     1       4.171  34.099  46.955  1.00  0.00     0.230 C 
HETATM   19  C   UNL     1       3.016  35.041  47.247  1.00  0.00     0.034 C 
ENDBRANCH  14  18
ENDBRANCH   6  11
ENDBRANCH   1   5
BRANCH   2  20
HETATM   20  C   UNL     1       5.032  26.519  51.033  1.00  0.00     0.032 A 
HETATM   21  C   UNL     1       4.832  25.213  51.488  1.00  0.00     0.017 A 
HETATM   22  C   UNL     1       5.415  24.798  52.686  1.00  0.00     0.010 A 
HETATM   23  C   UNL     1       6.219  25.678  53.427  1.00  0.00    -0.034 A 
HETATM   24  C   UNL     1       6.422  26.984  52.955  1.00  0.00     0.010 A 
HETATM   25  C   UNL     1       5.826  27.407  51.763  1.00  0.00     0.017 A 
BRANCH  23  26
HETATM   26  C   UNL     1       6.898  25.194  54.689  1.00  0.00     0.214 C 
BRANCH  26  27
HETATM   27  O   UNL     1       8.071  24.487  54.300  1.00  0.00    -0.347 OA
BRANCH  27  28
HETATM   28  C   UNL     1       8.047  23.125  54.409  1.00  0.00     0.069 A 
HETATM   29  C   UNL     1       7.843  22.395  55.579  1.00  0.00     0.037 A 
HETATM   30  C   UNL     1       7.849  20.996  55.543  1.00  0.00     0.003 A 
HETATM   31  C   UNL     1       8.055  20.325  54.339  1.00  0.00     0.000 A 
HETATM   32  C   UNL     1       8.258  21.050  53.168  1.00  0.00     0.003 A 
HETATM   33  C   UNL     1       8.252  22.445  53.205  1.00  0.00     0.037 A 
ENDBRANCH  27  28
ENDBRANCH  26  27
ENDBRANCH  23  26
ENDBRANCH   2  20
TORSDOF 7
ENDMDL
MODEL 8
REMARK VINA RESULT:      -8.5      6.636     10.578
REMARK  7 active torsions:
REMARK  status: ('A' for Active; 'I' for Inactive)
REMARK    1  A    between atoms: C_2  and  N_3 
REMARK    2  A    between atoms: N_7  and  C_8 
REMARK    3  A    between atoms: C_9  and  N_10 
REMARK       I    between atoms: N_10  and  C_11 
REMARK    4  A    between atoms: C_11  and  C_12 
REMARK    5  A    between atoms: C_15  and  C_16 
REMARK    6  A    between atoms: C_16  and  O_17 
REMARK    7  A    between atoms: O_17  and  C_18 
ROOT
HETATM    1  N   UNL     1       6.515  26.402  51.540  1.00  0.00    -0.321 N 
HETATM    2  C   UNL     1       5.336  26.245  50.841  1.00  0.00     0.256 C 
HETATM    3  O   UNL     1       4.590  25.276  50.892  1.00  0.00    -0.267 OA
HETATM    4  H   UNL     1       7.181  27.094  51.218  1.00  0.00     0.169 HD
ENDROOT
BRANCH   1   5
HETATM    5  C   UNL     1       7.014  25.512  52.518  1.00  0.00     0.061 A 
HETATM    6  C   UNL     1       6.674  25.751  53.879  1.00  0.00     0.057 A 
HETATM    7  C   UNL     1       6.976  24.726  54.793  1.00  0.00     0.031 A 
HETATM    8  C   UNL     1       7.675  23.575  54.405  1.00  0.00     0.002 A 
HETATM    9  C   UNL     1       8.076  23.413  53.087  1.00  0.00     0.002 A 
HETATM   10  C   UNL     1       7.738  24.374  52.142  1.00  0.00     0.032 A 
BRANCH   6  11
HETATM   11  N   UNL     1       6.095  26.983  54.276  1.00  0.00    -0.376 N 
HETATM   12  C   UNL     1       6.979  28.168  54.092  1.00  0.00     0.150 C 
HETATM   13  C   UNL     1       7.905  28.384  55.301  1.00  0.00     0.254 C 
HETATM   14  N   UNL     1       7.078  28.541  56.579  1.00  0.00    -0.068 N 
HETATM   15  H   UNL     1       6.453  29.347  56.445  1.00  0.00     0.280 HD
HETATM   16  C   UNL     1       6.179  27.315  56.776  1.00  0.00     0.254 C 
HETATM   17  C   UNL     1       5.305  27.044  55.525  1.00  0.00     0.150 C 
BRANCH  14  18
HETATM   18  C   UNL     1       7.928  28.803  57.800  1.00  0.00     0.230 C 
HETATM   19  C   UNL     1       9.319  29.264  57.400  1.00  0.00     0.034 C 
ENDBRANCH  14  18
ENDBRANCH   6  11
ENDBRANCH   1   5
BRANCH   2  20
HETATM   20  C   UNL     1       5.068  27.312  49.847  1.00  0.00     0.032 A 
HETATM   21  C   UNL     1       5.305  28.640  50.212  1.00  0.00     0.017 A 
HETATM   22  C   UNL     1       5.060  29.666  49.299  1.00  0.00     0.010 A 
HETATM   23  C   UNL     1       4.596  29.372  48.008  1.00  0.00    -0.034 A 
HETATM   24  C   UNL     1       4.372  28.034  47.648  1.00  0.00     0.010 A 
HETATM   25  C   UNL     1       4.602  27.005  48.565  1.00  0.00     0.017 A 
BRANCH  23  26
HETATM   26  C   UNL     1       4.397  30.489  47.008  1.00  0.00     0.214 C 
BRANCH  26  27
HETATM   27  O   UNL     1       4.629  31.719  47.688  1.00  0.00    -0.347 OA
BRANCH  27  28
HETATM   28  C   UNL     1       5.630  32.519  47.213  1.00  0.00     0.069 A 
HETATM   29  C   UNL     1       5.907  32.784  45.872  1.00  0.00     0.037 A 
HETATM   30  C   UNL     1       6.972  33.624  45.529  1.00  0.00     0.003 A 
HETATM   31  C   UNL     1       7.759  34.203  46.524  1.00  0.00     0.000 A 
HETATM   32  C   UNL     1       7.485  33.942  47.864  1.00  0.00     0.003 A 
HETATM   33  C   UNL     1       6.423  33.104  48.204  1.00  0.00     0.037 A 
ENDBRANCH  27  28
ENDBRANCH  26  27
ENDBRANCH  23  26
ENDBRANCH   2  20
TORSDOF 7
ENDMDL
MODEL 9
REMARK VINA RESULT:      -8.5      6.300      9.974
REMARK  7 active torsions:
REMARK  status: ('A' for Active; 'I' for Inactive)
REMARK    1  A    between atoms: C_2  and  N_3 
REMARK    2  A    between atoms: N_7  and  C_8 
REMARK    3  A    between atoms: C_9  and  N_10 
REMARK       I    between atoms: N_10  and  C_11 
REMARK    4  A    between atoms: C_11  and  C_12 
REMARK    5  A    between atoms: C_15  and  C_16 
REMARK    6  A    between atoms: C_16  and  O_17 
REMARK    7  A    between atoms: O_17  and  C_18 
ROOT
HETATM    1  N   UNL     1       6.791  25.992  52.627  1.00  0.00    -0.321 N 
HETATM    2  C   UNL     1       5.523  25.754  52.138  1.00  0.00     0.256 C 
HETATM    3  O   UNL     1       4.751  24.886  52.526  1.00  0.00    -0.267 OA
HETATM    4  H   UNL     1       7.436  26.530  52.060  1.00  0.00     0.169 HD
ENDROOT
BRANCH   1   5
HETATM    5  C   UNL     1       7.380  25.339  53.734  1.00  0.00     0.061 A 
HETATM    6  C   UNL     1       7.227  25.929  55.020  1.00  0.00     0.057 A 
HETATM    7  C   UNL     1       7.608  25.143  56.122  1.00  0.00     0.031 A 
HETATM    8  C   UNL     1       8.209  23.889  55.960  1.00  0.00     0.002 A 
HETATM    9  C   UNL     1       8.431  23.379  54.689  1.00  0.00     0.002 A 
HETATM   10  C   UNL     1       8.008  24.098  53.577  1.00  0.00     0.032 A 
BRANCH   6  11
HETATM   11  N   UNL     1       6.748  27.256  55.156  1.00  0.00    -0.376 N 
HETATM   12  C   UNL     1       7.580  28.286  54.473  1.00  0.00     0.150 C 
HETATM   13  C   UNL     1       8.737  28.770  55.363  1.00  0.00     0.254 C 
HETATM   14  N   UNL     1       8.194  29.327  56.680  1.00  0.00    -0.068 N 
HETATM   15  H   UNL     1       7.558  30.102  56.448  1.00  0.00     0.280 HD
HETATM   16  C   UNL     1       7.350  28.263  57.391  1.00  0.00     0.254 C 
HETATM   17  C   UNL     1       6.235  27.712  56.467  1.00  0.00     0.150 C 
BRANCH  14  18
HETATM   18  C   UNL     1       9.280  29.863  57.583  1.00  0.00     0.230 C 
HETATM   19  C   UNL     1      10.631  29.813  56.891  1.00  0.00     0.034 C 
ENDBRANCH  14  18
ENDBRANCH   6  11
ENDBRANCH   1   5
BRANCH   2  20
HETATM   20  C   UNL     1       5.168  26.556  50.943  1.00  0.00     0.032 A 
HETATM   21  C   UNL     1       4.625  25.900  49.836  1.00  0.00     0.017 A 
HETATM   22  C   UNL     1       4.284  26.628  48.695  1.00  0.00     0.010 A 
HETATM   23  C   UNL     1       4.463  28.020  48.661  1.00  0.00    -0.034 A 
HETATM   24  C   UNL     1       4.998  28.670  49.783  1.00  0.00     0.010 A 
HETATM   25  C   UNL     1       5.355  27.942  50.921  1.00  0.00     0.017 A 
BRANCH  23  26
HETATM   26  C   UNL     1       4.027  28.804  47.443  1.00  0.00     0.214 C 
BRANCH  26  27
HETATM   27  O   UNL     1       2.782  29.420  47.753  1.00  0.00    -0.347 OA
BRANCH  27  28
HETATM   28  C   UNL     1       1.689  29.021  47.038  1.00  0.00     0.069 A 
HETATM   29  C   UNL     1       1.252  27.707  46.862  1.00  0.00     0.037 A 
HETATM   30  C   UNL     1       0.112  27.443  46.096  1.00  0.00     0.003 A 
HETATM   31  C   UNL     1      -0.595  28.490  45.506  1.00  0.00     0.000 A 
HETATM   32  C   UNL     1      -0.164  29.802  45.679  1.00  0.00     0.003 A 
HETATM   33  C   UNL     1       0.973  30.064  46.443  1.00  0.00     0.037 A 
ENDBRANCH  27  28
ENDBRANCH  26  27
ENDBRANCH  23  26
ENDBRANCH   2  20
TORSDOF 7
ENDMDL
MODEL 10
REMARK VINA RESULT:      -8.3      2.515      4.469
REMARK  7 active torsions:
REMARK  status: ('A' for Active; 'I' for Inactive)
REMARK    1  A    between atoms: C_2  and  N_3 
REMARK    2  A    between atoms: N_7  and  C_8 
REMARK    3  A    between atoms: C_9  and  N_10 
REMARK       I    between atoms: N_10  and  C_11 
REMARK    4  A    between atoms: C_11  and  C_12 
REMARK    5  A    between atoms: C_15  and  C_16 
REMARK    6  A    between atoms: C_16  and  O_17 
REMARK    7  A    between atoms: O_17  and  C_18 
ROOT
HETATM    1  N   UNL     1       5.982  33.417  63.130  1.00  0.00    -0.321 N 
HETATM    2  C   UNL     1       7.265  32.917  63.218  1.00  0.00     0.256 C 
HETATM    3  O   UNL     1       8.071  33.148  64.111  1.00  0.00    -0.267 OA
HETATM    4  H   UNL     1       5.513  33.394  62.233  1.00  0.00     0.169 HD
ENDROOT
BRANCH   1   5
HETATM    5  C   UNL     1       5.340  34.205  64.113  1.00  0.00     0.061 A 
HETATM    6  C   UNL     1       4.905  35.510  63.748  1.00  0.00     0.057 A 
HETATM    7  C   UNL     1       4.063  36.171  64.660  1.00  0.00     0.031 A 
HETATM    8  C   UNL     1       3.757  35.622  65.912  1.00  0.00     0.002 A 
HETATM    9  C   UNL     1       4.273  34.387  66.278  1.00  0.00     0.002 A 
HETATM   10  C   UNL     1       5.055  33.674  65.377  1.00  0.00     0.032 A 
BRANCH   6  11
HETATM   11  N   UNL     1       5.342  36.108  62.539  1.00  0.00    -0.376 N 
HETATM   12  C   UNL     1       5.965  37.451  62.704  1.00  0.00     0.150 C 
HETATM   13  C   UNL     1       4.913  38.573  62.705  1.00  0.00     0.254 C 
HETATM   14  N   UNL     1       4.094  38.532  61.414  1.00  0.00    -0.068 N 
HETATM   15  H   UNL     1       4.749  38.643  60.629  1.00  0.00     0.280 HD
HETATM   16  C   UNL     1       3.440  37.155  61.252  1.00  0.00     0.254 C 
HETATM   17  C   UNL     1       4.488  36.016  61.334  1.00  0.00     0.150 C 
BRANCH  14  18
HETATM   18  C   UNL     1       3.071  39.641  61.332  1.00  0.00     0.230 C 
HETATM   19  C   UNL     1       3.737  41.000  61.446  1.00  0.00     0.034 C 
ENDBRANCH  14  18
ENDBRANCH   6  11
ENDBRANCH   1   5
BRANCH   2  20
HETATM   20  C   UNL     1       7.704  32.149  62.028  1.00  0.00     0.032 A 
HETATM   21  C   UNL     1       6.998  32.309  60.833  1.00  0.00     0.017 A 
HETATM   22  C   UNL     1       7.386  31.598  59.697  1.00  0.00     0.010 A 
HETATM   23  C   UNL     1       8.495  30.739  59.741  1.00  0.00    -0.034 A 
HETATM   24  C   UNL     1       9.204  30.595  60.943  1.00  0.00     0.010 A 
HETATM   25  C   UNL     1       8.808  31.294  62.087  1.00  0.00     0.017 A 
BRANCH  23  26
HETATM   26  C   UNL     1       8.944  30.025  58.485  1.00  0.00     0.214 C 
BRANCH  26  27
HETATM   27  O   UNL     1       8.271  28.771  58.441  1.00  0.00    -0.347 OA
BRANCH  27  28
HETATM   28  C   UNL     1       8.016  28.239  57.209  1.00  0.00     0.069 A 
HETATM   29  C   UNL     1       8.048  28.921  55.993  1.00  0.00     0.037 A 
HETATM   30  C   UNL     1       7.759  28.247  54.802  1.00  0.00     0.003 A 
HETATM   31  C   UNL     1       7.439  26.890  54.823  1.00  0.00     0.000 A 
HETATM   32  C   UNL     1       7.406  26.204  56.035  1.00  0.00     0.003 A 
HETATM   33  C   UNL     1       7.696  26.878  57.221  1.00  0.00     0.037 A 
ENDBRANCH  27  28
ENDBRANCH  26  27
ENDBRANCH  23  26
ENDBRANCH   2  20
TORSDOF 7
ENDMDL
