MODEL 1
REMARK VINA RESULT:      -9.0      0.000      0.000
REMARK  9 active torsions:
REMARK  status: ('A' for Active; 'I' for Inactive)
REMARK    1  A    between atoms: C_5  and  O_6 
REMARK    2  A    between atoms: O_6  and  C_7 
REMARK    3  A    between atoms: C_7  and  C_8 
REMARK    4  A    between atoms: N_9  and  C_10 
REMARK    5  A    between atoms: C_10  and  C_11 
REMARK    6  A    between atoms: C_11  and  C_12 
REMARK    7  A    between atoms: C_18  and  S_19 
REMARK    8  A    between atoms: S_19  and  C_20 
REMARK    9  A    between atoms: C_20  and  C_21 
REMARK       I    between atoms: C_21  and  N_22 
ROOT
HETATM    1  C   UNL     1       6.872  26.212  57.152  1.00  0.00     0.155 A 
HETATM    2  N   UNL     1       6.233  27.415  56.920  1.00  0.00    -0.309 N 
HETATM    3  C   UNL     1       6.987  28.349  57.584  1.00  0.00     0.192 A 
HETATM    4  N   UNL     1       7.982  27.762  58.204  1.00  0.00    -0.123 NA
HETATM    5  N   UNL     1       7.919  26.427  57.927  1.00  0.00    -0.132 NA
ENDROOT
BRANCH   1   6
HETATM    6  C   UNL     1       6.437  24.869  56.674  1.00  0.00     0.256 C 
BRANCH   6   7
HETATM    7  O   UNL     1       7.468  23.937  56.982  1.00  0.00    -0.344 OA
BRANCH   7   8
HETATM    8  C   UNL     1       7.723  22.976  56.042  1.00  0.00     0.069 A 
HETATM    9  C   UNL     1       7.440  23.355  54.729  1.00  0.00     0.037 A 
HETATM   10  C   UNL     1       7.670  22.476  53.669  1.00  0.00     0.009 A 
HETATM   11  C   UNL     1       8.174  21.196  53.912  1.00  0.00    -0.062 A 
HETATM   12  C   UNL     1       8.468  20.255  52.780  1.00  0.00     0.048 C 
HETATM   13  C   UNL     1       8.452  20.815  55.229  1.00  0.00     0.009 A 
HETATM   14  C   UNL     1       8.223  21.698  56.291  1.00  0.00     0.037 A 
ENDBRANCH   7   8
ENDBRANCH   6   7
ENDBRANCH   1   6
BRANCH   2  15
HETATM   15  C   UNL     1       5.035  27.639  56.132  1.00  0.00     0.137 C 
BRANCH  15  16
HETATM   16  C   UNL     1       5.327  28.257  54.764  1.00  0.00     0.059 C 
BRANCH  16  17
HETATM   17  C   UNL     1       5.736  27.219  53.750  1.00  0.00    -0.057 A 
HETATM   18  C   UNL     1       7.083  27.042  53.410  1.00  0.00     0.007 A 
HETATM   19  C   UNL     1       7.450  26.083  52.463  1.00  0.00     0.001 A 
HETATM   20  C   UNL     1       6.477  25.296  51.849  1.00  0.00     0.000 A 
HETATM   21  C   UNL     1       5.135  25.470  52.178  1.00  0.00     0.001 A 
HETATM   22  C   UNL     1       4.765  26.428  53.121  1.00  0.00     0.007 A 
ENDBRANCH  16  17
ENDBRANCH  15  16
ENDBRANCH   2  15
BRANCH   3  23
HETATM   23  S   UNL     1       6.682  30.051  57.589  1.00  0.00    -0.081 SA
BRANCH  23  24
HETATM   24  C   UNL     1       7.643  30.570  59.042  1.00  0.00     0.185 C 
BRANCH  24  25
HETATM   25  C   UNL     1       9.013  31.085  58.631  1.00  0.00     0.226 C 
HETATM   26  N   UNL     1       9.805  30.155  57.987  1.00  0.00    -0.365 N 
HETATM   27  C   UNL     1      11.085  30.528  57.444  1.00  0.00     0.149 C 
HETATM   28  H   UNL     1       9.322  29.371  57.545  1.00  0.00     0.161 HD
HETATM   29  O   UNL     1       9.380  32.234  58.865  1.00  0.00    -0.273 OA
ENDBRANCH  24  25
ENDBRANCH  23  24
ENDBRANCH   3  23
TORSDOF 9
ENDMDL
MODEL 2
REMARK VINA RESULT:      -8.6      3.643      7.943
REMARK  9 active torsions:
REMARK  status: ('A' for Active; 'I' for Inactive)
REMARK    1  A    between atoms: C_5  and  O_6 
REMARK    2  A    between atoms: O_6  and  C_7 
REMARK    3  A    between atoms: C_7  and  C_8 
REMARK    4  A    between atoms: N_9  and  C_10 
REMARK    5  A    between atoms: C_10  and  C_11 
REMARK    6  A    between atoms: C_11  and  C_12 
REMARK    7  A    between atoms: C_18  and  S_19 
REMARK    8  A    between atoms: S_19  and  C_20 
REMARK    9  A    between atoms: C_20  and  C_21 
REMARK       I    between atoms: C_21  and  N_22 
ROOT
HETATM    1  C   UNL     1       6.118  27.495  54.595  1.00  0.00     0.155 A 
HETATM    2  N   UNL     1       5.963  26.371  53.806  1.00  0.00    -0.309 N 
HETATM    3  C   UNL     1       5.568  26.849  52.584  1.00  0.00     0.192 A 
HETATM    4  N   UNL     1       5.451  28.155  52.630  1.00  0.00    -0.123 NA
HETATM    5  N   UNL     1       5.806  28.562  53.883  1.00  0.00    -0.132 NA
ENDROOT
BRANCH   1   6
HETATM    6  C   UNL     1       6.509  27.524  56.033  1.00  0.00     0.256 C 
BRANCH   6   7
HETATM    7  O   UNL     1       7.928  27.617  56.101  1.00  0.00    -0.344 OA
BRANCH   7   8
HETATM    8  C   UNL     1       8.437  28.622  56.878  1.00  0.00     0.069 A 
HETATM    9  C   UNL     1       7.624  29.002  57.946  1.00  0.00     0.037 A 
HETATM   10  C   UNL     1       8.030  30.004  58.830  1.00  0.00     0.009 A 
HETATM   11  C   UNL     1       9.254  30.652  58.644  1.00  0.00    -0.062 A 
HETATM   12  C   UNL     1       9.725  31.700  59.609  1.00  0.00     0.048 C 
HETATM   13  C   UNL     1      10.066  30.274  57.570  1.00  0.00     0.009 A 
HETATM   14  C   UNL     1       9.658  29.268  56.686  1.00  0.00     0.037 A 
ENDBRANCH   7   8
ENDBRANCH   6   7
ENDBRANCH   1   6
BRANCH   2  15
HETATM   15  C   UNL     1       6.185  24.988  54.189  1.00  0.00     0.137 C 
BRANCH  15  16
HETATM   16  C   UNL     1       7.641  24.550  54.020  1.00  0.00     0.059 C 
BRANCH  16  17
HETATM   17  C   UNL     1       7.797  23.053  54.121  1.00  0.00    -0.057 A 
HETATM   18  C   UNL     1       7.986  22.274  52.973  1.00  0.00     0.007 A 
HETATM   19  C   UNL     1       8.122  20.888  53.078  1.00  0.00     0.001 A 
HETATM   20  C   UNL     1       8.067  20.271  54.326  1.00  0.00     0.000 A 
HETATM   21  C   UNL     1       7.873  21.039  55.473  1.00  0.00     0.001 A 
HETATM   22  C   UNL     1       7.735  22.423  55.371  1.00  0.00     0.007 A 
ENDBRANCH  16  17
ENDBRANCH  15  16
ENDBRANCH   2  15
BRANCH   3  23
HETATM   23  S   UNL     1       5.280  25.878  51.182  1.00  0.00    -0.081 SA
BRANCH  23  24
HETATM   24  C   UNL     1       5.071  27.160  49.910  1.00  0.00     0.185 C 
BRANCH  24  25
HETATM   25  C   UNL     1       4.551  26.557  48.614  1.00  0.00     0.226 C 
HETATM   26  N   UNL     1       3.535  25.637  48.777  1.00  0.00    -0.365 N 
HETATM   27  C   UNL     1       2.871  25.064  47.635  1.00  0.00     0.149 C 
HETATM   28  H   UNL     1       3.002  25.694  49.646  1.00  0.00     0.161 HD
HETATM   29  O   UNL     1       5.011  26.864  47.517  1.00  0.00    -0.273 OA
ENDBRANCH  24  25
ENDBRANCH  23  24
ENDBRANCH   3  23
TORSDOF 9
ENDMDL
MODEL 3
REMARK VINA RESULT:      -8.5      3.770      6.752
REMARK  9 active torsions:
REMARK  status: ('A' for Active; 'I' for Inactive)
REMARK    1  A    between atoms: C_5  and  O_6 
REMARK    2  A    between atoms: O_6  and  C_7 
REMARK    3  A    between atoms: C_7  and  C_8 
REMARK    4  A    between atoms: N_9  and  C_10 
REMARK    5  A    between atoms: C_10  and  C_11 
REMARK    6  A    between atoms: C_11  and  C_12 
REMARK    7  A    between atoms: C_18  and  S_19 
REMARK    8  A    between atoms: S_19  and  C_20 
REMARK    9  A    between atoms: C_20  and  C_21 
REMARK       I    between atoms: C_21  and  N_22 
ROOT
HETATM    1  C   UNL     1       5.670  26.725  52.034  1.00  0.00     0.155 A 
HETATM    2  N   UNL     1       6.193  26.155  53.179  1.00  0.00    -0.309 N 
HETATM    3  C   UNL     1       6.658  27.210  53.920  1.00  0.00     0.192 A 
HETATM    4  N   UNL     1       6.473  28.331  53.266  1.00  0.00    -0.123 NA
HETATM    5  N   UNL     1       5.845  28.033  52.092  1.00  0.00    -0.132 NA
ENDROOT
BRANCH   1   6
HETATM    6  C   UNL     1       5.064  26.005  50.880  1.00  0.00     0.256 C 
BRANCH   6   7
HETATM    7  O   UNL     1       5.147  26.853  49.739  1.00  0.00    -0.344 OA
BRANCH   7   8
HETATM    8  C   UNL     1       4.057  26.871  48.912  1.00  0.00     0.069 A 
HETATM    9  C   UNL     1       3.176  27.931  49.132  1.00  0.00     0.037 A 
HETATM   10  C   UNL     1       2.031  28.080  48.347  1.00  0.00     0.009 A 
HETATM   11  C   UNL     1       1.744  27.158  47.337  1.00  0.00    -0.062 A 
HETATM   12  C   UNL     1       0.542  27.328  46.456  1.00  0.00     0.048 C 
HETATM   13  C   UNL     1       2.626  26.093  47.121  1.00  0.00     0.009 A 
HETATM   14  C   UNL     1       3.774  25.946  47.908  1.00  0.00     0.037 A 
ENDBRANCH   7   8
ENDBRANCH   6   7
ENDBRANCH   1   6
BRANCH   2  15
HETATM   15  C   UNL     1       6.226  24.745  53.525  1.00  0.00     0.137 C 
BRANCH  15  16
HETATM   16  C   UNL     1       7.443  24.018  52.949  1.00  0.00     0.059 C 
BRANCH  16  17
HETATM   17  C   UNL     1       7.699  22.705  53.643  1.00  0.00    -0.057 A 
HETATM   18  C   UNL     1       7.558  22.589  55.032  1.00  0.00     0.007 A 
HETATM   19  C   UNL     1       7.806  21.370  55.666  1.00  0.00     0.001 A 
HETATM   20  C   UNL     1       8.198  20.259  54.920  1.00  0.00     0.000 A 
HETATM   21  C   UNL     1       8.346  20.367  53.539  1.00  0.00     0.001 A 
HETATM   22  C   UNL     1       8.101  21.584  52.903  1.00  0.00     0.007 A 
ENDBRANCH  16  17
ENDBRANCH  15  16
ENDBRANCH   2  15
BRANCH   3  23
HETATM   23  S   UNL     1       7.369  27.085  55.491  1.00  0.00    -0.081 SA
BRANCH  23  24
HETATM   24  C   UNL     1       7.566  28.840  55.923  1.00  0.00     0.185 C 
BRANCH  24  25
HETATM   25  C   UNL     1       9.024  29.262  55.827  1.00  0.00     0.226 C 
HETATM   26  N   UNL     1       9.640  29.477  57.043  1.00  0.00    -0.365 N 
HETATM   27  C   UNL     1      11.047  29.776  57.113  1.00  0.00     0.149 C 
HETATM   28  H   UNL     1       9.220  29.020  57.854  1.00  0.00     0.161 HD
HETATM   29  O   UNL     1       9.594  29.408  54.748  1.00  0.00    -0.273 OA
ENDBRANCH  24  25
ENDBRANCH  23  24
ENDBRANCH   3  23
TORSDOF 9
ENDMDL
MODEL 4
REMARK VINA RESULT:      -8.3      3.619      6.802
REMARK  9 active torsions:
REMARK  status: ('A' for Active; 'I' for Inactive)
REMARK    1  A    between atoms: C_5  and  O_6 
REMARK    2  A    between atoms: O_6  and  C_7 
REMARK    3  A    between atoms: C_7  and  C_8 
REMARK    4  A    between atoms: N_9  and  C_10 
REMARK    5  A    between atoms: C_10  and  C_11 
REMARK    6  A    between atoms: C_11  and  C_12 
REMARK    7  A    between atoms: C_18  and  S_19 
REMARK    8  A    between atoms: S_19  and  C_20 
REMARK    9  A    between atoms: C_20  and  C_21 
REMARK       I    between atoms: C_21  and  N_22 
ROOT
HETATM    1  C   UNL     1       5.312  26.674  52.323  1.00  0.00     0.155 A 
HETATM    2  N   UNL     1       5.588  25.916  53.445  1.00  0.00    -0.309 N 
HETATM    3  C   UNL     1       5.552  26.804  54.489  1.00  0.00     0.192 A 
HETATM    4  N   UNL     1       5.314  28.013  54.040  1.00  0.00    -0.123 NA
HETATM    5  N   UNL     1       5.153  27.933  52.687  1.00  0.00    -0.132 NA
ENDROOT
BRANCH   1   6
HETATM    6  C   UNL     1       5.263  26.190  50.914  1.00  0.00     0.256 C 
BRANCH   6   7
HETATM    7  O   UNL     1       5.160  27.326  50.062  1.00  0.00    -0.344 OA
BRANCH   7   8
HETATM    8  C   UNL     1       4.052  27.388  49.261  1.00  0.00     0.069 A 
HETATM    9  C   UNL     1       4.066  26.509  48.177  1.00  0.00     0.037 A 
HETATM   10  C   UNL     1       2.990  26.456  47.289  1.00  0.00     0.009 A 
HETATM   11  C   UNL     1       1.889  27.297  47.466  1.00  0.00    -0.062 A 
HETATM   12  C   UNL     1       0.705  27.221  46.547  1.00  0.00     0.048 C 
HETATM   13  C   UNL     1       1.878  28.181  48.550  1.00  0.00     0.009 A 
HETATM   14  C   UNL     1       2.957  28.232  49.440  1.00  0.00     0.037 A 
ENDBRANCH   7   8
ENDBRANCH   6   7
ENDBRANCH   1   6
BRANCH   2  15
HETATM   15  C   UNL     1       5.845  24.488  53.503  1.00  0.00     0.137 C 
BRANCH  15  16
HETATM   16  C   UNL     1       7.322  24.140  53.316  1.00  0.00     0.059 C 
BRANCH  16  17
HETATM   17  C   UNL     1       7.650  22.764  53.839  1.00  0.00    -0.057 A 
HETATM   18  C   UNL     1       7.553  22.475  55.206  1.00  0.00     0.007 A 
HETATM   19  C   UNL     1       7.867  21.199  55.680  1.00  0.00     0.001 A 
HETATM   20  C   UNL     1       8.281  20.205  54.795  1.00  0.00     0.000 A 
HETATM   21  C   UNL     1       8.385  20.486  53.434  1.00  0.00     0.001 A 
HETATM   22  C   UNL     1       8.075  21.760  52.959  1.00  0.00     0.007 A 
ENDBRANCH  16  17
ENDBRANCH  15  16
ENDBRANCH   2  15
BRANCH   3  23
HETATM   23  S   UNL     1       5.770  26.391  56.153  1.00  0.00    -0.081 SA
BRANCH  23  24
HETATM   24  C   UNL     1       7.433  27.058  56.461  1.00  0.00     0.185 C 
BRANCH  24  25
HETATM   25  C   UNL     1       7.369  28.283  57.358  1.00  0.00     0.226 C 
HETATM   26  N   UNL     1       6.510  29.271  56.920  1.00  0.00    -0.365 N 
HETATM   27  C   UNL     1       6.265  30.442  57.721  1.00  0.00     0.149 C 
HETATM   28  H   UNL     1       5.769  28.980  56.280  1.00  0.00     0.161 HD
HETATM   29  O   UNL     1       8.040  28.381  58.383  1.00  0.00    -0.273 OA
ENDBRANCH  24  25
ENDBRANCH  23  24
ENDBRANCH   3  23
TORSDOF 9
ENDMDL
MODEL 5
REMARK VINA RESULT:      -7.9      2.950      5.939
REMARK  9 active torsions:
REMARK  status: ('A' for Active; 'I' for Inactive)
REMARK    1  A    between atoms: C_5  and  O_6 
REMARK    2  A    between atoms: O_6  and  C_7 
REMARK    3  A    between atoms: C_7  and  C_8 
REMARK    4  A    between atoms: N_9  and  C_10 
REMARK    5  A    between atoms: C_10  and  C_11 
REMARK    6  A    between atoms: C_11  and  C_12 
REMARK    7  A    between atoms: C_18  and  S_19 
REMARK    8  A    between atoms: S_19  and  C_20 
REMARK    9  A    between atoms: C_20  and  C_21 
REMARK       I    between atoms: C_21  and  N_22 
ROOT
HETATM    1  C   UNL     1       6.221  27.282  53.543  1.00  0.00     0.155 A 
HETATM    2  N   UNL     1       7.035  26.651  54.464  1.00  0.00    -0.309 N 
HETATM    3  C   UNL     1       7.102  27.514  55.527  1.00  0.00     0.192 A 
HETATM    4  N   UNL     1       6.418  28.602  55.263  1.00  0.00    -0.123 NA
HETATM    5  N   UNL     1       5.858  28.454  54.028  1.00  0.00    -0.132 NA
ENDROOT
BRANCH   1   6
HETATM    6  C   UNL     1       5.852  26.775  52.191  1.00  0.00     0.256 C 
BRANCH   6   7
HETATM    7  O   UNL     1       5.536  27.897  51.373  1.00  0.00    -0.344 OA
BRANCH   7   8
HETATM    8  C   UNL     1       4.641  27.681  50.361  1.00  0.00     0.069 A 
HETATM    9  C   UNL     1       4.715  26.416  49.776  1.00  0.00     0.037 A 
HETATM   10  C   UNL     1       3.847  26.057  48.743  1.00  0.00     0.009 A 
HETATM   11  C   UNL     1       2.899  26.969  48.270  1.00  0.00    -0.062 A 
HETATM   12  C   UNL     1       1.930  26.583  47.192  1.00  0.00     0.048 C 
HETATM   13  C   UNL     1       2.829  28.238  48.855  1.00  0.00     0.009 A 
HETATM   14  C   UNL     1       3.699  28.596  49.890  1.00  0.00     0.037 A 
ENDBRANCH   7   8
ENDBRANCH   6   7
ENDBRANCH   1   6
BRANCH   2  15
HETATM   15  C   UNL     1       7.668  25.350  54.337  1.00  0.00     0.137 C 
BRANCH  15  16
HETATM   16  C   UNL     1       6.826  24.217  54.926  1.00  0.00     0.059 C 
BRANCH  16  17
HETATM   17  C   UNL     1       7.385  22.859  54.584  1.00  0.00    -0.057 A 
HETATM   18  C   UNL     1       7.676  22.517  53.257  1.00  0.00     0.007 A 
HETATM   19  C   UNL     1       8.186  21.254  52.951  1.00  0.00     0.001 A 
HETATM   20  C   UNL     1       8.408  20.323  53.965  1.00  0.00     0.000 A 
HETATM   21  C   UNL     1       8.116  20.654  55.287  1.00  0.00     0.001 A 
HETATM   22  C   UNL     1       7.604  21.914  55.595  1.00  0.00     0.007 A 
ENDBRANCH  16  17
ENDBRANCH  15  16
ENDBRANCH   2  15
BRANCH   3  23
HETATM   23  S   UNL     1       7.947  27.209  57.004  1.00  0.00    -0.081 SA
BRANCH  23  24
HETATM   24  C   UNL     1       9.146  28.575  57.006  1.00  0.00     0.185 C 
BRANCH  24  25
HETATM   25  C   UNL     1       8.759  29.636  58.023  1.00  0.00     0.226 C 
HETATM   26  N   UNL     1       9.782  30.494  58.376  1.00  0.00    -0.365 N 
HETATM   27  C   UNL     1       9.536  31.614  59.247  1.00  0.00     0.149 C 
HETATM   28  H   UNL     1      10.555  30.579  57.714  1.00  0.00     0.161 HD
HETATM   29  O   UNL     1       7.626  29.710  58.495  1.00  0.00    -0.273 OA
ENDBRANCH  24  25
ENDBRANCH  23  24
ENDBRANCH   3  23
TORSDOF 9
ENDMDL
MODEL 6
REMARK VINA RESULT:      -7.9      2.174      5.059
REMARK  9 active torsions:
REMARK  status: ('A' for Active; 'I' for Inactive)
REMARK    1  A    between atoms: C_5  and  O_6 
REMARK    2  A    between atoms: O_6  and  C_7 
REMARK    3  A    between atoms: C_7  and  C_8 
REMARK    4  A    between atoms: N_9  and  C_10 
REMARK    5  A    between atoms: C_10  and  C_11 
REMARK    6  A    between atoms: C_11  and  C_12 
REMARK    7  A    between atoms: C_18  and  S_19 
REMARK    8  A    between atoms: S_19  and  C_20 
REMARK    9  A    between atoms: C_20  and  C_21 
REMARK       I    between atoms: C_21  and  N_22 
ROOT
HETATM    1  C   UNL     1       6.243  27.555  54.874  1.00  0.00     0.155 A 
HETATM    2  N   UNL     1       6.487  28.800  55.423  1.00  0.00    -0.309 N 
HETATM    3  C   UNL     1       5.279  29.447  55.381  1.00  0.00     0.192 A 
HETATM    4  N   UNL     1       4.379  28.678  54.817  1.00  0.00    -0.123 NA
HETATM    5  N   UNL     1       4.976  27.490  54.509  1.00  0.00    -0.132 NA
ENDROOT
BRANCH   1   6
HETATM    6  C   UNL     1       7.241  26.470  54.657  1.00  0.00     0.256 C 
BRANCH   6   7
HETATM    7  O   UNL     1       6.672  25.250  55.123  1.00  0.00    -0.344 OA
BRANCH   7   8
HETATM    8  C   UNL     1       7.134  24.101  54.542  1.00  0.00     0.069 A 
HETATM    9  C   UNL     1       7.301  23.029  55.420  1.00  0.00     0.037 A 
HETATM   10  C   UNL     1       7.750  21.791  54.955  1.00  0.00     0.009 A 
HETATM   11  C   UNL     1       8.054  21.614  53.603  1.00  0.00    -0.062 A 
HETATM   12  C   UNL     1       8.495  20.278  53.080  1.00  0.00     0.048 C 
HETATM   13  C   UNL     1       7.890  22.691  52.725  1.00  0.00     0.009 A 
HETATM   14  C   UNL     1       7.439  23.930  53.191  1.00  0.00     0.037 A 
ENDBRANCH   7   8
ENDBRANCH   6   7
ENDBRANCH   1   6
BRANCH   2  15
HETATM   15  C   UNL     1       7.746  29.303  55.942  1.00  0.00     0.137 C 
BRANCH  15  16
HETATM   16  C   UNL     1       8.050  28.803  57.355  1.00  0.00     0.059 C 
BRANCH  16  17
HETATM   17  C   UNL     1       8.668  29.876  58.215  1.00  0.00    -0.057 A 
HETATM   18  C   UNL     1       8.193  30.117  59.511  1.00  0.00     0.007 A 
HETATM   19  C   UNL     1       8.768  31.119  60.296  1.00  0.00     0.001 A 
HETATM   20  C   UNL     1       9.816  31.888  59.794  1.00  0.00     0.000 A 
HETATM   21  C   UNL     1      10.290  31.658  58.504  1.00  0.00     0.001 A 
HETATM   22  C   UNL     1       9.717  30.660  57.717  1.00  0.00     0.007 A 
ENDBRANCH  16  17
ENDBRANCH  15  16
ENDBRANCH   2  15
BRANCH   3  23
HETATM   23  S   UNL     1       4.980  31.035  55.995  1.00  0.00    -0.081 SA
BRANCH  23  24
HETATM   24  C   UNL     1       4.763  30.687  57.766  1.00  0.00     0.185 C 
BRANCH  24  25
HETATM   25  C   UNL     1       5.323  31.819  58.614  1.00  0.00     0.226 C 
HETATM   26  N   UNL     1       4.911  31.805  59.932  1.00  0.00    -0.365 N 
HETATM   27  C   UNL     1       5.443  32.750  60.879  1.00  0.00     0.149 C 
HETATM   28  H   UNL     1       4.587  30.910  60.300  1.00  0.00     0.161 HD
HETATM   29  O   UNL     1       6.071  32.676  58.152  1.00  0.00    -0.273 OA
ENDBRANCH  24  25
ENDBRANCH  23  24
ENDBRANCH   3  23
TORSDOF 9
ENDMDL
MODEL 7
REMARK VINA RESULT:      -7.9      2.548      4.631
REMARK  9 active torsions:
REMARK  status: ('A' for Active; 'I' for Inactive)
REMARK    1  A    between atoms: C_5  and  O_6 
REMARK    2  A    between atoms: O_6  and  C_7 
REMARK    3  A    between atoms: C_7  and  C_8 
REMARK    4  A    between atoms: N_9  and  C_10 
REMARK    5  A    between atoms: C_10  and  C_11 
REMARK    6  A    between atoms: C_11  and  C_12 
REMARK    7  A    between atoms: C_18  and  S_19 
REMARK    8  A    between atoms: S_19  and  C_20 
REMARK    9  A    between atoms: C_20  and  C_21 
REMARK       I    between atoms: C_21  and  N_22 
ROOT
HETATM    1  C   UNL     1       5.923  30.076  57.104  1.00  0.00     0.155 A 
HETATM    2  N   UNL     1       7.232  29.893  57.508  1.00  0.00    -0.309 N 
HETATM    3  C   UNL     1       7.547  31.027  58.210  1.00  0.00     0.192 A 
HETATM    4  N   UNL     1       6.530  31.855  58.203  1.00  0.00    -0.123 NA
HETATM    5  N   UNL     1       5.509  31.258  57.522  1.00  0.00    -0.132 NA
ENDROOT
BRANCH   1   6
HETATM    6  C   UNL     1       5.110  29.141  56.277  1.00  0.00     0.256 C 
BRANCH   6   7
HETATM    7  O   UNL     1       5.469  29.334  54.913  1.00  0.00    -0.344 OA
BRANCH   7   8
HETATM    8  C   UNL     1       5.866  28.221  54.224  1.00  0.00     0.069 A 
HETATM    9  C   UNL     1       7.248  28.067  54.109  1.00  0.00     0.037 A 
HETATM   10  C   UNL     1       7.790  26.965  53.445  1.00  0.00     0.009 A 
HETATM   11  C   UNL     1       6.951  26.006  52.871  1.00  0.00    -0.062 A 
HETATM   12  C   UNL     1       7.517  24.793  52.193  1.00  0.00     0.048 C 
HETATM   13  C   UNL     1       5.565  26.163  52.983  1.00  0.00     0.009 A 
HETATM   14  C   UNL     1       5.024  27.268  53.650  1.00  0.00     0.037 A 
ENDBRANCH   7   8
ENDBRANCH   6   7
ENDBRANCH   1   6
BRANCH   2  15
HETATM   15  C   UNL     1       8.080  28.742  57.254  1.00  0.00     0.137 C 
BRANCH  15  16
HETATM   16  C   UNL     1       7.750  27.549  58.152  1.00  0.00     0.059 C 
BRANCH  16  17
HETATM   17  C   UNL     1       7.489  26.295  57.356  1.00  0.00    -0.057 A 
HETATM   18  C   UNL     1       8.550  25.515  56.880  1.00  0.00     0.007 A 
HETATM   19  C   UNL     1       8.296  24.360  56.137  1.00  0.00     0.001 A 
HETATM   20  C   UNL     1       6.984  23.978  55.862  1.00  0.00     0.000 A 
HETATM   21  C   UNL     1       5.923  24.751  56.328  1.00  0.00     0.001 A 
HETATM   22  C   UNL     1       6.173  25.906  57.068  1.00  0.00     0.007 A 
ENDBRANCH  16  17
ENDBRANCH  15  16
ENDBRANCH   2  15
BRANCH   3  23
HETATM   23  S   UNL     1       9.056  31.320  59.002  1.00  0.00    -0.081 SA
BRANCH  23  24
HETATM   24  C   UNL     1       8.804  30.430  60.567  1.00  0.00     0.185 C 
BRANCH  24  25
HETATM   25  C   UNL     1       8.192  31.344  61.618  1.00  0.00     0.226 C 
HETATM   26  N   UNL     1       6.837  31.166  61.813  1.00  0.00    -0.365 N 
HETATM   27  C   UNL     1       6.143  31.883  62.850  1.00  0.00     0.149 C 
HETATM   28  H   UNL     1       6.450  30.264  61.531  1.00  0.00     0.161 HD
HETATM   29  O   UNL     1       8.857  32.177  62.230  1.00  0.00    -0.273 OA
ENDBRANCH  24  25
ENDBRANCH  23  24
ENDBRANCH   3  23
TORSDOF 9
ENDMDL
MODEL 8
REMARK VINA RESULT:      -7.8      2.972      7.708
REMARK  9 active torsions:
REMARK  status: ('A' for Active; 'I' for Inactive)
REMARK    1  A    between atoms: C_5  and  O_6 
REMARK    2  A    between atoms: O_6  and  C_7 
REMARK    3  A    between atoms: C_7  and  C_8 
REMARK    4  A    between atoms: N_9  and  C_10 
REMARK    5  A    between atoms: C_10  and  C_11 
REMARK    6  A    between atoms: C_11  and  C_12 
REMARK    7  A    between atoms: C_18  and  S_19 
REMARK    8  A    between atoms: S_19  and  C_20 
REMARK    9  A    between atoms: C_20  and  C_21 
REMARK       I    between atoms: C_21  and  N_22 
ROOT
HETATM    1  C   UNL     1       6.665  28.834  57.069  1.00  0.00     0.155 A 
HETATM    2  N   UNL     1       6.593  27.909  56.045  1.00  0.00    -0.309 N 
HETATM    3  C   UNL     1       5.441  28.219  55.369  1.00  0.00     0.192 A 
HETATM    4  N   UNL     1       4.836  29.225  55.955  1.00  0.00    -0.123 NA
HETATM    5  N   UNL     1       5.605  29.618  57.011  1.00  0.00    -0.132 NA
ENDROOT
BRANCH   1   6
HETATM    6  C   UNL     1       7.719  28.915  58.119  1.00  0.00     0.256 C 
BRANCH   6   7
HETATM    7  O   UNL     1       8.150  30.269  58.206  1.00  0.00    -0.344 OA
BRANCH   7   8
HETATM    8  C   UNL     1       8.035  30.868  59.431  1.00  0.00     0.069 A 
HETATM    9  C   UNL     1       9.015  30.500  60.355  1.00  0.00     0.037 A 
HETATM   10  C   UNL     1       9.026  31.050  61.638  1.00  0.00     0.009 A 
HETATM   11  C   UNL     1       8.045  31.968  62.020  1.00  0.00    -0.062 A 
HETATM   12  C   UNL     1       8.069  32.602  63.380  1.00  0.00     0.048 C 
HETATM   13  C   UNL     1       7.061  32.333  61.094  1.00  0.00     0.009 A 
HETATM   14  C   UNL     1       7.051  31.782  59.808  1.00  0.00     0.037 A 
ENDBRANCH   7   8
ENDBRANCH   6   7
ENDBRANCH   1   6
BRANCH   2  15
HETATM   15  C   UNL     1       7.540  26.851  55.744  1.00  0.00     0.137 C 
BRANCH  15  16
HETATM   16  C   UNL     1       7.011  25.459  56.093  1.00  0.00     0.059 C 
BRANCH  16  17
HETATM   17  C   UNL     1       7.358  24.440  55.038  1.00  0.00    -0.057 A 
HETATM   18  C   UNL     1       7.642  24.836  53.725  1.00  0.00     0.007 A 
HETATM   19  C   UNL     1       7.956  23.883  52.754  1.00  0.00     0.001 A 
HETATM   20  C   UNL     1       7.985  22.529  53.085  1.00  0.00     0.000 A 
HETATM   21  C   UNL     1       7.699  22.126  54.387  1.00  0.00     0.001 A 
HETATM   22  C   UNL     1       7.383  23.076  55.359  1.00  0.00     0.007 A 
ENDBRANCH  16  17
ENDBRANCH  15  16
ENDBRANCH   2  15
BRANCH   3  23
HETATM   23  S   UNL     1       4.875  27.416  53.947  1.00  0.00    -0.081 SA
BRANCH  23  24
HETATM   24  C   UNL     1       6.080  27.999  52.717  1.00  0.00     0.185 C 
BRANCH  24  25
HETATM   25  C   UNL     1       5.377  28.630  51.526  1.00  0.00     0.226 C 
HETATM   26  N   UNL     1       4.248  27.957  51.103  1.00  0.00    -0.365 N 
HETATM   27  C   UNL     1       3.419  28.495  50.056  1.00  0.00     0.149 C 
HETATM   28  H   UNL     1       3.797  27.348  51.788  1.00  0.00     0.161 HD
HETATM   29  O   UNL     1       5.794  29.651  50.983  1.00  0.00    -0.273 OA
ENDBRANCH  24  25
ENDBRANCH  23  24
ENDBRANCH   3  23
TORSDOF 9
ENDMDL
MODEL 9
REMARK VINA RESULT:      -7.8      2.869      5.212
REMARK  9 active torsions:
REMARK  status: ('A' for Active; 'I' for Inactive)
REMARK    1  A    between atoms: C_5  and  O_6 
REMARK    2  A    between atoms: O_6  and  C_7 
REMARK    3  A    between atoms: C_7  and  C_8 
REMARK    4  A    between atoms: N_9  and  C_10 
REMARK    5  A    between atoms: C_10  and  C_11 
REMARK    6  A    between atoms: C_11  and  C_12 
REMARK    7  A    between atoms: C_18  and  S_19 
REMARK    8  A    between atoms: S_19  and  C_20 
REMARK    9  A    between atoms: C_20  and  C_21 
REMARK       I    between atoms: C_21  and  N_22 
ROOT
HETATM    1  C   UNL     1       5.379  27.108  55.146  1.00  0.00     0.155 A 
HETATM    2  N   UNL     1       5.658  28.133  56.030  1.00  0.00    -0.309 N 
HETATM    3  C   UNL     1       5.168  29.263  55.427  1.00  0.00     0.192 A 
HETATM    4  N   UNL     1       4.667  28.962  54.253  1.00  0.00    -0.123 NA
HETATM    5  N   UNL     1       4.787  27.614  54.080  1.00  0.00    -0.132 NA
ENDROOT
BRANCH   1   6
HETATM    6  C   UNL     1       5.734  25.670  55.313  1.00  0.00     0.256 C 
BRANCH   6   7
HETATM    7  O   UNL     1       6.716  25.344  54.334  1.00  0.00    -0.344 OA
BRANCH   7   8
HETATM    8  C   UNL     1       7.164  24.051  54.328  1.00  0.00     0.069 A 
HETATM    9  C   UNL     1       7.493  23.554  53.066  1.00  0.00     0.037 A 
HETATM   10  C   UNL     1       7.981  22.254  52.918  1.00  0.00     0.009 A 
HETATM   11  C   UNL     1       8.130  21.426  54.033  1.00  0.00    -0.062 A 
HETATM   12  C   UNL     1       8.694  20.043  53.897  1.00  0.00     0.048 C 
HETATM   13  C   UNL     1       7.795  21.924  55.297  1.00  0.00     0.009 A 
HETATM   14  C   UNL     1       7.308  23.228  55.444  1.00  0.00     0.037 A 
ENDBRANCH   7   8
ENDBRANCH   6   7
ENDBRANCH   1   6
BRANCH   2  15
HETATM   15  C   UNL     1       6.313  28.029  57.321  1.00  0.00     0.137 C 
BRANCH  15  16
HETATM   16  C   UNL     1       7.810  27.734  57.209  1.00  0.00     0.059 C 
BRANCH  16  17
HETATM   17  C   UNL     1       8.652  28.937  57.552  1.00  0.00    -0.057 A 
HETATM   18  C   UNL     1       8.209  29.877  58.491  1.00  0.00     0.007 A 
HETATM   19  C   UNL     1       8.994  30.991  58.796  1.00  0.00     0.001 A 
HETATM   20  C   UNL     1      10.223  31.176  58.165  1.00  0.00     0.000 A 
HETATM   21  C   UNL     1      10.668  30.249  57.225  1.00  0.00     0.001 A 
HETATM   22  C   UNL     1       9.885  29.136  56.917  1.00  0.00     0.007 A 
ENDBRANCH  16  17
ENDBRANCH  15  16
ENDBRANCH   2  15
BRANCH   3  23
HETATM   23  S   UNL     1       5.192  30.848  56.117  1.00  0.00    -0.081 SA
BRANCH  23  24
HETATM   24  C   UNL     1       3.452  31.040  56.606  1.00  0.00     0.185 C 
BRANCH  24  25
HETATM   25  C   UNL     1       2.650  31.713  55.503  1.00  0.00     0.226 C 
HETATM   26  N   UNL     1       3.334  31.877  54.315  1.00  0.00    -0.365 N 
HETATM   27  C   UNL     1       2.670  32.401  53.150  1.00  0.00     0.149 C 
HETATM   28  H   UNL     1       4.132  31.259  54.159  1.00  0.00     0.161 HD
HETATM   29  O   UNL     1       1.491  32.086  55.670  1.00  0.00    -0.273 OA
ENDBRANCH  24  25
ENDBRANCH  23  24
ENDBRANCH   3  23
TORSDOF 9
ENDMDL
MODEL 10
REMARK VINA RESULT:      -7.4      3.874      6.691
REMARK  9 active torsions:
REMARK  status: ('A' for Active; 'I' for Inactive)
REMARK    1  A    between atoms: C_5  and  O_6 
REMARK    2  A    between atoms: O_6  and  C_7 
REMARK    3  A    between atoms: C_7  and  C_8 
REMARK    4  A    between atoms: N_9  and  C_10 
REMARK    5  A    between atoms: C_10  and  C_11 
REMARK    6  A    between atoms: C_11  and  C_12 
REMARK    7  A    between atoms: C_18  and  S_19 
REMARK    8  A    between atoms: S_19  and  C_20 
REMARK    9  A    between atoms: C_20  and  C_21 
REMARK       I    between atoms: C_21  and  N_22 
ROOT
HETATM    1  C   UNL     1       4.818  27.238  52.734  1.00  0.00     0.155 A 
HETATM    2  N   UNL     1       5.485  27.092  53.935  1.00  0.00    -0.309 N 
HETATM    3  C   UNL     1       4.860  27.959  54.794  1.00  0.00     0.192 A 
HETATM    4  N   UNL     1       3.915  28.611  54.162  1.00  0.00    -0.123 NA
HETATM    5  N   UNL     1       3.878  28.154  52.877  1.00  0.00    -0.132 NA
ENDROOT
BRANCH   1   6
HETATM    6  C   UNL     1       5.128  26.539  51.455  1.00  0.00     0.256 C 
BRANCH   6   7
HETATM    7  O   UNL     1       5.054  27.495  50.402  1.00  0.00    -0.344 OA
BRANCH   7   8
HETATM    8  C   UNL     1       4.061  27.310  49.480  1.00  0.00     0.069 A 
HETATM    9  C   UNL     1       3.154  28.366  49.380  1.00  0.00     0.037 A 
HETATM   10  C   UNL     1       2.101  28.316  48.465  1.00  0.00     0.009 A 
HETATM   11  C   UNL     1       1.932  27.197  47.646  1.00  0.00    -0.062 A 
HETATM   12  C   UNL     1       0.831  27.146  46.627  1.00  0.00     0.048 C 
HETATM   13  C   UNL     1       2.839  26.137  47.750  1.00  0.00     0.009 A 
HETATM   14  C   UNL     1       3.895  26.189  48.667  1.00  0.00     0.037 A 
ENDBRANCH   7   8
ENDBRANCH   6   7
ENDBRANCH   1   6
BRANCH   2  15
HETATM   15  C   UNL     1       6.596  26.203  54.224  1.00  0.00     0.137 C 
BRANCH  15  16
HETATM   16  C   UNL     1       6.148  24.848  54.772  1.00  0.00     0.059 C 
BRANCH  16  17
HETATM   17  C   UNL     1       7.139  23.755  54.461  1.00  0.00    -0.057 A 
HETATM   18  C   UNL     1       8.004  23.269  55.450  1.00  0.00     0.007 A 
HETATM   19  C   UNL     1       8.924  22.262  55.148  1.00  0.00     0.001 A 
HETATM   20  C   UNL     1       8.988  21.735  53.859  1.00  0.00     0.000 A 
HETATM   21  C   UNL     1       8.135  22.217  52.869  1.00  0.00     0.001 A 
HETATM   22  C   UNL     1       7.218  23.224  53.166  1.00  0.00     0.007 A 
ENDBRANCH  16  17
ENDBRANCH  15  16
ENDBRANCH   2  15
BRANCH   3  23
HETATM   23  S   UNL     1       5.249  28.153  56.468  1.00  0.00    -0.081 SA
BRANCH  23  24
HETATM   24  C   UNL     1       5.272  29.965  56.611  1.00  0.00     0.185 C 
BRANCH  24  25
HETATM   25  C   UNL     1       4.096  30.459  57.438  1.00  0.00     0.226 C 
HETATM   26  N   UNL     1       4.441  30.998  58.661  1.00  0.00    -0.365 N 
HETATM   27  C   UNL     1       3.446  31.604  59.506  1.00  0.00     0.149 C 
HETATM   28  H   UNL     1       5.401  31.334  58.757  1.00  0.00     0.161 HD
HETATM   29  O   UNL     1       2.935  30.371  57.045  1.00  0.00    -0.273 OA
ENDBRANCH  24  25
ENDBRANCH  23  24
ENDBRANCH   3  23
TORSDOF 9
ENDMDL
