MODEL 1
REMARK VINA RESULT:     -10.7      0.000      0.000
REMARK  7 active torsions:
REMARK  status: ('A' for Active; 'I' for Inactive)
REMARK    1  A    between atoms: C_2  and  C_3 
REMARK    2  A    between atoms: C_3  and  N_4 
REMARK    3  A    between atoms: C_8  and  C_27 
REMARK    4  A    between atoms: C_8  and  C_9 
REMARK    5  A    between atoms: N_12  and  C_14 
REMARK    6  A    between atoms: C_14  and  C_15 
REMARK    7  A    between atoms: C_27  and  C_28 
ROOT
HETATM    1  N   UNL     1       5.760  26.459  53.283  1.00  0.00    -0.268 N 
HETATM    2  C   UNL     1       5.138  25.255  53.365  1.00  0.00     0.326 C 
HETATM    3  O   UNL     1       4.270  24.799  52.643  1.00  0.00    -0.247 OA
HETATM    4  N   UNL     1       5.663  24.556  54.434  1.00  0.00    -0.324 N 
HETATM    5  C   UNL     1       6.814  25.220  55.016  1.00  0.00     0.123 C 
HETATM    6  C   UNL     1       6.736  26.553  54.231  1.00  0.00     0.257 C 
HETATM    7  O   UNL     1       7.489  27.499  54.423  1.00  0.00    -0.270 OA
HETATM    8  H   UNL     1       5.401  23.582  54.518  1.00  0.00     0.165 HD
ENDROOT
BRANCH   5   9
HETATM    9  C   UNL     1       8.147  24.531  54.633  1.00  0.00     0.080 C 
BRANCH   9  10
HETATM   10  C   UNL     1       8.166  23.018  54.612  1.00  0.00    -0.052 A 
HETATM   11  C   UNL     1       8.278  22.316  53.406  1.00  0.00     0.049 A 
HETATM   12  C   UNL     1       8.291  20.923  53.411  1.00  0.00     0.116 A 
HETATM   13  F   UNL     1       8.392  20.268  52.248  1.00  0.00    -0.206 F 
HETATM   14  C   UNL     1       8.195  20.208  54.596  1.00  0.00     0.042 A 
HETATM   15  C   UNL     1       8.082  20.895  55.803  1.00  0.00     0.003 A 
HETATM   16  C   UNL     1       8.066  22.292  55.811  1.00  0.00     0.007 A 
ENDBRANCH   9  10
ENDBRANCH   5   9
BRANCH   5  17
HETATM   17  C   UNL     1       6.584  25.510  56.542  1.00  0.00     0.027 C 
HETATM   18  C   UNL     1       5.561  26.613  56.872  1.00  0.00     0.035 C 
HETATM   19  C   UNL     1       6.089  28.042  56.811  1.00  0.00     0.235 C 
HETATM   20  N   UNL     1       7.357  28.194  57.608  1.00  0.00    -0.067 N 
HETATM   21  H   UNL     1       7.092  28.083  58.597  1.00  0.00     0.280 HD
HETATM   22  C   UNL     1       8.413  27.165  57.290  1.00  0.00     0.235 C 
HETATM   23  C   UNL     1       7.850  25.758  57.385  1.00  0.00     0.035 C 
BRANCH  20  24
HETATM   24  C   UNL     1       7.964  29.592  57.500  1.00  0.00     0.273 C 
BRANCH  24  25
HETATM   25  C   UNL     1       7.592  30.536  58.611  1.00  0.00    -0.030 A 
HETATM   26  C   UNL     1       8.209  30.451  59.867  1.00  0.00     0.048 A 
HETATM   27  C   UNL     1       7.829  31.317  60.894  1.00  0.00     0.102 A 
HETATM   28  C   UNL     1       6.808  32.248  60.692  1.00  0.00     0.102 A 
HETATM   29  O   UNL     1       8.500  31.190  62.082  1.00  0.00    -0.346 OA
HETATM   30  O   UNL     1       6.360  33.100  61.664  1.00  0.00    -0.346 OA
HETATM   31  C   UNL     1       6.199  32.350  59.445  1.00  0.00     0.040 A 
HETATM   32  C   UNL     1       6.825  32.715  62.964  1.00  0.00     0.202 C 
HETATM   33  C   UNL     1       8.297  32.339  62.919  1.00  0.00     0.202 C 
HETATM   34  C   UNL     1       6.589  31.502  58.408  1.00  0.00     0.012 A 
ENDBRANCH  24  25
ENDBRANCH  20  24
ENDBRANCH   5  17
BRANCH   1  35
HETATM   35  C   UNL     1       5.515  27.438  52.240  1.00  0.00     0.140 C 
BRANCH  35  36
HETATM   36  C   UNL     1       4.212  28.227  52.442  1.00  0.00    -0.004 C 
HETATM   37  C   UNL     1       3.836  28.938  51.140  1.00  0.00     0.011 C 
HETATM   38  C   UNL     1       4.333  29.245  53.576  1.00  0.00     0.011 C 
ENDBRANCH  35  36
ENDBRANCH   1  35
TORSDOF 7
ENDMDL
MODEL 2
REMARK VINA RESULT:     -10.7      3.198      8.566
REMARK  7 active torsions:
REMARK  status: ('A' for Active; 'I' for Inactive)
REMARK    1  A    between atoms: C_2  and  C_3 
REMARK    2  A    between atoms: C_3  and  N_4 
REMARK    3  A    between atoms: C_8  and  C_27 
REMARK    4  A    between atoms: C_8  and  C_9 
REMARK    5  A    between atoms: N_12  and  C_14 
REMARK    6  A    between atoms: C_14  and  C_15 
REMARK    7  A    between atoms: C_27  and  C_28 
ROOT
HETATM    1  N   UNL     1       6.713  27.206  55.966  1.00  0.00    -0.268 N 
HETATM    2  C   UNL     1       7.535  27.570  54.948  1.00  0.00     0.326 C 
HETATM    3  O   UNL     1       8.012  28.665  54.715  1.00  0.00    -0.247 OA
HETATM    4  N   UNL     1       7.793  26.460  54.168  1.00  0.00    -0.324 N 
HETATM    5  C   UNL     1       7.278  25.239  54.756  1.00  0.00     0.123 C 
HETATM    6  C   UNL     1       6.472  25.863  55.922  1.00  0.00     0.257 C 
HETATM    7  O   UNL     1       5.781  25.213  56.697  1.00  0.00    -0.270 OA
HETATM    8  H   UNL     1       8.515  26.553  53.464  1.00  0.00     0.165 HD
ENDROOT
BRANCH   5   9
HETATM    9  C   UNL     1       8.395  24.366  55.378  1.00  0.00     0.080 C 
BRANCH   9  10
HETATM   10  C   UNL     1       8.316  22.872  55.151  1.00  0.00    -0.052 A 
HETATM   11  C   UNL     1       8.814  22.296  53.976  1.00  0.00     0.049 A 
HETATM   12  C   UNL     1       8.730  20.918  53.788  1.00  0.00     0.116 A 
HETATM   13  F   UNL     1       9.205  20.384  52.656  1.00  0.00    -0.206 F 
HETATM   14  C   UNL     1       8.156  20.095  54.747  1.00  0.00     0.042 A 
HETATM   15  C   UNL     1       7.656  20.657  55.920  1.00  0.00     0.003 A 
HETATM   16  C   UNL     1       7.734  22.038  56.120  1.00  0.00     0.007 A 
ENDBRANCH   9  10
ENDBRANCH   5   9
BRANCH   5  17
HETATM   17  C   UNL     1       6.284  24.518  53.775  1.00  0.00     0.027 C 
HETATM   18  C   UNL     1       6.767  24.361  52.322  1.00  0.00     0.035 C 
HETATM   19  C   UNL     1       6.569  25.578  51.425  1.00  0.00     0.235 C 
HETATM   20  N   UNL     1       5.153  26.088  51.496  1.00  0.00    -0.067 N 
HETATM   21  H   UNL     1       4.565  25.369  51.052  1.00  0.00     0.280 HD
HETATM   22  C   UNL     1       4.646  26.304  52.899  1.00  0.00     0.235 C 
HETATM   23  C   UNL     1       4.842  25.062  53.749  1.00  0.00     0.035 C 
BRANCH  20  24
HETATM   24  C   UNL     1       4.938  27.360  50.677  1.00  0.00     0.273 C 
BRANCH  24  25
HETATM   25  C   UNL     1       3.962  27.228  49.539  1.00  0.00    -0.030 A 
HETATM   26  C   UNL     1       3.038  28.244  49.260  1.00  0.00     0.048 A 
HETATM   27  C   UNL     1       2.122  28.090  48.218  1.00  0.00     0.102 A 
HETATM   28  C   UNL     1       2.092  26.910  47.472  1.00  0.00     0.102 A 
HETATM   29  O   UNL     1       1.272  29.141  47.990  1.00  0.00    -0.346 OA
HETATM   30  O   UNL     1       1.196  26.678  46.463  1.00  0.00    -0.346 OA
HETATM   31  C   UNL     1       3.014  25.902  47.732  1.00  0.00     0.040 A 
HETATM   32  C   UNL     1       0.120  27.624  46.479  1.00  0.00     0.202 C 
HETATM   33  C   UNL     1       0.646  29.033  46.702  1.00  0.00     0.202 C 
HETATM   34  C   UNL     1       3.947  26.058  48.758  1.00  0.00     0.012 A 
ENDBRANCH  24  25
ENDBRANCH  20  24
ENDBRANCH   5  17
BRANCH   1  35
HETATM   35  C   UNL     1       6.279  28.095  57.027  1.00  0.00     0.140 C 
BRANCH  35  36
HETATM   36  C   UNL     1       5.290  29.171  56.552  1.00  0.00    -0.004 C 
HETATM   37  C   UNL     1       4.867  30.040  57.738  1.00  0.00     0.011 C 
HETATM   38  C   UNL     1       4.057  28.557  55.888  1.00  0.00     0.011 C 
ENDBRANCH  35  36
ENDBRANCH   1  35
TORSDOF 7
ENDMDL
MODEL 3
REMARK VINA RESULT:     -10.1      3.686      9.863
REMARK  7 active torsions:
REMARK  status: ('A' for Active; 'I' for Inactive)
REMARK    1  A    between atoms: C_2  and  C_3 
REMARK    2  A    between atoms: C_3  and  N_4 
REMARK    3  A    between atoms: C_8  and  C_27 
REMARK    4  A    between atoms: C_8  and  C_9 
REMARK    5  A    between atoms: N_12  and  C_14 
REMARK    6  A    between atoms: C_14  and  C_15 
REMARK    7  A    between atoms: C_27  and  C_28 
ROOT
HETATM    1  N   UNL     1       7.755  24.185  54.750  1.00  0.00    -0.268 N 
HETATM    2  C   UNL     1       7.427  24.527  56.023  1.00  0.00     0.326 C 
HETATM    3  O   UNL     1       7.725  23.963  57.059  1.00  0.00    -0.247 OA
HETATM    4  N   UNL     1       6.679  25.687  55.991  1.00  0.00    -0.324 N 
HETATM    5  C   UNL     1       6.626  26.275  54.667  1.00  0.00     0.123 C 
HETATM    6  C   UNL     1       7.299  25.127  53.875  1.00  0.00     0.257 C 
HETATM    7  O   UNL     1       7.433  25.129  52.657  1.00  0.00    -0.270 OA
HETATM    8  H   UNL     1       6.499  26.140  56.879  1.00  0.00     0.165 HD
ENDROOT
BRANCH   5   9
HETATM    9  C   UNL     1       7.533  27.523  54.539  1.00  0.00     0.080 C 
BRANCH   9  10
HETATM   10  C   UNL     1       7.621  28.443  55.738  1.00  0.00    -0.052 A 
HETATM   11  C   UNL     1       8.846  28.684  56.372  1.00  0.00     0.049 A 
HETATM   12  C   UNL     1       8.903  29.533  57.475  1.00  0.00     0.116 A 
HETATM   13  F   UNL     1      10.081  29.748  58.073  1.00  0.00    -0.206 F 
HETATM   14  C   UNL     1       7.761  30.151  57.965  1.00  0.00     0.042 A 
HETATM   15  C   UNL     1       6.536  29.918  57.344  1.00  0.00     0.003 A 
HETATM   16  C   UNL     1       6.466  29.068  56.238  1.00  0.00     0.007 A 
ENDBRANCH   9  10
ENDBRANCH   5   9
BRANCH   5  17
HETATM   17  C   UNL     1       5.140  26.431  54.180  1.00  0.00     0.027 C 
HETATM   18  C   UNL     1       4.545  25.223  53.434  1.00  0.00     0.035 C 
HETATM   19  C   UNL     1       4.887  25.129  51.951  1.00  0.00     0.235 C 
HETATM   20  N   UNL     1       4.603  26.425  51.239  1.00  0.00    -0.067 N 
HETATM   21  H   UNL     1       3.580  26.537  51.239  1.00  0.00     0.280 HD
HETATM   22  C   UNL     1       5.205  27.638  51.904  1.00  0.00     0.235 C 
HETATM   23  C   UNL     1       4.821  27.704  53.371  1.00  0.00     0.035 C 
BRANCH  20  24
HETATM   24  C   UNL     1       5.015  26.397  49.767  1.00  0.00     0.273 C 
BRANCH  24  25
HETATM   25  C   UNL     1       3.890  26.588  48.787  1.00  0.00    -0.030 A 
HETATM   26  C   UNL     1       3.050  27.708  48.862  1.00  0.00     0.048 A 
HETATM   27  C   UNL     1       1.993  27.853  47.961  1.00  0.00     0.102 A 
HETATM   28  C   UNL     1       1.740  26.867  47.005  1.00  0.00     0.102 A 
HETATM   29  O   UNL     1       1.237  28.989  48.081  1.00  0.00    -0.346 OA
HETATM   30  O   UNL     1       0.700  26.925  46.117  1.00  0.00    -0.346 OA
HETATM   31  C   UNL     1       2.576  25.758  46.913  1.00  0.00     0.040 A 
HETATM   32  C   UNL     1      -0.258  27.925  46.486  1.00  0.00     0.202 C 
HETATM   33  C   UNL     1       0.439  29.209  46.908  1.00  0.00     0.202 C 
HETATM   34  C   UNL     1       3.647  25.618  47.797  1.00  0.00     0.012 A 
ENDBRANCH  24  25
ENDBRANCH  20  24
ENDBRANCH   5  17
BRANCH   1  35
HETATM   35  C   UNL     1       8.594  23.056  54.395  1.00  0.00     0.140 C 
BRANCH  35  36
HETATM   36  C   UNL     1       7.810  21.747  54.217  1.00  0.00    -0.004 C 
HETATM   37  C   UNL     1       7.977  20.875  55.463  1.00  0.00     0.011 C 
HETATM   38  C   UNL     1       8.263  20.977  52.976  1.00  0.00     0.011 C 
ENDBRANCH  35  36
ENDBRANCH   1  35
TORSDOF 7
ENDMDL
MODEL 4
REMARK VINA RESULT:     -10.1      1.663      2.483
REMARK  7 active torsions:
REMARK  status: ('A' for Active; 'I' for Inactive)
REMARK    1  A    between atoms: C_2  and  C_3 
REMARK    2  A    between atoms: C_3  and  N_4 
REMARK    3  A    between atoms: C_8  and  C_27 
REMARK    4  A    between atoms: C_8  and  C_9 
REMARK    5  A    between atoms: N_12  and  C_14 
REMARK    6  A    between atoms: C_14  and  C_15 
REMARK    7  A    between atoms: C_27  and  C_28 
ROOT
HETATM    1  N   UNL     1       5.524  28.106  53.255  1.00  0.00    -0.268 N 
HETATM    2  C   UNL     1       4.720  28.263  54.338  1.00  0.00     0.326 C 
HETATM    3  O   UNL     1       3.732  28.966  54.453  1.00  0.00    -0.247 OA
HETATM    4  N   UNL     1       5.186  27.456  55.357  1.00  0.00    -0.324 N 
HETATM    5  C   UNL     1       6.247  26.570  54.919  1.00  0.00     0.123 C 
HETATM    6  C   UNL     1       6.475  27.160  53.505  1.00  0.00     0.257 C 
HETATM    7  O   UNL     1       7.348  26.772  52.739  1.00  0.00    -0.270 OA
HETATM    8  H   UNL     1       4.591  27.357  56.171  1.00  0.00     0.165 HD
ENDROOT
BRANCH   5   9
HETATM    9  C   UNL     1       5.762  25.111  54.742  1.00  0.00     0.080 C 
BRANCH   9  10
HETATM   10  C   UNL     1       6.819  24.029  54.696  1.00  0.00    -0.052 A 
HETATM   11  C   UNL     1       7.274  23.417  55.871  1.00  0.00     0.049 A 
HETATM   12  C   UNL     1       8.249  22.424  55.804  1.00  0.00     0.116 A 
HETATM   13  F   UNL     1       8.678  21.855  56.937  1.00  0.00    -0.206 F 
HETATM   14  C   UNL     1       8.786  22.024  54.589  1.00  0.00     0.042 A 
HETATM   15  C   UNL     1       8.341  22.625  53.413  1.00  0.00     0.003 A 
HETATM   16  C   UNL     1       7.365  23.623  53.466  1.00  0.00     0.007 A 
ENDBRANCH   9  10
ENDBRANCH   5   9
BRANCH   5  17
HETATM   17  C   UNL     1       7.546  26.782  55.778  1.00  0.00     0.027 C 
HETATM   18  C   UNL     1       7.342  26.853  57.302  1.00  0.00     0.035 C 
HETATM   19  C   UNL     1       6.913  28.211  57.848  1.00  0.00     0.235 C 
HETATM   20  N   UNL     1       7.811  29.312  57.348  1.00  0.00    -0.067 N 
HETATM   21  H   UNL     1       8.729  29.159  57.789  1.00  0.00     0.280 HD
HETATM   22  C   UNL     1       8.007  29.316  55.853  1.00  0.00     0.235 C 
HETATM   23  C   UNL     1       8.455  27.953  55.356  1.00  0.00     0.035 C 
BRANCH  20  24
HETATM   24  C   UNL     1       7.361  30.699  57.804  1.00  0.00     0.273 C 
BRANCH  24  25
HETATM   25  C   UNL     1       7.577  30.991  59.264  1.00  0.00    -0.030 A 
HETATM   26  C   UNL     1       6.682  31.802  59.977  1.00  0.00     0.048 A 
HETATM   27  C   UNL     1       6.915  32.085  61.324  1.00  0.00     0.102 A 
HETATM   28  C   UNL     1       8.058  31.596  61.962  1.00  0.00     0.102 A 
HETATM   29  O   UNL     1       5.980  32.860  61.958  1.00  0.00    -0.346 OA
HETATM   30  O   UNL     1       8.367  31.865  63.267  1.00  0.00    -0.346 OA
HETATM   31  C   UNL     1       8.943  30.778  61.267  1.00  0.00     0.040 A 
HETATM   32  C   UNL     1       7.576  32.939  63.791  1.00  0.00     0.202 C 
HETATM   33  C   UNL     1       6.119  32.780  63.385  1.00  0.00     0.202 C 
HETATM   34  C   UNL     1       8.705  30.474  59.926  1.00  0.00     0.012 A 
ENDBRANCH  24  25
ENDBRANCH  20  24
ENDBRANCH   5  17
BRANCH   1  35
HETATM   35  C   UNL     1       5.304  28.746  51.972  1.00  0.00     0.140 C 
BRANCH  35  36
HETATM   36  C   UNL     1       4.276  28.014  51.095  1.00  0.00    -0.004 C 
HETATM   37  C   UNL     1       4.993  27.311  49.941  1.00  0.00     0.011 C 
HETATM   38  C   UNL     1       3.215  28.969  50.547  1.00  0.00     0.011 C 
ENDBRANCH  35  36
ENDBRANCH   1  35
TORSDOF 7
ENDMDL
MODEL 5
REMARK VINA RESULT:      -9.9      2.165      4.906
REMARK  7 active torsions:
REMARK  status: ('A' for Active; 'I' for Inactive)
REMARK    1  A    between atoms: C_2  and  C_3 
REMARK    2  A    between atoms: C_3  and  N_4 
REMARK    3  A    between atoms: C_8  and  C_27 
REMARK    4  A    between atoms: C_8  and  C_9 
REMARK    5  A    between atoms: N_12  and  C_14 
REMARK    6  A    between atoms: C_14  and  C_15 
REMARK    7  A    between atoms: C_27  and  C_28 
ROOT
HETATM    1  N   UNL     1       6.950  26.553  54.456  1.00  0.00    -0.268 N 
HETATM    2  C   UNL     1       7.327  27.828  54.179  1.00  0.00     0.326 C 
HETATM    3  O   UNL     1       8.388  28.224  53.732  1.00  0.00    -0.247 OA
HETATM    4  N   UNL     1       6.277  28.676  54.471  1.00  0.00    -0.324 N 
HETATM    5  C   UNL     1       5.061  27.956  54.799  1.00  0.00     0.123 C 
HETATM    6  C   UNL     1       5.647  26.524  54.862  1.00  0.00     0.257 C 
HETATM    7  O   UNL     1       4.996  25.536  55.178  1.00  0.00    -0.270 OA
HETATM    8  H   UNL     1       6.366  29.637  54.167  1.00  0.00     0.165 HD
ENDROOT
BRANCH   5   9
HETATM    9  C   UNL     1       4.030  27.986  53.645  1.00  0.00     0.080 C 
BRANCH   9  10
HETATM   10  C   UNL     1       4.554  28.259  52.252  1.00  0.00    -0.052 A 
HETATM   11  C   UNL     1       4.691  27.224  51.318  1.00  0.00     0.049 A 
HETATM   12  C   UNL     1       5.178  27.500  50.042  1.00  0.00     0.116 A 
HETATM   13  F   UNL     1       5.309  26.497  49.164  1.00  0.00    -0.206 F 
HETATM   14  C   UNL     1       5.534  28.789  49.671  1.00  0.00     0.042 A 
HETATM   15  C   UNL     1       5.403  29.826  50.592  1.00  0.00     0.003 A 
HETATM   16  C   UNL     1       4.917  29.563  51.875  1.00  0.00     0.007 A 
ENDBRANCH   9  10
ENDBRANCH   5   9
BRANCH   5  17
HETATM   17  C   UNL     1       4.536  28.358  56.224  1.00  0.00     0.027 C 
HETATM   18  C   UNL     1       4.226  29.852  56.431  1.00  0.00     0.035 C 
HETATM   19  C   UNL     1       5.423  30.736  56.763  1.00  0.00     0.235 C 
HETATM   20  N   UNL     1       6.229  30.165  57.900  1.00  0.00    -0.067 N 
HETATM   21  H   UNL     1       5.638  30.243  58.740  1.00  0.00     0.280 HD
HETATM   22  C   UNL     1       6.601  28.714  57.725  1.00  0.00     0.235 C 
HETATM   23  C   UNL     1       5.377  27.869  57.420  1.00  0.00     0.035 C 
BRANCH  20  24
HETATM   24  C   UNL     1       7.486  30.978  58.205  1.00  0.00     0.273 C 
BRANCH  24  25
HETATM   25  C   UNL     1       7.658  31.371  59.647  1.00  0.00    -0.030 A 
HETATM   26  C   UNL     1       6.617  31.988  60.355  1.00  0.00     0.048 A 
HETATM   27  C   UNL     1       6.805  32.372  61.684  1.00  0.00     0.102 A 
HETATM   28  C   UNL     1       8.041  32.180  62.306  1.00  0.00     0.102 A 
HETATM   29  O   UNL     1       5.731  32.943  62.315  1.00  0.00    -0.346 OA
HETATM   30  O   UNL     1       8.306  32.566  63.592  1.00  0.00    -0.346 OA
HETATM   31  C   UNL     1       9.075  31.555  61.617  1.00  0.00     0.040 A 
HETATM   32  C   UNL     1       7.302  33.454  64.098  1.00  0.00     0.202 C 
HETATM   33  C   UNL     1       5.912  32.955  63.739  1.00  0.00     0.202 C 
HETATM   34  C   UNL     1       8.886  31.150  60.295  1.00  0.00     0.012 A 
ENDBRANCH  24  25
ENDBRANCH  20  24
ENDBRANCH   5  17
BRANCH   1  35
HETATM   35  C   UNL     1       7.772  25.383  54.212  1.00  0.00     0.140 C 
BRANCH  35  36
HETATM   36  C   UNL     1       7.220  24.473  53.105  1.00  0.00    -0.004 C 
HETATM   37  C   UNL     1       7.721  23.043  53.318  1.00  0.00     0.011 C 
HETATM   38  C   UNL     1       7.618  24.964  51.712  1.00  0.00     0.011 C 
ENDBRANCH  35  36
ENDBRANCH   1  35
TORSDOF 7
ENDMDL
MODEL 6
REMARK VINA RESULT:      -9.8      3.635      8.831
REMARK  7 active torsions:
REMARK  status: ('A' for Active; 'I' for Inactive)
REMARK    1  A    between atoms: C_2  and  C_3 
REMARK    2  A    between atoms: C_3  and  N_4 
REMARK    3  A    between atoms: C_8  and  C_27 
REMARK    4  A    between atoms: C_8  and  C_9 
REMARK    5  A    between atoms: N_12  and  C_14 
REMARK    6  A    between atoms: C_14  and  C_15 
REMARK    7  A    between atoms: C_27  and  C_28 
ROOT
HETATM    1  N   UNL     1       4.152  32.125  56.863  1.00  0.00    -0.268 N 
HETATM    2  C   UNL     1       5.176  32.254  55.981  1.00  0.00     0.326 C 
HETATM    3  O   UNL     1       5.619  33.271  55.478  1.00  0.00    -0.247 OA
HETATM    4  N   UNL     1       5.702  31.003  55.725  1.00  0.00    -0.324 N 
HETATM    5  C   UNL     1       5.142  29.981  56.588  1.00  0.00     0.123 C 
HETATM    6  C   UNL     1       4.025  30.823  57.253  1.00  0.00     0.257 C 
HETATM    7  O   UNL     1       3.210  30.367  58.044  1.00  0.00    -0.270 OA
HETATM    8  H   UNL     1       6.570  30.969  55.205  1.00  0.00     0.165 HD
ENDROOT
BRANCH   5   9
HETATM    9  C   UNL     1       6.125  29.548  57.703  1.00  0.00     0.080 C 
BRANCH   9  10
HETATM   10  C   UNL     1       7.590  29.863  57.497  1.00  0.00    -0.052 A 
HETATM   11  C   UNL     1       8.252  30.782  58.321  1.00  0.00     0.049 A 
HETATM   12  C   UNL     1       9.602  31.057  58.112  1.00  0.00     0.116 A 
HETATM   13  F   UNL     1      10.217  31.943  58.905  1.00  0.00    -0.206 F 
HETATM   14  C   UNL     1      10.313  30.437  57.094  1.00  0.00     0.042 A 
HETATM   15  C   UNL     1       9.665  29.522  56.267  1.00  0.00     0.003 A 
HETATM   16  C   UNL     1       8.312  29.238  56.466  1.00  0.00     0.007 A 
ENDBRANCH   9  10
ENDBRANCH   5   9
BRANCH   5  17
HETATM   17  C   UNL     1       4.483  28.832  55.744  1.00  0.00     0.027 C 
HETATM   18  C   UNL     1       4.682  27.402  56.281  1.00  0.00     0.035 C 
HETATM   19  C   UNL     1       6.005  26.738  55.916  1.00  0.00     0.235 C 
HETATM   20  N   UNL     1       6.274  26.826  54.437  1.00  0.00    -0.067 N 
HETATM   21  H   UNL     1       5.574  26.225  53.979  1.00  0.00     0.280 HD
HETATM   22  C   UNL     1       6.139  28.216  53.868  1.00  0.00     0.235 C 
HETATM   23  C   UNL     1       4.800  28.829  54.236  1.00  0.00     0.035 C 
BRANCH  20  24
HETATM   24  C   UNL     1       7.632  26.247  54.044  1.00  0.00     0.273 C 
BRANCH  24  25
HETATM   25  C   UNL     1       7.718  24.746  54.075  1.00  0.00    -0.030 A 
HETATM   26  C   UNL     1       8.038  24.066  55.258  1.00  0.00     0.048 A 
HETATM   27  C   UNL     1       8.142  22.673  55.260  1.00  0.00     0.102 A 
HETATM   28  C   UNL     1       7.967  21.951  54.078  1.00  0.00     0.102 A 
HETATM   29  O   UNL     1       8.428  22.082  56.462  1.00  0.00    -0.346 OA
HETATM   30  O   UNL     1       8.091  20.590  54.000  1.00  0.00    -0.346 OA
HETATM   31  C   UNL     1       7.635  22.615  52.901  1.00  0.00     0.040 A 
HETATM   32  C   UNL     1       8.722  20.046  55.166  1.00  0.00     0.202 C 
HETATM   33  C   UNL     1       8.151  20.674  56.428  1.00  0.00     0.202 C 
HETATM   34  C   UNL     1       7.509  24.005  52.897  1.00  0.00     0.012 A 
ENDBRANCH  24  25
ENDBRANCH  20  24
ENDBRANCH   5  17
BRANCH   1  35
HETATM   35  C   UNL     1       3.402  33.236  57.416  1.00  0.00     0.140 C 
BRANCH  35  36
HETATM   36  C   UNL     1       4.118  33.931  58.585  1.00  0.00    -0.004 C 
HETATM   37  C   UNL     1       3.482  33.497  59.907  1.00  0.00     0.011 C 
HETATM   38  C   UNL     1       4.070  35.454  58.457  1.00  0.00     0.011 C 
ENDBRANCH  35  36
ENDBRANCH   1  35
TORSDOF 7
ENDMDL
MODEL 7
REMARK VINA RESULT:      -9.4      3.153      8.655
REMARK  7 active torsions:
REMARK  status: ('A' for Active; 'I' for Inactive)
REMARK    1  A    between atoms: C_2  and  C_3 
REMARK    2  A    between atoms: C_3  and  N_4 
REMARK    3  A    between atoms: C_8  and  C_27 
REMARK    4  A    between atoms: C_8  and  C_9 
REMARK    5  A    between atoms: N_12  and  C_14 
REMARK    6  A    between atoms: C_14  and  C_15 
REMARK    7  A    between atoms: C_27  and  C_28 
ROOT
HETATM    1  N   UNL     1       6.925  28.228  55.286  1.00  0.00    -0.268 N 
HETATM    2  C   UNL     1       7.661  27.759  54.245  1.00  0.00     0.326 C 
HETATM    3  O   UNL     1       8.707  28.193  53.800  1.00  0.00    -0.247 OA
HETATM    4  N   UNL     1       7.039  26.637  53.733  1.00  0.00    -0.324 N 
HETATM    5  C   UNL     1       5.923  26.202  54.552  1.00  0.00     0.123 C 
HETATM    6  C   UNL     1       5.863  27.406  55.524  1.00  0.00     0.257 C 
HETATM    7  O   UNL     1       5.011  27.535  56.394  1.00  0.00    -0.270 OA
HETATM    8  H   UNL     1       7.558  26.095  53.054  1.00  0.00     0.165 HD
ENDROOT
BRANCH   5   9
HETATM    9  C   UNL     1       6.261  24.944  55.389  1.00  0.00     0.080 C 
BRANCH   9  10
HETATM   10  C   UNL     1       7.169  23.913  54.755  1.00  0.00    -0.052 A 
HETATM   11  C   UNL     1       8.009  23.113  55.541  1.00  0.00     0.049 A 
HETATM   12  C   UNL     1       8.838  22.171  54.937  1.00  0.00     0.116 A 
HETATM   13  F   UNL     1       9.639  21.420  55.702  1.00  0.00    -0.206 F 
HETATM   14  C   UNL     1       8.852  22.005  53.559  1.00  0.00     0.042 A 
HETATM   15  C   UNL     1       8.022  22.795  52.766  1.00  0.00     0.003 A 
HETATM   16  C   UNL     1       7.187  23.744  53.360  1.00  0.00     0.007 A 
ENDBRANCH   9  10
ENDBRANCH   5   9
BRANCH   5  17
HETATM   17  C   UNL     1       4.596  26.154  53.712  1.00  0.00     0.027 C 
HETATM   18  C   UNL     1       4.612  25.236  52.476  1.00  0.00     0.035 C 
HETATM   19  C   UNL     1       5.235  25.833  51.219  1.00  0.00     0.235 C 
HETATM   20  N   UNL     1       4.654  27.187  50.907  1.00  0.00    -0.067 N 
HETATM   21  H   UNL     1       3.675  27.024  50.631  1.00  0.00     0.280 HD
HETATM   22  C   UNL     1       4.657  28.142  52.073  1.00  0.00     0.235 C 
HETATM   23  C   UNL     1       4.007  27.516  53.294  1.00  0.00     0.035 C 
BRANCH  20  24
HETATM   24  C   UNL     1       5.315  27.854  49.702  1.00  0.00     0.273 C 
BRANCH  24  25
HETATM   25  C   UNL     1       4.427  28.783  48.921  1.00  0.00    -0.030 A 
HETATM   26  C   UNL     1       3.313  28.298  48.222  1.00  0.00     0.048 A 
HETATM   27  C   UNL     1       2.517  29.171  47.478  1.00  0.00     0.102 A 
HETATM   28  C   UNL     1       2.844  30.526  47.393  1.00  0.00     0.102 A 
HETATM   29  O   UNL     1       1.430  28.624  46.848  1.00  0.00    -0.346 OA
HETATM   30  O   UNL     1       2.132  31.430  46.653  1.00  0.00    -0.346 OA
HETATM   31  C   UNL     1       3.939  31.020  48.095  1.00  0.00     0.040 A 
HETATM   32  C   UNL     1       1.232  30.782  45.746  1.00  0.00     0.202 C 
HETATM   33  C   UNL     1       0.503  29.639  46.435  1.00  0.00     0.202 C 
HETATM   34  C   UNL     1       4.726  30.156  48.857  1.00  0.00     0.012 A 
ENDBRANCH  24  25
ENDBRANCH  20  24
ENDBRANCH   5  17
BRANCH   1  35
HETATM   35  C   UNL     1       7.305  29.359  56.113  1.00  0.00     0.140 C 
BRANCH  35  36
HETATM   36  C   UNL     1       8.281  28.987  57.240  1.00  0.00    -0.004 C 
HETATM   37  C   UNL     1       7.842  29.658  58.542  1.00  0.00     0.011 C 
HETATM   38  C   UNL     1       9.717  29.390  56.903  1.00  0.00     0.011 C 
ENDBRANCH  35  36
ENDBRANCH   1  35
TORSDOF 7
ENDMDL
MODEL 8
REMARK VINA RESULT:      -9.4      3.538      9.393
REMARK  7 active torsions:
REMARK  status: ('A' for Active; 'I' for Inactive)
REMARK    1  A    between atoms: C_2  and  C_3 
REMARK    2  A    between atoms: C_3  and  N_4 
REMARK    3  A    between atoms: C_8  and  C_27 
REMARK    4  A    between atoms: C_8  and  C_9 
REMARK    5  A    between atoms: N_12  and  C_14 
REMARK    6  A    between atoms: C_14  and  C_15 
REMARK    7  A    between atoms: C_27  and  C_28 
ROOT
HETATM    1  N   UNL     1       8.140  24.916  56.104  1.00  0.00    -0.268 N 
HETATM    2  C   UNL     1       7.978  25.524  57.308  1.00  0.00     0.326 C 
HETATM    3  O   UNL     1       8.430  25.196  58.389  1.00  0.00    -0.247 OA
HETATM    4  N   UNL     1       7.198  26.651  57.134  1.00  0.00    -0.324 N 
HETATM    5  C   UNL     1       6.950  26.940  55.735  1.00  0.00     0.123 C 
HETATM    6  C   UNL     1       7.543  25.648  55.120  1.00  0.00     0.257 C 
HETATM    7  O   UNL     1       7.511  25.387  53.924  1.00  0.00    -0.270 OA
HETATM    8  H   UNL     1       7.127  27.284  57.920  1.00  0.00     0.165 HD
ENDROOT
BRANCH   5   9
HETATM    9  C   UNL     1       7.794  28.131  55.220  1.00  0.00     0.080 C 
BRANCH   9  10
HETATM   10  C   UNL     1       8.431  29.030  56.257  1.00  0.00    -0.052 A 
HETATM   11  C   UNL     1       7.646  29.728  57.183  1.00  0.00     0.049 A 
HETATM   12  C   UNL     1       8.253  30.551  58.129  1.00  0.00     0.116 A 
HETATM   13  F   UNL     1       7.488  31.217  59.002  1.00  0.00    -0.206 F 
HETATM   14  C   UNL     1       9.633  30.697  58.174  1.00  0.00     0.042 A 
HETATM   15  C   UNL     1      10.424  30.009  57.258  1.00  0.00     0.003 A 
HETATM   16  C   UNL     1       9.827  29.181  56.304  1.00  0.00     0.007 A 
ENDBRANCH   9  10
ENDBRANCH   5   9
BRANCH   5  17
HETATM   17  C   UNL     1       5.408  26.988  55.436  1.00  0.00     0.027 C 
HETATM   18  C   UNL     1       4.951  26.299  54.137  1.00  0.00     0.035 C 
HETATM   19  C   UNL     1       5.094  27.126  52.865  1.00  0.00     0.235 C 
HETATM   20  N   UNL     1       4.476  28.491  53.025  1.00  0.00    -0.067 N 
HETATM   21  H   UNL     1       3.460  28.341  53.097  1.00  0.00     0.280 HD
HETATM   22  C   UNL     1       4.927  29.230  54.260  1.00  0.00     0.235 C 
HETATM   23  C   UNL     1       4.746  28.378  55.503  1.00  0.00     0.035 C 
BRANCH  20  24
HETATM   24  C   UNL     1       4.675  29.381  51.800  1.00  0.00     0.273 C 
BRANCH  24  25
HETATM   25  C   UNL     1       4.319  28.745  50.484  1.00  0.00    -0.030 A 
HETATM   26  C   UNL     1       2.985  28.469  50.154  1.00  0.00     0.048 A 
HETATM   27  C   UNL     1       2.677  27.851  48.940  1.00  0.00     0.102 A 
HETATM   28  C   UNL     1       3.695  27.469  48.064  1.00  0.00     0.102 A 
HETATM   29  O   UNL     1       1.349  27.642  48.680  1.00  0.00    -0.346 OA
HETATM   30  O   UNL     1       3.468  26.826  46.878  1.00  0.00    -0.346 OA
HETATM   31  C   UNL     1       5.021  27.751  48.376  1.00  0.00     0.040 A 
HETATM   32  C   UNL     1       2.131  26.318  46.796  1.00  0.00     0.202 C 
HETATM   33  C   UNL     1       1.131  27.352  47.290  1.00  0.00     0.202 C 
HETATM   34  C   UNL     1       5.334  28.388  49.578  1.00  0.00     0.012 A 
ENDBRANCH  24  25
ENDBRANCH  20  24
ENDBRANCH   5  17
BRANCH   1  35
HETATM   35  C   UNL     1       8.957  23.737  55.885  1.00  0.00     0.140 C 
BRANCH  35  36
HETATM   36  C   UNL     1       8.135  22.477  55.575  1.00  0.00    -0.004 C 
HETATM   37  C   UNL     1       8.412  21.408  56.634  1.00  0.00     0.011 C 
HETATM   38  C   UNL     1       8.444  21.925  54.183  1.00  0.00     0.011 C 
ENDBRANCH  35  36
ENDBRANCH   1  35
TORSDOF 7
ENDMDL
MODEL 9
REMARK VINA RESULT:      -9.4      4.731      8.855
REMARK  7 active torsions:
REMARK  status: ('A' for Active; 'I' for Inactive)
REMARK    1  A    between atoms: C_2  and  C_3 
REMARK    2  A    between atoms: C_3  and  N_4 
REMARK    3  A    between atoms: C_8  and  C_27 
REMARK    4  A    between atoms: C_8  and  C_9 
REMARK    5  A    between atoms: N_12  and  C_14 
REMARK    6  A    between atoms: C_14  and  C_15 
REMARK    7  A    between atoms: C_27  and  C_28 
ROOT
HETATM    1  N   UNL     1       4.186  29.074  50.179  1.00  0.00    -0.268 N 
HETATM    2  C   UNL     1       5.503  29.380  50.310  1.00  0.00     0.326 C 
HETATM    3  O   UNL     1       6.360  29.423  49.447  1.00  0.00    -0.247 OA
HETATM    4  N   UNL     1       5.759  29.675  51.635  1.00  0.00    -0.324 N 
HETATM    5  C   UNL     1       4.549  29.750  52.429  1.00  0.00     0.123 C 
HETATM    6  C   UNL     1       3.544  29.225  51.374  1.00  0.00     0.257 C 
HETATM    7  O   UNL     1       2.355  29.041  51.600  1.00  0.00    -0.270 OA
HETATM    8  H   UNL     1       6.667  30.070  51.848  1.00  0.00     0.165 HD
ENDROOT
BRANCH   5   9
HETATM    9  C   UNL     1       4.152  31.208  52.764  1.00  0.00     0.080 C 
BRANCH   9  10
HETATM   10  C   UNL     1       3.897  31.541  54.218  1.00  0.00    -0.052 A 
HETATM   11  C   UNL     1       4.924  32.034  55.034  1.00  0.00     0.049 A 
HETATM   12  C   UNL     1       4.666  32.333  56.370  1.00  0.00     0.116 A 
HETATM   13  F   UNL     1       5.660  32.797  57.137  1.00  0.00    -0.206 F 
HETATM   14  C   UNL     1       3.404  32.151  56.917  1.00  0.00     0.042 A 
HETATM   15  C   UNL     1       2.376  31.660  56.116  1.00  0.00     0.003 A 
HETATM   16  C   UNL     1       2.621  31.356  54.775  1.00  0.00     0.007 A 
ENDBRANCH   9  10
ENDBRANCH   5   9
BRANCH   5  17
HETATM   17  C   UNL     1       4.602  28.740  53.631  1.00  0.00     0.027 C 
HETATM   18  C   UNL     1       5.911  28.726  54.443  1.00  0.00     0.035 C 
HETATM   19  C   UNL     1       7.043  27.890  53.856  1.00  0.00     0.235 C 
HETATM   20  N   UNL     1       6.578  26.499  53.514  1.00  0.00    -0.067 N 
HETATM   21  H   UNL     1       6.380  26.032  54.411  1.00  0.00     0.280 HD
HETATM   22  C   UNL     1       5.323  26.456  52.679  1.00  0.00     0.235 C 
HETATM   23  C   UNL     1       4.217  27.282  53.311  1.00  0.00     0.035 C 
BRANCH  20  24
HETATM   24  C   UNL     1       7.662  25.657  52.844  1.00  0.00     0.273 C 
BRANCH  24  25
HETATM   25  C   UNL     1       7.838  24.275  53.409  1.00  0.00    -0.030 A 
HETATM   26  C   UNL     1       8.069  24.079  54.778  1.00  0.00     0.048 A 
HETATM   27  C   UNL     1       8.258  22.790  55.279  1.00  0.00     0.102 A 
HETATM   28  C   UNL     1       8.257  21.690  54.419  1.00  0.00     0.102 A 
HETATM   29  O   UNL     1       8.450  22.681  56.632  1.00  0.00    -0.346 OA
HETATM   30  O   UNL     1       8.474  20.405  54.837  1.00  0.00    -0.346 OA
HETATM   31  C   UNL     1       8.014  21.872  53.061  1.00  0.00     0.040 A 
HETATM   32  C   UNL     1       9.007  20.361  56.166  1.00  0.00     0.202 C 
HETATM   33  C   UNL     1       8.265  21.328  57.075  1.00  0.00     0.202 C 
HETATM   34  C   UNL     1       7.803  23.156  52.557  1.00  0.00     0.012 A 
ENDBRANCH  24  25
ENDBRANCH  20  24
ENDBRANCH   5  17
BRANCH   1  35
HETATM   35  C   UNL     1       3.536  28.776  48.917  1.00  0.00     0.140 C 
BRANCH  35  36
HETATM   36  C   UNL     1       3.257  27.278  48.716  1.00  0.00    -0.004 C 
HETATM   37  C   UNL     1       4.364  26.660  47.858  1.00  0.00     0.011 C 
HETATM   38  C   UNL     1       1.895  27.035  48.065  1.00  0.00     0.011 C 
ENDBRANCH  35  36
ENDBRANCH   1  35
TORSDOF 7
ENDMDL
MODEL 10
REMARK VINA RESULT:      -9.3      5.475      9.253
REMARK  7 active torsions:
REMARK  status: ('A' for Active; 'I' for Inactive)
REMARK    1  A    between atoms: C_2  and  C_3 
REMARK    2  A    between atoms: C_3  and  N_4 
REMARK    3  A    between atoms: C_8  and  C_27 
REMARK    4  A    between atoms: C_8  and  C_9 
REMARK    5  A    between atoms: N_12  and  C_14 
REMARK    6  A    between atoms: C_14  and  C_15 
REMARK    7  A    between atoms: C_27  and  C_28 
ROOT
HETATM    1  N   UNL     1       3.736  28.658  49.408  1.00  0.00    -0.268 N 
HETATM    2  C   UNL     1       5.094  28.637  49.394  1.00  0.00     0.326 C 
HETATM    3  O   UNL     1       5.838  28.392  48.461  1.00  0.00    -0.247 OA
HETATM    4  N   UNL     1       5.557  28.970  50.651  1.00  0.00    -0.324 N 
HETATM    5  C   UNL     1       4.492  29.411  51.532  1.00  0.00     0.123 C 
HETATM    6  C   UNL     1       3.283  29.065  50.629  1.00  0.00     0.257 C 
HETATM    7  O   UNL     1       2.116  29.202  50.974  1.00  0.00    -0.270 OA
HETATM    8  H   UNL     1       6.550  29.144  50.743  1.00  0.00     0.165 HD
ENDROOT
BRANCH   5   9
HETATM    9  C   UNL     1       4.495  30.945  51.739  1.00  0.00     0.080 C 
BRANCH   9  10
HETATM   10  C   UNL     1       4.692  31.810  50.512  1.00  0.00    -0.052 A 
HETATM   11  C   UNL     1       5.977  32.106  50.039  1.00  0.00     0.049 A 
HETATM   12  C   UNL     1       6.134  32.905  48.909  1.00  0.00     0.116 A 
HETATM   13  F   UNL     1       7.369  33.183  48.474  1.00  0.00    -0.206 F 
HETATM   14  C   UNL     1       5.036  33.420  48.234  1.00  0.00     0.042 A 
HETATM   15  C   UNL     1       3.753  33.134  48.696  1.00  0.00     0.003 A 
HETATM   16  C   UNL     1       3.582  32.334  49.829  1.00  0.00     0.007 A 
ENDBRANCH   9  10
ENDBRANCH   5   9
BRANCH   5  17
HETATM   17  C   UNL     1       4.433  28.526  52.829  1.00  0.00     0.027 C 
HETATM   18  C   UNL     1       5.586  28.721  53.832  1.00  0.00     0.035 C 
HETATM   19  C   UNL     1       6.868  27.956  53.521  1.00  0.00     0.235 C 
HETATM   20  N   UNL     1       6.589  26.499  53.261  1.00  0.00    -0.067 N 
HETATM   21  H   UNL     1       6.286  26.098  54.160  1.00  0.00     0.280 HD
HETATM   22  C   UNL     1       5.498  26.251  52.250  1.00  0.00     0.235 C 
HETATM   23  C   UNL     1       4.235  27.013  52.610  1.00  0.00     0.035 C 
BRANCH  20  24
HETATM   24  C   UNL     1       7.839  25.716  52.862  1.00  0.00     0.273 C 
BRANCH  24  25
HETATM   25  C   UNL     1       7.926  24.324  53.424  1.00  0.00    -0.030 A 
HETATM   26  C   UNL     1       8.196  24.110  54.783  1.00  0.00     0.048 A 
HETATM   27  C   UNL     1       8.302  22.810  55.280  1.00  0.00     0.102 A 
HETATM   28  C   UNL     1       8.178  21.714  54.423  1.00  0.00     0.102 A 
HETATM   29  O   UNL     1       8.538  22.685  56.624  1.00  0.00    -0.346 OA
HETATM   30  O   UNL     1       8.308  20.415  54.835  1.00  0.00    -0.346 OA
HETATM   31  C   UNL     1       7.895  21.915  53.076  1.00  0.00     0.040 A 
HETATM   32  C   UNL     1       8.889  20.328  56.142  1.00  0.00     0.202 C 
HETATM   33  C   UNL     1       8.264  21.350  57.078  1.00  0.00     0.202 C 
HETATM   34  C   UNL     1       7.767  23.212  52.577  1.00  0.00     0.012 A 
ENDBRANCH  24  25
ENDBRANCH  20  24
ENDBRANCH   5  17
BRANCH   1  35
HETATM   35  C   UNL     1       2.901  28.424  48.245  1.00  0.00     0.140 C 
BRANCH  35  36
HETATM   36  C   UNL     1       2.125  27.100  48.311  1.00  0.00    -0.004 C 
HETATM   37  C   UNL     1       3.038  25.948  47.887  1.00  0.00     0.011 C 
HETATM   38  C   UNL     1       0.875  27.129  47.430  1.00  0.00     0.011 C 
ENDBRANCH  35  36
ENDBRANCH   1  35
TORSDOF 7
ENDMDL
