MODEL 1
REMARK VINA RESULT:     -10.0      0.000      0.000
REMARK  7 active torsions:
REMARK  status: ('A' for Active; 'I' for Inactive)
REMARK       I    between atoms: C_2  and  N_3 
REMARK    1  A    between atoms: N_3  and  C_4 
REMARK    2  A    between atoms: C_6  and  N_7 
REMARK       I    between atoms: N_7  and  C_8 
REMARK    3  A    between atoms: C_8  and  C_9 
REMARK       I    between atoms: C_9  and  N_10 
REMARK    4  A    between atoms: N_10  and  C_11 
REMARK    5  A    between atoms: C_11  and  C_12 
REMARK    6  A    between atoms: C_12  and  O_13 
REMARK    7  A    between atoms: C_12  and  C_14 
ROOT
HETATM    1  C   UNL     1       7.937  30.039  58.809  1.00  0.00     0.309 C 
HETATM    2  N   UNL     1       6.851  29.523  58.145  1.00  0.00    -0.350 N 
HETATM    3  O   UNL     1       9.082  29.607  58.776  1.00  0.00    -0.262 OA
HETATM    4  H   UNL     1       5.938  29.876  58.429  1.00  0.00     0.163 HD
ENDROOT
BRANCH   1   5
HETATM    5  C   UNL     1       7.601  31.250  59.706  1.00  0.00     0.313 C 
HETATM    6  N   UNL     1       7.553  30.905  61.040  1.00  0.00    -0.319 N 
HETATM    7  H   UNL     1       7.755  29.923  61.224  1.00  0.00     0.169 HD
HETATM    8  O   UNL     1       7.385  32.333  59.180  1.00  0.00    -0.262 OA
BRANCH   6   9
HETATM    9  C   UNL     1       7.188  31.719  62.125  1.00  0.00     0.037 A 
HETATM   10  C   UNL     1       5.864  32.010  62.466  1.00  0.00     0.059 A 
HETATM   11  C   UNL     1       5.555  32.772  63.603  1.00  0.00     0.036 A 
HETATM   12  C   UNL     1       6.596  33.290  64.370  1.00  0.00     0.029 A 
HETATM   13  C   UNL     1       7.925  33.027  64.024  1.00  0.00     0.004 A 
HETATM   14  C   UNL     1       8.219  32.241  62.910  1.00  0.00     0.029 A 
BRANCH  11  15
HETATM   15  N   UNL     1       4.190  32.995  63.857  1.00  0.00    -0.327 N 
HETATM   16  C   UNL     1       3.319  33.962  63.451  1.00  0.00     0.218 C 
HETATM   17  C   UNL     1       3.808  35.209  62.771  1.00  0.00     0.117 C 
HETATM   18  O   UNL     1       2.120  33.821  63.705  1.00  0.00    -0.274 OA
HETATM   19  H   UNL     1       3.736  32.333  64.477  1.00  0.00     0.169 HD
ENDBRANCH  11  15
ENDBRANCH   6   9
ENDBRANCH   1   5
BRANCH   2  20
HETATM   20  C   UNL     1       6.897  28.240  57.465  1.00  0.00     0.159 C 
BRANCH  20  21
HETATM   21  C   UNL     1       7.445  28.379  56.035  1.00  0.00     0.171 C 
BRANCH  21  22
HETATM   22  O   UNL     1       7.027  29.648  55.507  1.00  0.00    -0.389 OA
HETATM   23  H   UNL     1       7.499  30.318  56.031  1.00  0.00     0.210 HD
ENDBRANCH  21  22
BRANCH  21  24
HETATM   24  C   UNL     1       7.005  27.252  55.151  1.00  0.00     0.000 A 
HETATM   25  C   UNL     1       7.307  25.864  55.334  1.00  0.00     0.001 A 
HETATM   26  C   UNL     1       6.705  25.154  54.289  1.00  0.00     0.044 A 
HETATM   27  C   UNL     1       8.043  25.150  56.304  1.00  0.00     0.014 A 
HETATM   28  C   UNL     1       6.822  23.759  54.178  1.00  0.00     0.030 A 
HETATM   29  N   UNL     1       6.052  26.080  53.503  1.00  0.00    -0.360 N 
HETATM   30  C   UNL     1       7.558  23.077  55.152  1.00  0.00     0.002 A 
HETATM   31  C   UNL     1       8.160  23.760  56.203  1.00  0.00     0.001 A 
HETATM   32  C   UNL     1       5.280  25.807  52.311  1.00  0.00     0.155 C 
HETATM   33  C   UNL     1       6.228  27.341  54.012  1.00  0.00     0.101 A 
ENDBRANCH  21  24
ENDBRANCH  20  21
ENDBRANCH   2  20
TORSDOF 7
ENDMDL
MODEL 2
REMARK VINA RESULT:      -9.8      1.067      2.144
REMARK  7 active torsions:
REMARK  status: ('A' for Active; 'I' for Inactive)
REMARK       I    between atoms: C_2  and  N_3 
REMARK    1  A    between atoms: N_3  and  C_4 
REMARK    2  A    between atoms: C_6  and  N_7 
REMARK       I    between atoms: N_7  and  C_8 
REMARK    3  A    between atoms: C_8  and  C_9 
REMARK       I    between atoms: C_9  and  N_10 
REMARK    4  A    between atoms: N_10  and  C_11 
REMARK    5  A    between atoms: C_11  and  C_12 
REMARK    6  A    between atoms: C_12  and  O_13 
REMARK    7  A    between atoms: C_12  and  C_14 
ROOT
HETATM    1  C   UNL     1       8.468  30.133  58.648  1.00  0.00     0.309 C 
HETATM    2  N   UNL     1       7.357  29.344  58.479  1.00  0.00    -0.350 N 
HETATM    3  O   UNL     1       9.566  29.963  58.134  1.00  0.00    -0.262 OA
HETATM    4  H   UNL     1       6.584  29.507  59.123  1.00  0.00     0.163 HD
ENDROOT
BRANCH   1   5
HETATM    5  C   UNL     1       8.257  31.302  59.635  1.00  0.00     0.313 C 
HETATM    6  N   UNL     1       7.737  30.872  60.838  1.00  0.00    -0.319 N 
HETATM    7  H   UNL     1       7.588  29.866  60.892  1.00  0.00     0.169 HD
HETATM    8  O   UNL     1       8.519  32.439  59.270  1.00  0.00    -0.262 OA
BRANCH   6   9
HETATM    9  C   UNL     1       7.333  31.659  61.929  1.00  0.00     0.037 A 
HETATM   10  C   UNL     1       5.997  31.936  62.232  1.00  0.00     0.059 A 
HETATM   11  C   UNL     1       5.646  32.670  63.375  1.00  0.00     0.036 A 
HETATM   12  C   UNL     1       6.658  33.173  64.189  1.00  0.00     0.029 A 
HETATM   13  C   UNL     1       7.999  32.924  63.882  1.00  0.00     0.004 A 
HETATM   14  C   UNL     1       8.334  32.166  62.760  1.00  0.00     0.029 A 
BRANCH  11  15
HETATM   15  N   UNL     1       4.272  32.883  63.588  1.00  0.00    -0.327 N 
HETATM   16  C   UNL     1       3.398  33.821  63.126  1.00  0.00     0.218 C 
HETATM   17  C   UNL     1       3.886  35.050  62.412  1.00  0.00     0.117 C 
HETATM   18  O   UNL     1       2.195  33.671  63.356  1.00  0.00    -0.274 OA
HETATM   19  H   UNL     1       3.812  32.237  64.221  1.00  0.00     0.169 HD
ENDBRANCH  11  15
ENDBRANCH   6   9
ENDBRANCH   1   5
BRANCH   2  20
HETATM   20  C   UNL     1       7.415  28.058  57.807  1.00  0.00     0.159 C 
BRANCH  20  21
HETATM   21  C   UNL     1       6.309  27.923  56.748  1.00  0.00     0.171 C 
BRANCH  21  22
HETATM   22  O   UNL     1       5.036  28.053  57.400  1.00  0.00    -0.389 OA
HETATM   23  H   UNL     1       5.146  28.768  58.051  1.00  0.00     0.210 HD
ENDBRANCH  21  22
BRANCH  21  24
HETATM   24  C   UNL     1       6.403  26.631  55.995  1.00  0.00     0.000 A 
HETATM   25  C   UNL     1       5.910  26.382  54.674  1.00  0.00     0.001 A 
HETATM   26  C   UNL     1       6.205  25.052  54.352  1.00  0.00     0.044 A 
HETATM   27  C   UNL     1       5.237  27.177  53.722  1.00  0.00     0.014 A 
HETATM   28  C   UNL     1       5.842  24.493  53.116  1.00  0.00     0.030 A 
HETATM   29  N   UNL     1       6.864  24.516  55.438  1.00  0.00    -0.360 N 
HETATM   30  C   UNL     1       5.174  25.303  52.192  1.00  0.00     0.002 A 
HETATM   31  C   UNL     1       4.877  26.628  52.488  1.00  0.00     0.001 A 
HETATM   32  C   UNL     1       7.372  23.167  55.557  1.00  0.00     0.155 C 
HETATM   33  C   UNL     1       6.986  25.455  56.428  1.00  0.00     0.101 A 
ENDBRANCH  21  24
ENDBRANCH  20  21
ENDBRANCH   2  20
TORSDOF 7
ENDMDL
MODEL 3
REMARK VINA RESULT:      -9.7      1.797      2.081
REMARK  7 active torsions:
REMARK  status: ('A' for Active; 'I' for Inactive)
REMARK       I    between atoms: C_2  and  N_3 
REMARK    1  A    between atoms: N_3  and  C_4 
REMARK    2  A    between atoms: C_6  and  N_7 
REMARK       I    between atoms: N_7  and  C_8 
REMARK    3  A    between atoms: C_8  and  C_9 
REMARK       I    between atoms: C_9  and  N_10 
REMARK    4  A    between atoms: N_10  and  C_11 
REMARK    5  A    between atoms: C_11  and  C_12 
REMARK    6  A    between atoms: C_12  and  O_13 
REMARK    7  A    between atoms: C_12  and  C_14 
ROOT
HETATM    1  C   UNL     1       9.486  29.903  57.545  1.00  0.00     0.309 C 
HETATM    2  N   UNL     1       8.585  28.885  57.740  1.00  0.00    -0.350 N 
HETATM    3  O   UNL     1      10.339  29.961  56.669  1.00  0.00    -0.262 OA
HETATM    4  H   UNL     1       8.075  28.896  58.623  1.00  0.00     0.163 HD
ENDROOT
BRANCH   1   5
HETATM    5  C   UNL     1       9.390  31.030  58.597  1.00  0.00     0.313 C 
HETATM    6  N   UNL     1       8.476  30.733  59.586  1.00  0.00    -0.319 N 
HETATM    7  H   UNL     1       8.024  29.826  59.478  1.00  0.00     0.169 HD
HETATM    8  O   UNL     1      10.065  32.038  58.447  1.00  0.00    -0.262 OA
BRANCH   6   9
HETATM    9  C   UNL     1       8.062  31.555  60.647  1.00  0.00     0.037 A 
HETATM   10  C   UNL     1       6.988  32.446  60.563  1.00  0.00     0.059 A 
HETATM   11  C   UNL     1       6.571  33.192  61.676  1.00  0.00     0.036 A 
HETATM   12  C   UNL     1       7.283  33.077  62.868  1.00  0.00     0.029 A 
HETATM   13  C   UNL     1       8.375  32.209  62.956  1.00  0.00     0.004 A 
HETATM   14  C   UNL     1       8.758  31.448  61.852  1.00  0.00     0.029 A 
BRANCH  11  15
HETATM   15  N   UNL     1       5.475  34.051  61.481  1.00  0.00    -0.327 N 
HETATM   16  C   UNL     1       4.134  33.896  61.666  1.00  0.00     0.218 C 
HETATM   17  C   UNL     1       3.538  32.541  61.924  1.00  0.00     0.117 C 
HETATM   18  O   UNL     1       3.405  34.887  61.561  1.00  0.00    -0.274 OA
HETATM   19  H   UNL     1       5.688  34.972  61.113  1.00  0.00     0.169 HD
ENDBRANCH  11  15
ENDBRANCH   6   9
ENDBRANCH   1   5
BRANCH   2  20
HETATM   20  C   UNL     1       8.679  27.621  57.031  1.00  0.00     0.159 C 
BRANCH  20  21
HETATM   21  C   UNL     1       7.473  26.715  57.329  1.00  0.00     0.171 C 
BRANCH  21  22
HETATM   22  O   UNL     1       7.823  25.830  58.405  1.00  0.00    -0.389 OA
HETATM   23  H   UNL     1       8.087  26.406  59.144  1.00  0.00     0.210 HD
ENDBRANCH  21  22
BRANCH  21  24
HETATM   24  C   UNL     1       7.030  25.950  56.119  1.00  0.00     0.000 A 
HETATM   25  C   UNL     1       7.629  24.754  55.606  1.00  0.00     0.001 A 
HETATM   26  C   UNL     1       6.908  24.370  54.469  1.00  0.00     0.044 A 
HETATM   27  C   UNL     1       8.724  23.964  56.015  1.00  0.00     0.014 A 
HETATM   28  C   UNL     1       7.253  23.229  53.726  1.00  0.00     0.030 A 
HETATM   29  N   UNL     1       5.901  25.297  54.304  1.00  0.00    -0.360 N 
HETATM   30  C   UNL     1       8.344  22.466  54.152  1.00  0.00     0.002 A 
HETATM   31  C   UNL     1       9.070  22.825  55.282  1.00  0.00     0.001 A 
HETATM   32  C   UNL     1       4.897  25.302  53.263  1.00  0.00     0.155 C 
HETATM   33  C   UNL     1       5.967  26.248  55.289  1.00  0.00     0.101 A 
ENDBRANCH  21  24
ENDBRANCH  20  21
ENDBRANCH   2  20
TORSDOF 7
ENDMDL
MODEL 4
REMARK VINA RESULT:      -9.6      2.669      4.289
REMARK  7 active torsions:
REMARK  status: ('A' for Active; 'I' for Inactive)
REMARK       I    between atoms: C_2  and  N_3 
REMARK    1  A    between atoms: N_3  and  C_4 
REMARK    2  A    between atoms: C_6  and  N_7 
REMARK       I    between atoms: N_7  and  C_8 
REMARK    3  A    between atoms: C_8  and  C_9 
REMARK       I    between atoms: C_9  and  N_10 
REMARK    4  A    between atoms: N_10  and  C_11 
REMARK    5  A    between atoms: C_11  and  C_12 
REMARK    6  A    between atoms: C_12  and  O_13 
REMARK    7  A    between atoms: C_12  and  C_14 
ROOT
HETATM    1  C   UNL     1       5.526  27.805  56.766  1.00  0.00     0.309 C 
HETATM    2  N   UNL     1       5.983  26.691  57.426  1.00  0.00    -0.350 N 
HETATM    3  O   UNL     1       4.674  27.831  55.887  1.00  0.00    -0.262 OA
HETATM    4  H   UNL     1       6.826  26.811  57.987  1.00  0.00     0.163 HD
ENDROOT
BRANCH   1   5
HETATM    5  C   UNL     1       6.232  29.112  57.188  1.00  0.00     0.313 C 
HETATM    6  N   UNL     1       7.455  28.868  57.778  1.00  0.00    -0.319 N 
HETATM    7  H   UNL     1       7.703  27.881  57.831  1.00  0.00     0.169 HD
HETATM    8  O   UNL     1       5.663  30.178  57.005  1.00  0.00    -0.262 OA
BRANCH   6   9
HETATM    9  C   UNL     1       8.327  29.801  58.363  1.00  0.00     0.037 A 
HETATM   10  C   UNL     1       8.243  30.209  59.697  1.00  0.00     0.059 A 
HETATM   11  C   UNL     1       9.185  31.091  60.250  1.00  0.00     0.036 A 
HETATM   12  C   UNL     1      10.187  31.606  59.430  1.00  0.00     0.029 A 
HETATM   13  C   UNL     1      10.265  31.225  58.088  1.00  0.00     0.004 A 
HETATM   14  C   UNL     1       9.343  30.322  57.559  1.00  0.00     0.029 A 
BRANCH  11  15
HETATM   15  N   UNL     1       9.010  31.427  61.604  1.00  0.00    -0.327 N 
HETATM   16  C   UNL     1       8.118  32.228  62.251  1.00  0.00     0.218 C 
HETATM   17  C   UNL     1       7.219  33.161  61.490  1.00  0.00     0.117 C 
HETATM   18  O   UNL     1       8.100  32.216  63.485  1.00  0.00    -0.274 OA
HETATM   19  H   UNL     1       9.677  31.025  62.255  1.00  0.00     0.169 HD
ENDBRANCH  11  15
ENDBRANCH   6   9
ENDBRANCH   1   5
BRANCH   2  20
HETATM   20  C   UNL     1       5.643  25.344  57.000  1.00  0.00     0.159 C 
BRANCH  20  21
HETATM   21  C   UNL     1       6.888  24.445  56.924  1.00  0.00     0.171 C 
BRANCH  21  22
HETATM   22  O   UNL     1       7.972  25.110  57.591  1.00  0.00    -0.389 OA
HETATM   23  H   UNL     1       8.696  25.150  56.942  1.00  0.00     0.210 HD
ENDBRANCH  21  22
BRANCH  21  24
HETATM   24  C   UNL     1       7.250  24.100  55.511  1.00  0.00     0.000 A 
HETATM   25  C   UNL     1       7.576  22.797  55.014  1.00  0.00     0.001 A 
HETATM   26  C   UNL     1       7.849  22.919  53.646  1.00  0.00     0.044 A 
HETATM   27  C   UNL     1       7.662  21.523  55.613  1.00  0.00     0.014 A 
HETATM   28  C   UNL     1       8.211  21.811  52.863  1.00  0.00     0.030 A 
HETATM   29  N   UNL     1       7.684  24.249  53.324  1.00  0.00    -0.360 N 
HETATM   30  C   UNL     1       8.291  20.559  53.483  1.00  0.00     0.002 A 
HETATM   31  C   UNL     1       8.018  20.414  54.838  1.00  0.00     0.001 A 
HETATM   32  C   UNL     1       7.850  24.846  52.017  1.00  0.00     0.155 C 
HETATM   33  C   UNL     1       7.326  24.965  54.436  1.00  0.00     0.101 A 
ENDBRANCH  21  24
ENDBRANCH  20  21
ENDBRANCH   2  20
TORSDOF 7
ENDMDL
MODEL 5
REMARK VINA RESULT:      -9.5      1.977      3.337
REMARK  7 active torsions:
REMARK  status: ('A' for Active; 'I' for Inactive)
REMARK       I    between atoms: C_2  and  N_3 
REMARK    1  A    between atoms: N_3  and  C_4 
REMARK    2  A    between atoms: C_6  and  N_7 
REMARK       I    between atoms: N_7  and  C_8 
REMARK    3  A    between atoms: C_8  and  C_9 
REMARK       I    between atoms: C_9  and  N_10 
REMARK    4  A    between atoms: N_10  and  C_11 
REMARK    5  A    between atoms: C_11  and  C_12 
REMARK    6  A    between atoms: C_12  and  O_13 
REMARK    7  A    between atoms: C_12  and  C_14 
ROOT
HETATM    1  C   UNL     1       7.772  29.339  55.909  1.00  0.00     0.309 C 
HETATM    2  N   UNL     1       6.686  28.826  55.244  1.00  0.00    -0.350 N 
HETATM    3  O   UNL     1       8.935  29.324  55.525  1.00  0.00    -0.262 OA
HETATM    4  H   UNL     1       5.824  28.745  55.781  1.00  0.00     0.163 HD
ENDROOT
BRANCH   1   5
HETATM    5  C   UNL     1       7.431  29.934  57.292  1.00  0.00     0.313 C 
HETATM    6  N   UNL     1       8.549  30.430  57.929  1.00  0.00    -0.319 N 
HETATM    7  H   UNL     1       9.410  30.339  57.391  1.00  0.00     0.169 HD
HETATM    8  O   UNL     1       6.275  29.883  57.690  1.00  0.00    -0.262 OA
BRANCH   6   9
HETATM    9  C   UNL     1       8.635  30.957  59.228  1.00  0.00     0.037 A 
HETATM   10  C   UNL     1       7.626  30.824  60.187  1.00  0.00     0.059 A 
HETATM   11  C   UNL     1       7.793  31.309  61.493  1.00  0.00     0.036 A 
HETATM   12  C   UNL     1       8.968  31.983  61.815  1.00  0.00     0.029 A 
HETATM   13  C   UNL     1       9.973  32.146  60.857  1.00  0.00     0.004 A 
HETATM   14  C   UNL     1       9.809  31.630  59.572  1.00  0.00     0.029 A 
BRANCH  11  15
HETATM   15  N   UNL     1       6.718  31.112  62.378  1.00  0.00    -0.327 N 
HETATM   16  C   UNL     1       5.632  31.871  62.699  1.00  0.00     0.218 C 
HETATM   17  C   UNL     1       5.534  33.306  62.264  1.00  0.00     0.117 C 
HETATM   18  O   UNL     1       4.751  31.373  63.405  1.00  0.00    -0.274 OA
HETATM   19  H   UNL     1       6.732  30.251  62.914  1.00  0.00     0.169 HD
ENDBRANCH  11  15
ENDBRANCH   6   9
ENDBRANCH   1   5
BRANCH   2  20
HETATM   20  C   UNL     1       6.825  27.996  54.060  1.00  0.00     0.159 C 
BRANCH  20  21
HETATM   21  C   UNL     1       6.116  26.642  54.233  1.00  0.00     0.171 C 
BRANCH  21  22
HETATM   22  O   UNL     1       4.899  26.855  54.965  1.00  0.00    -0.389 OA
HETATM   23  H   UNL     1       4.217  27.037  54.294  1.00  0.00     0.210 HD
ENDBRANCH  21  22
BRANCH  21  24
HETATM   24  C   UNL     1       6.989  25.632  54.913  1.00  0.00     0.000 A 
HETATM   25  C   UNL     1       7.467  24.407  54.345  1.00  0.00     0.001 A 
HETATM   26  C   UNL     1       8.246  23.764  55.313  1.00  0.00     0.044 A 
HETATM   27  C   UNL     1       7.303  23.790  53.086  1.00  0.00     0.014 A 
HETATM   28  C   UNL     1       8.858  22.524  55.066  1.00  0.00     0.030 A 
HETATM   29  N   UNL     1       8.248  24.576  56.427  1.00  0.00    -0.360 N 
HETATM   30  C   UNL     1       8.678  21.934  53.811  1.00  0.00     0.002 A 
HETATM   31  C   UNL     1       7.913  22.558  52.832  1.00  0.00     0.001 A 
HETATM   32  C   UNL     1       8.932  24.324  57.676  1.00  0.00     0.155 C 
HETATM   33  C   UNL     1       7.496  25.698  56.196  1.00  0.00     0.101 A 
ENDBRANCH  21  24
ENDBRANCH  20  21
ENDBRANCH   2  20
TORSDOF 7
ENDMDL
MODEL 6
REMARK VINA RESULT:      -9.4      3.415      5.503
REMARK  7 active torsions:
REMARK  status: ('A' for Active; 'I' for Inactive)
REMARK       I    between atoms: C_2  and  N_3 
REMARK    1  A    between atoms: N_3  and  C_4 
REMARK    2  A    between atoms: C_6  and  N_7 
REMARK       I    between atoms: N_7  and  C_8 
REMARK    3  A    between atoms: C_8  and  C_9 
REMARK       I    between atoms: C_9  and  N_10 
REMARK    4  A    between atoms: N_10  and  C_11 
REMARK    5  A    between atoms: C_11  and  C_12 
REMARK    6  A    between atoms: C_12  and  O_13 
REMARK    7  A    between atoms: C_12  and  C_14 
ROOT
HETATM    1  C   UNL     1       5.184  27.909  53.843  1.00  0.00     0.309 C 
HETATM    2  N   UNL     1       5.125  26.540  53.929  1.00  0.00    -0.350 N 
HETATM    3  O   UNL     1       5.435  28.565  52.839  1.00  0.00    -0.262 OA
HETATM    4  H   UNL     1       5.098  26.147  54.870  1.00  0.00     0.163 HD
ENDROOT
BRANCH   1   5
HETATM    5  C   UNL     1       4.951  28.629  55.189  1.00  0.00     0.313 C 
HETATM    6  N   UNL     1       5.965  29.517  55.480  1.00  0.00    -0.319 N 
HETATM    7  H   UNL     1       6.692  29.568  54.768  1.00  0.00     0.169 HD
HETATM    8  O   UNL     1       3.966  28.338  55.853  1.00  0.00    -0.262 OA
BRANCH   6   9
HETATM    9  C   UNL     1       6.135  30.273  56.652  1.00  0.00     0.037 A 
HETATM   10  C   UNL     1       6.932  29.868  57.726  1.00  0.00     0.059 A 
HETATM   11  C   UNL     1       7.123  30.695  58.844  1.00  0.00     0.036 A 
HETATM   12  C   UNL     1       6.457  31.917  58.899  1.00  0.00     0.029 A 
HETATM   13  C   UNL     1       5.636  32.320  57.842  1.00  0.00     0.004 A 
HETATM   14  C   UNL     1       5.481  31.504  56.722  1.00  0.00     0.029 A 
BRANCH  11  15
HETATM   15  N   UNL     1       7.953  30.193  59.863  1.00  0.00    -0.327 N 
HETATM   16  C   UNL     1       8.948  30.751  60.606  1.00  0.00     0.218 C 
HETATM   17  C   UNL     1       9.528  32.090  60.244  1.00  0.00     0.117 C 
HETATM   18  O   UNL     1       9.408  30.110  61.555  1.00  0.00    -0.274 OA
HETATM   19  H   UNL     1       7.822  29.216  60.104  1.00  0.00     0.169 HD
ENDBRANCH  11  15
ENDBRANCH   6   9
ENDBRANCH   1   5
BRANCH   2  20
HETATM   20  C   UNL     1       5.569  25.676  52.849  1.00  0.00     0.159 C 
BRANCH  20  21
HETATM   21  C   UNL     1       7.099  25.520  52.843  1.00  0.00     0.171 C 
BRANCH  21  22
HETATM   22  O   UNL     1       7.498  24.997  51.566  1.00  0.00    -0.389 OA
HETATM   23  H   UNL     1       6.672  24.840  51.076  1.00  0.00     0.210 HD
ENDBRANCH  21  22
BRANCH  21  24
HETATM   24  C   UNL     1       7.582  24.649  53.962  1.00  0.00     0.000 A 
HETATM   25  C   UNL     1       7.826  23.239  53.894  1.00  0.00     0.001 A 
HETATM   26  C   UNL     1       8.265  22.821  55.155  1.00  0.00     0.044 A 
HETATM   27  C   UNL     1       7.711  22.283  52.863  1.00  0.00     0.014 A 
HETATM   28  C   UNL     1       8.584  21.479  55.420  1.00  0.00     0.030 A 
HETATM   29  N   UNL     1       8.295  23.941  55.958  1.00  0.00    -0.360 N 
HETATM   30  C   UNL     1       8.459  20.551  54.381  1.00  0.00     0.002 A 
HETATM   31  C   UNL     1       8.030  20.946  53.118  1.00  0.00     0.001 A 
HETATM   32  C   UNL     1       8.697  23.996  57.347  1.00  0.00     0.155 C 
HETATM   33  C   UNL     1       7.886  25.042  55.251  1.00  0.00     0.101 A 
ENDBRANCH  21  24
ENDBRANCH  20  21
ENDBRANCH   2  20
TORSDOF 7
ENDMDL
MODEL 7
REMARK VINA RESULT:      -9.3      2.034     10.355
REMARK  7 active torsions:
REMARK  status: ('A' for Active; 'I' for Inactive)
REMARK       I    between atoms: C_2  and  N_3 
REMARK    1  A    between atoms: N_3  and  C_4 
REMARK    2  A    between atoms: C_6  and  N_7 
REMARK       I    between atoms: N_7  and  C_8 
REMARK    3  A    between atoms: C_8  and  C_9 
REMARK       I    between atoms: C_9  and  N_10 
REMARK    4  A    between atoms: N_10  and  C_11 
REMARK    5  A    between atoms: C_11  and  C_12 
REMARK    6  A    between atoms: C_12  and  O_13 
REMARK    7  A    between atoms: C_12  and  C_14 
ROOT
HETATM    1  C   UNL     1       8.372  29.671  58.242  1.00  0.00     0.309 C 
HETATM    2  N   UNL     1       7.902  30.243  59.398  1.00  0.00    -0.350 N 
HETATM    3  O   UNL     1       9.326  30.054  57.576  1.00  0.00    -0.262 OA
HETATM    4  H   UNL     1       6.990  29.924  59.722  1.00  0.00     0.163 HD
ENDROOT
BRANCH   1   5
HETATM    5  C   UNL     1       7.541  28.460  57.764  1.00  0.00     0.313 C 
HETATM    6  N   UNL     1       8.344  27.412  57.365  1.00  0.00    -0.319 N 
HETATM    7  H   UNL     1       9.342  27.592  57.457  1.00  0.00     0.169 HD
HETATM    8  O   UNL     1       6.322  28.548  57.750  1.00  0.00    -0.262 OA
BRANCH   6   9
HETATM    9  C   UNL     1       7.943  26.194  56.790  1.00  0.00     0.037 A 
HETATM   10  C   UNL     1       7.024  26.098  55.740  1.00  0.00     0.059 A 
HETATM   11  C   UNL     1       6.712  24.861  55.156  1.00  0.00     0.036 A 
HETATM   12  C   UNL     1       7.293  23.706  55.675  1.00  0.00     0.029 A 
HETATM   13  C   UNL     1       8.193  23.788  56.741  1.00  0.00     0.004 A 
HETATM   14  C   UNL     1       8.520  25.027  57.291  1.00  0.00     0.029 A 
BRANCH  11  15
HETATM   15  N   UNL     1       5.782  24.882  54.101  1.00  0.00    -0.327 N 
HETATM   16  C   UNL     1       5.918  24.829  52.746  1.00  0.00     0.218 C 
HETATM   17  C   UNL     1       7.263  24.987  52.095  1.00  0.00     0.117 C 
HETATM   18  O   UNL     1       4.902  24.705  52.055  1.00  0.00    -0.274 OA
HETATM   19  H   UNL     1       4.807  24.972  54.366  1.00  0.00     0.169 HD
ENDBRANCH  11  15
ENDBRANCH   6   9
ENDBRANCH   1   5
BRANCH   2  20
HETATM   20  C   UNL     1       8.373  31.534  59.870  1.00  0.00     0.159 C 
BRANCH  20  21
HETATM   21  C   UNL     1       8.256  31.653  61.399  1.00  0.00     0.171 C 
BRANCH  21  22
HETATM   22  O   UNL     1       8.194  30.330  61.956  1.00  0.00    -0.389 OA
HETATM   23  H   UNL     1       7.263  30.056  61.880  1.00  0.00     0.210 HD
ENDBRANCH  21  22
BRANCH  21  24
HETATM   24  C   UNL     1       7.071  32.472  61.812  1.00  0.00     0.000 A 
HETATM   25  C   UNL     1       6.844  33.040  63.107  1.00  0.00     0.001 A 
HETATM   26  C   UNL     1       5.624  33.726  63.063  1.00  0.00     0.044 A 
HETATM   27  C   UNL     1       7.575  33.030  64.314  1.00  0.00     0.014 A 
HETATM   28  C   UNL     1       5.111  34.392  64.187  1.00  0.00     0.030 A 
HETATM   29  N   UNL     1       5.134  33.585  61.783  1.00  0.00    -0.360 N 
HETATM   30  C   UNL     1       5.854  34.365  65.372  1.00  0.00     0.002 A 
HETATM   31  C   UNL     1       7.071  33.695  65.435  1.00  0.00     0.001 A 
HETATM   32  C   UNL     1       3.899  34.135  61.268  1.00  0.00     0.155 C 
HETATM   33  C   UNL     1       5.994  32.834  61.026  1.00  0.00     0.101 A 
ENDBRANCH  21  24
ENDBRANCH  20  21
ENDBRANCH   2  20
TORSDOF 7
ENDMDL
MODEL 8
REMARK VINA RESULT:      -9.2      1.897      2.709
REMARK  7 active torsions:
REMARK  status: ('A' for Active; 'I' for Inactive)
REMARK       I    between atoms: C_2  and  N_3 
REMARK    1  A    between atoms: N_3  and  C_4 
REMARK    2  A    between atoms: C_6  and  N_7 
REMARK       I    between atoms: N_7  and  C_8 
REMARK    3  A    between atoms: C_8  and  C_9 
REMARK       I    between atoms: C_9  and  N_10 
REMARK    4  A    between atoms: N_10  and  C_11 
REMARK    5  A    between atoms: C_11  and  C_12 
REMARK    6  A    between atoms: C_12  and  O_13 
REMARK    7  A    between atoms: C_12  and  C_14 
ROOT
HETATM    1  C   UNL     1       6.970  29.795  57.497  1.00  0.00     0.309 C 
HETATM    2  N   UNL     1       7.628  28.733  58.067  1.00  0.00    -0.350 N 
HETATM    3  O   UNL     1       6.526  29.849  56.357  1.00  0.00    -0.262 OA
HETATM    4  H   UNL     1       8.101  28.917  58.951  1.00  0.00     0.163 HD
ENDROOT
BRANCH   1   5
HETATM    5  C   UNL     1       6.856  31.026  58.422  1.00  0.00     0.313 C 
HETATM    6  N   UNL     1       5.562  31.225  58.857  1.00  0.00    -0.319 N 
HETATM    7  H   UNL     1       4.897  30.532  58.517  1.00  0.00     0.169 HD
HETATM    8  O   UNL     1       7.856  31.695  58.643  1.00  0.00    -0.262 OA
BRANCH   6   9
HETATM    9  C   UNL     1       5.070  32.290  59.630  1.00  0.00     0.037 A 
HETATM   10  C   UNL     1       4.873  32.218  61.012  1.00  0.00     0.059 A 
HETATM   11  C   UNL     1       4.445  33.335  61.746  1.00  0.00     0.036 A 
HETATM   12  C   UNL     1       4.162  34.518  61.067  1.00  0.00     0.029 A 
HETATM   13  C   UNL     1       4.331  34.593  59.682  1.00  0.00     0.004 A 
HETATM   14  C   UNL     1       4.788  33.486  58.968  1.00  0.00     0.029 A 
BRANCH  11  15
HETATM   15  N   UNL     1       4.288  33.153  63.132  1.00  0.00    -0.327 N 
HETATM   16  C   UNL     1       5.159  33.212  64.178  1.00  0.00     0.218 C 
HETATM   17  C   UNL     1       6.644  33.265  63.948  1.00  0.00     0.117 C 
HETATM   18  O   UNL     1       4.709  33.163  65.326  1.00  0.00    -0.274 OA
HETATM   19  H   UNL     1       3.355  32.910  63.448  1.00  0.00     0.169 HD
ENDBRANCH  11  15
ENDBRANCH   6   9
ENDBRANCH   1   5
BRANCH   2  20
HETATM   20  C   UNL     1       8.068  27.588  57.291  1.00  0.00     0.159 C 
BRANCH  20  21
HETATM   21  C   UNL     1       7.149  26.374  57.503  1.00  0.00     0.171 C 
BRANCH  21  22
HETATM   22  O   UNL     1       7.794  25.468  58.412  1.00  0.00    -0.389 OA
HETATM   23  H   UNL     1       7.185  25.374  59.166  1.00  0.00     0.210 HD
ENDBRANCH  21  22
BRANCH  21  24
HETATM   24  C   UNL     1       6.804  25.695  56.213  1.00  0.00     0.000 A 
HETATM   25  C   UNL     1       7.503  24.594  55.621  1.00  0.00     0.001 A 
HETATM   26  C   UNL     1       6.853  24.268  54.426  1.00  0.00     0.044 A 
HETATM   27  C   UNL     1       8.636  23.845  56.004  1.00  0.00     0.014 A 
HETATM   28  C   UNL     1       7.303  23.226  53.599  1.00  0.00     0.030 A 
HETATM   29  N   UNL     1       5.790  25.137  54.301  1.00  0.00    -0.360 N 
HETATM   30  C   UNL     1       8.430  22.501  54.001  1.00  0.00     0.002 A 
HETATM   31  C   UNL     1       9.087  22.803  55.188  1.00  0.00     0.001 A 
HETATM   32  C   UNL     1       4.826  25.170  53.223  1.00  0.00     0.155 C 
HETATM   33  C   UNL     1       5.753  25.996  55.368  1.00  0.00     0.101 A 
ENDBRANCH  21  24
ENDBRANCH  20  21
ENDBRANCH   2  20
TORSDOF 7
ENDMDL
MODEL 9
REMARK VINA RESULT:      -9.2      2.634      4.768
REMARK  7 active torsions:
REMARK  status: ('A' for Active; 'I' for Inactive)
REMARK       I    between atoms: C_2  and  N_3 
REMARK    1  A    between atoms: N_3  and  C_4 
REMARK    2  A    between atoms: C_6  and  N_7 
REMARK       I    between atoms: N_7  and  C_8 
REMARK    3  A    between atoms: C_8  and  C_9 
REMARK       I    between atoms: C_9  and  N_10 
REMARK    4  A    between atoms: N_10  and  C_11 
REMARK    5  A    between atoms: C_11  and  C_12 
REMARK    6  A    between atoms: C_12  and  O_13 
REMARK    7  A    between atoms: C_12  and  C_14 
ROOT
HETATM    1  C   UNL     1       6.166  27.083  56.055  1.00  0.00     0.309 C 
HETATM    2  N   UNL     1       6.841  27.021  54.861  1.00  0.00    -0.350 N 
HETATM    3  O   UNL     1       5.361  26.265  56.479  1.00  0.00    -0.262 OA
HETATM    4  H   UNL     1       7.324  27.870  54.570  1.00  0.00     0.163 HD
ENDROOT
BRANCH   1   5
HETATM    5  C   UNL     1       6.462  28.361  56.871  1.00  0.00     0.313 C 
HETATM    6  N   UNL     1       7.794  28.712  56.812  1.00  0.00    -0.319 N 
HETATM    7  H   UNL     1       8.364  28.092  56.239  1.00  0.00     0.169 HD
HETATM    8  O   UNL     1       5.550  28.893  57.488  1.00  0.00    -0.262 OA
BRANCH   6   9
HETATM    9  C   UNL     1       8.439  29.754  57.500  1.00  0.00     0.037 A 
HETATM   10  C   UNL     1       7.805  30.570  58.441  1.00  0.00     0.059 A 
HETATM   11  C   UNL     1       8.515  31.550  59.151  1.00  0.00     0.036 A 
HETATM   12  C   UNL     1       9.865  31.743  58.865  1.00  0.00     0.029 A 
HETATM   13  C   UNL     1      10.503  30.950  57.907  1.00  0.00     0.004 A 
HETATM   14  C   UNL     1       9.794  29.957  57.232  1.00  0.00     0.029 A 
BRANCH  11  15
HETATM   15  N   UNL     1       7.780  32.308  60.080  1.00  0.00    -0.327 N 
HETATM   16  C   UNL     1       7.795  32.373  61.440  1.00  0.00     0.218 C 
HETATM   17  C   UNL     1       8.536  31.352  62.257  1.00  0.00     0.117 C 
HETATM   18  O   UNL     1       7.139  33.258  61.998  1.00  0.00    -0.274 OA
HETATM   19  H   UNL     1       7.076  32.928  59.694  1.00  0.00     0.169 HD
ENDBRANCH  11  15
ENDBRANCH   6   9
ENDBRANCH   1   5
BRANCH   2  20
HETATM   20  C   UNL     1       6.513  26.045  53.836  1.00  0.00     0.159 C 
BRANCH  20  21
HETATM   21  C   UNL     1       7.777  25.402  53.242  1.00  0.00     0.171 C 
BRANCH  21  22
HETATM   22  O   UNL     1       7.760  25.595  51.819  1.00  0.00    -0.389 OA
HETATM   23  H   UNL     1       7.133  24.937  51.472  1.00  0.00     0.210 HD
ENDBRANCH  21  22
BRANCH  21  24
HETATM   24  C   UNL     1       7.889  23.950  53.593  1.00  0.00     0.000 A 
HETATM   25  C   UNL     1       8.074  23.407  54.905  1.00  0.00     0.001 A 
HETATM   26  C   UNL     1       8.126  22.013  54.786  1.00  0.00     0.044 A 
HETATM   27  C   UNL     1       8.201  23.985  56.186  1.00  0.00     0.014 A 
HETATM   28  C   UNL     1       8.308  21.183  55.904  1.00  0.00     0.030 A 
HETATM   29  N   UNL     1       7.968  21.721  53.448  1.00  0.00    -0.360 N 
HETATM   30  C   UNL     1       8.433  21.781  57.161  1.00  0.00     0.002 A 
HETATM   31  C   UNL     1       8.379  23.163  57.303  1.00  0.00     0.001 A 
HETATM   32  C   UNL     1       7.944  20.405  52.851  1.00  0.00     0.155 C 
HETATM   33  C   UNL     1       7.826  22.877  52.725  1.00  0.00     0.101 A 
ENDBRANCH  21  24
ENDBRANCH  20  21
ENDBRANCH   2  20
TORSDOF 7
ENDMDL
MODEL 10
REMARK VINA RESULT:      -8.8      1.802      2.144
REMARK  7 active torsions:
REMARK  status: ('A' for Active; 'I' for Inactive)
REMARK       I    between atoms: C_2  and  N_3 
REMARK    1  A    between atoms: N_3  and  C_4 
REMARK    2  A    between atoms: C_6  and  N_7 
REMARK       I    between atoms: N_7  and  C_8 
REMARK    3  A    between atoms: C_8  and  C_9 
REMARK       I    between atoms: C_9  and  N_10 
REMARK    4  A    between atoms: N_10  and  C_11 
REMARK    5  A    between atoms: C_11  and  C_12 
REMARK    6  A    between atoms: C_12  and  O_13 
REMARK    7  A    between atoms: C_12  and  C_14 
ROOT
HETATM    1  C   UNL     1       5.781  30.566  57.327  1.00  0.00     0.309 C 
HETATM    2  N   UNL     1       6.041  29.236  57.549  1.00  0.00    -0.350 N 
HETATM    3  O   UNL     1       5.587  31.097  56.241  1.00  0.00    -0.262 OA
HETATM    4  H   UNL     1       6.369  28.989  58.482  1.00  0.00     0.163 HD
ENDROOT
BRANCH   1   5
HETATM    5  C   UNL     1       5.798  31.426  58.609  1.00  0.00     0.313 C 
HETATM    6  N   UNL     1       6.860  31.106  59.429  1.00  0.00    -0.319 N 
HETATM    7  H   UNL     1       7.465  30.373  59.061  1.00  0.00     0.169 HD
HETATM    8  O   UNL     1       4.902  32.239  58.788  1.00  0.00    -0.262 OA
BRANCH   6   9
HETATM    9  C   UNL     1       7.140  31.613  60.709  1.00  0.00     0.037 A 
HETATM   10  C   UNL     1       6.155  31.934  61.647  1.00  0.00     0.059 A 
HETATM   11  C   UNL     1       6.493  32.370  62.938  1.00  0.00     0.036 A 
HETATM   12  C   UNL     1       7.838  32.535  63.262  1.00  0.00     0.029 A 
HETATM   13  C   UNL     1       8.830  32.242  62.322  1.00  0.00     0.004 A 
HETATM   14  C   UNL     1       8.482  31.778  61.054  1.00  0.00     0.029 A 
BRANCH  11  15
HETATM   15  N   UNL     1       5.422  32.657  63.804  1.00  0.00    -0.327 N 
HETATM   16  C   UNL     1       5.325  33.403  64.939  1.00  0.00     0.218 C 
HETATM   17  C   UNL     1       6.553  33.909  65.643  1.00  0.00     0.117 C 
HETATM   18  O   UNL     1       4.205  33.611  65.416  1.00  0.00    -0.274 OA
HETATM   19  H   UNL     1       4.535  32.222  63.576  1.00  0.00     0.169 HD
ENDBRANCH  11  15
ENDBRANCH   6   9
ENDBRANCH   1   5
BRANCH   2  20
HETATM   20  C   UNL     1       6.327  28.311  56.466  1.00  0.00     0.159 C 
BRANCH  20  21
HETATM   21  C   UNL     1       5.040  27.696  55.893  1.00  0.00     0.171 C 
BRANCH  21  22
HETATM   22  O   UNL     1       4.384  26.958  56.937  1.00  0.00    -0.389 OA
HETATM   23  H   UNL     1       4.599  26.023  56.772  1.00  0.00     0.210 HD
ENDBRANCH  21  22
BRANCH  21  24
HETATM   24  C   UNL     1       5.311  26.828  54.702  1.00  0.00     0.000 A 
HETATM   25  C   UNL     1       6.012  25.579  54.707  1.00  0.00     0.001 A 
HETATM   26  C   UNL     1       6.040  25.102  53.391  1.00  0.00     0.044 A 
HETATM   27  C   UNL     1       6.623  24.812  55.721  1.00  0.00     0.014 A 
HETATM   28  C   UNL     1       6.667  23.890  53.058  1.00  0.00     0.030 A 
HETATM   29  N   UNL     1       5.372  26.026  52.617  1.00  0.00    -0.360 N 
HETATM   30  C   UNL     1       7.268  23.151  54.082  1.00  0.00     0.002 A 
HETATM   31  C   UNL     1       7.245  23.602  55.396  1.00  0.00     0.001 A 
HETATM   32  C   UNL     1       5.141  25.951  51.192  1.00  0.00     0.155 C 
HETATM   33  C   UNL     1       4.932  27.065  53.395  1.00  0.00     0.101 A 
ENDBRANCH  21  24
ENDBRANCH  20  21
ENDBRANCH   2  20
TORSDOF 7
ENDMDL
