MODEL 1
REMARK VINA RESULT:      -8.9      0.000      0.000
REMARK  6 active torsions:
REMARK  status: ('A' for Active; 'I' for Inactive)
REMARK    1  A    between atoms: C_2  and  O_3 
REMARK    2  A    between atoms: O_3  and  C_4 
REMARK    3  A    between atoms: C_7  and  N_8 
REMARK    4  A    between atoms: C_9  and  O_10 
REMARK    5  A    between atoms: C_9  and  C_11 
REMARK       I    between atoms: C_11  and  N_12 
REMARK    6  A    between atoms: N_12  and  C_13 
ROOT
HETATM    1  N   UNL     1       8.029  27.626  56.062  1.00  0.00    -0.254 N 
HETATM    2  C   UNL     1       7.311  26.500  56.672  1.00  0.00     0.256 C 
HETATM    3  C   UNL     1       7.649  25.218  55.945  1.00  0.00     0.035 A 
HETATM    4  C   UNL     1       7.733  25.311  54.558  1.00  0.00     0.048 A 
HETATM    5  N   UNL     1       7.679  26.580  53.983  1.00  0.00    -0.308 N 
HETATM    6  C   UNL     1       7.925  27.748  54.673  1.00  0.00     0.330 C 
HETATM    7  O   UNL     1       8.129  28.762  54.008  1.00  0.00    -0.246 OA
HETATM    8  C   UNL     1       7.776  23.963  56.558  1.00  0.00     0.034 A 
HETATM    9  C   UNL     1       7.965  22.827  55.771  1.00  0.00     0.011 A 
HETATM   10 BR   UNL     1       8.136  21.135  56.596  1.00  0.00    -0.051 Br
HETATM   11  C   UNL     1       8.014  22.927  54.379  1.00  0.00     0.021 A 
HETATM   12  C   UNL     1       7.892  24.176  53.767  1.00  0.00     0.031 A 
HETATM   13  H   UNL     1       7.740  26.685  52.978  1.00  0.00     0.170 HD
ENDROOT
BRANCH   1  14
HETATM   14  C   UNL     1       8.568  28.689  56.848  1.00  0.00     0.043 A 
HETATM   15  C   UNL     1       7.748  29.570  57.559  1.00  0.00     0.032 A 
HETATM   16  C   UNL     1       8.299  30.632  58.286  1.00  0.00     0.039 A 
HETATM   17  C   UNL     1       9.678  30.846  58.304  1.00  0.00     0.068 A 
HETATM   18  C   UNL     1      10.504  29.985  57.586  1.00  0.00     0.039 A 
HETATM   19  C   UNL     1       9.950  28.921  56.861  1.00  0.00     0.032 A 
BRANCH  17  20
HETATM   20  O   UNL     1      10.085  31.923  59.041  1.00  0.00    -0.352 OA
BRANCH  20  21
HETATM   21  C   UNL     1       9.212  32.363  60.080  1.00  0.00     0.171 C 
HETATM   22  C   UNL     1       9.739  31.823  61.398  1.00  0.00     0.034 C 
ENDBRANCH  20  21
ENDBRANCH  17  20
ENDBRANCH   1  14
BRANCH   2  23
HETATM   23  O   UNL     1       7.622  26.337  58.058  1.00  0.00    -0.359 OA
HETATM   24  H   UNL     1       6.763  26.443  58.511  1.00  0.00     0.213 HD
ENDBRANCH   2  23
BRANCH   2  25
HETATM   25  C   UNL     1       5.755  26.838  56.637  1.00  0.00     0.279 C 
HETATM   26  N   UNL     1       5.381  28.056  56.090  1.00  0.00    -0.352 N 
HETATM   27  H   UNL     1       6.089  28.699  55.754  1.00  0.00     0.163 HD
HETATM   28  O   UNL     1       4.910  26.007  56.989  1.00  0.00    -0.268 OA
BRANCH  26  29
HETATM   29  C   UNL     1       4.017  28.469  56.001  1.00  0.00     0.084 A 
HETATM   30  C   UNL     1       3.599  29.827  56.493  1.00  0.00     0.027 A 
HETATM   31  C   UNL     1       3.604  29.535  55.022  1.00  0.00     0.027 A 
ENDBRANCH  26  29
ENDBRANCH   2  25
TORSDOF 6
ENDMDL
MODEL 2
REMARK VINA RESULT:      -8.2      8.218     11.588
REMARK  6 active torsions:
REMARK  status: ('A' for Active; 'I' for Inactive)
REMARK    1  A    between atoms: C_2  and  O_3 
REMARK    2  A    between atoms: O_3  and  C_4 
REMARK    3  A    between atoms: C_7  and  N_8 
REMARK    4  A    between atoms: C_9  and  O_10 
REMARK    5  A    between atoms: C_9  and  C_11 
REMARK       I    between atoms: C_11  and  N_12 
REMARK    6  A    between atoms: N_12  and  C_13 
ROOT
HETATM    1  N   UNL     1       3.720  34.786  63.317  1.00  0.00    -0.254 N 
HETATM    2  C   UNL     1       4.566  35.122  62.164  1.00  0.00     0.256 C 
HETATM    3  C   UNL     1       3.739  35.813  61.102  1.00  0.00     0.035 A 
HETATM    4  C   UNL     1       2.463  35.295  60.894  1.00  0.00     0.048 A 
HETATM    5  N   UNL     1       1.998  34.325  61.781  1.00  0.00    -0.308 N 
HETATM    6  C   UNL     1       2.528  34.113  63.036  1.00  0.00     0.330 C 
HETATM    7  O   UNL     1       1.861  33.442  63.822  1.00  0.00    -0.246 OA
HETATM    8  C   UNL     1       4.206  36.843  60.273  1.00  0.00     0.034 A 
HETATM    9  C   UNL     1       3.395  37.320  59.243  1.00  0.00     0.011 A 
HETATM   10 BR   UNL     1       4.022  38.708  58.125  1.00  0.00    -0.051 Br
HETATM   11  C   UNL     1       2.131  36.770  59.021  1.00  0.00     0.021 A 
HETATM   12  C   UNL     1       1.663  35.748  59.848  1.00  0.00     0.031 A 
HETATM   13  H   UNL     1       1.074  33.928  61.661  1.00  0.00     0.170 HD
ENDROOT
BRANCH   1  14
HETATM   14  C   UNL     1       4.203  34.886  64.657  1.00  0.00     0.043 A 
HETATM   15  C   UNL     1       4.919  33.849  65.262  1.00  0.00     0.032 A 
HETATM   16  C   UNL     1       5.341  33.953  66.592  1.00  0.00     0.039 A 
HETATM   17  C   UNL     1       5.044  35.087  67.351  1.00  0.00     0.068 A 
HETATM   18  C   UNL     1       4.317  36.118  66.764  1.00  0.00     0.039 A 
HETATM   19  C   UNL     1       3.897  36.014  65.431  1.00  0.00     0.032 A 
BRANCH  17  20
HETATM   20  O   UNL     1       5.504  35.057  68.638  1.00  0.00    -0.352 OA
BRANCH  20  21
HETATM   21  C   UNL     1       6.673  34.279  68.890  1.00  0.00     0.171 C 
HETATM   22  C   UNL     1       7.782  35.223  69.321  1.00  0.00     0.034 C 
ENDBRANCH  20  21
ENDBRANCH  17  20
ENDBRANCH   1  14
BRANCH   2  23
HETATM   23  O   UNL     1       5.663  35.969  62.515  1.00  0.00    -0.359 OA
HETATM   24  H   UNL     1       6.271  35.384  63.006  1.00  0.00     0.213 HD
ENDBRANCH   2  23
BRANCH   2  25
HETATM   25  C   UNL     1       5.237  33.775  61.643  1.00  0.00     0.279 C 
HETATM   26  N   UNL     1       6.510  33.478  62.109  1.00  0.00    -0.352 N 
HETATM   27  H   UNL     1       6.981  34.120  62.736  1.00  0.00     0.163 HD
HETATM   28  O   UNL     1       4.612  32.978  60.935  1.00  0.00    -0.268 OA
BRANCH  26  29
HETATM   29  C   UNL     1       7.213  32.299  61.716  1.00  0.00     0.084 A 
HETATM   30  C   UNL     1       8.377  32.387  60.768  1.00  0.00     0.027 A 
HETATM   31  C   UNL     1       8.612  32.044  62.209  1.00  0.00     0.027 A 
ENDBRANCH  26  29
ENDBRANCH   2  25
TORSDOF 6
ENDMDL
MODEL 3
REMARK VINA RESULT:      -8.1      5.658      8.702
REMARK  6 active torsions:
REMARK  status: ('A' for Active; 'I' for Inactive)
REMARK    1  A    between atoms: C_2  and  O_3 
REMARK    2  A    between atoms: O_3  and  C_4 
REMARK    3  A    between atoms: C_7  and  N_8 
REMARK    4  A    between atoms: C_9  and  O_10 
REMARK    5  A    between atoms: C_9  and  C_11 
REMARK       I    between atoms: C_11  and  N_12 
REMARK    6  A    between atoms: N_12  and  C_13 
ROOT
HETATM    1  N   UNL     1       4.946  28.163  52.013  1.00  0.00    -0.254 N 
HETATM    2  C   UNL     1       5.029  28.626  50.621  1.00  0.00     0.256 C 
HETATM    3  C   UNL     1       5.142  30.134  50.585  1.00  0.00     0.035 A 
HETATM    4  C   UNL     1       4.344  30.824  51.495  1.00  0.00     0.048 A 
HETATM    5  N   UNL     1       3.662  30.084  52.459  1.00  0.00    -0.308 N 
HETATM    6  C   UNL     1       3.998  28.797  52.821  1.00  0.00     0.330 C 
HETATM    7  O   UNL     1       3.516  28.362  53.866  1.00  0.00    -0.246 OA
HETATM    8  C   UNL     1       5.899  30.855  49.651  1.00  0.00     0.034 A 
HETATM    9  C   UNL     1       5.828  32.248  49.634  1.00  0.00     0.011 A 
HETATM   10 BR   UNL     1       6.849  33.221  48.376  1.00  0.00    -0.051 Br
HETATM   11  C   UNL     1       5.000  32.929  50.528  1.00  0.00     0.021 A 
HETATM   12  C   UNL     1       4.248  32.213  51.461  1.00  0.00     0.031 A 
HETATM   13  H   UNL     1       3.075  30.553  53.139  1.00  0.00     0.170 HD
ENDROOT
BRANCH   1  14
HETATM   14  C   UNL     1       5.588  26.963  52.445  1.00  0.00     0.043 A 
HETATM   15  C   UNL     1       4.997  25.709  52.275  1.00  0.00     0.032 A 
HETATM   16  C   UNL     1       5.626  24.551  52.749  1.00  0.00     0.039 A 
HETATM   17  C   UNL     1       6.850  24.625  53.417  1.00  0.00     0.068 A 
HETATM   18  C   UNL     1       7.439  25.871  53.607  1.00  0.00     0.039 A 
HETATM   19  C   UNL     1       6.809  27.029  53.130  1.00  0.00     0.032 A 
BRANCH  17  20
HETATM   20  O   UNL     1       7.350  23.425  53.838  1.00  0.00    -0.352 OA
BRANCH  20  21
HETATM   21  C   UNL     1       7.981  22.606  52.856  1.00  0.00     0.171 C 
HETATM   22  C   UNL     1       7.921  21.166  53.335  1.00  0.00     0.034 C 
ENDBRANCH  20  21
ENDBRANCH  17  20
ENDBRANCH   1  14
BRANCH   2  23
HETATM   23  O   UNL     1       6.143  28.066  49.922  1.00  0.00    -0.359 OA
HETATM   24  H   UNL     1       6.849  28.734  50.019  1.00  0.00     0.213 HD
ENDBRANCH   2  23
BRANCH   2  25
HETATM   25  C   UNL     1       3.746  28.085  49.850  1.00  0.00     0.279 C 
HETATM   26  N   UNL     1       3.874  26.885  49.165  1.00  0.00    -0.352 N 
HETATM   27  H   UNL     1       4.766  26.404  49.151  1.00  0.00     0.163 HD
HETATM   28  O   UNL     1       2.653  28.656  49.942  1.00  0.00    -0.268 OA
BRANCH  26  29
HETATM   29  C   UNL     1       2.793  26.298  48.440  1.00  0.00     0.084 A 
HETATM   30  C   UNL     1       2.817  26.261  46.937  1.00  0.00     0.027 A 
HETATM   31  C   UNL     1       2.979  24.990  47.718  1.00  0.00     0.027 A 
ENDBRANCH  26  29
ENDBRANCH   2  25
TORSDOF 6
ENDMDL
MODEL 4
REMARK VINA RESULT:      -7.6      7.514     11.635
REMARK  6 active torsions:
REMARK  status: ('A' for Active; 'I' for Inactive)
REMARK    1  A    between atoms: C_2  and  O_3 
REMARK    2  A    between atoms: O_3  and  C_4 
REMARK    3  A    between atoms: C_7  and  N_8 
REMARK    4  A    between atoms: C_9  and  O_10 
REMARK    5  A    between atoms: C_9  and  C_11 
REMARK       I    between atoms: C_11  and  N_12 
REMARK    6  A    between atoms: N_12  and  C_13 
ROOT
HETATM    1  N   UNL     1       5.302  33.677  63.688  1.00  0.00    -0.254 N 
HETATM    2  C   UNL     1       6.091  34.632  64.476  1.00  0.00     0.256 C 
HETATM    3  C   UNL     1       5.875  34.385  65.953  1.00  0.00     0.035 A 
HETATM    4  C   UNL     1       4.567  34.091  66.334  1.00  0.00     0.048 A 
HETATM    5  N   UNL     1       3.626  33.877  65.328  1.00  0.00    -0.308 N 
HETATM    6  C   UNL     1       3.950  33.564  64.025  1.00  0.00     0.330 C 
HETATM    7  O   UNL     1       3.051  33.121  63.313  1.00  0.00    -0.246 OA
HETATM    8  C   UNL     1       6.861  34.532  66.939  1.00  0.00     0.034 A 
HETATM    9  C   UNL     1       6.516  34.400  68.284  1.00  0.00     0.011 A 
HETATM   10 BR   UNL     1       7.843  34.597  69.615  1.00  0.00    -0.051 Br
HETATM   11  C   UNL     1       5.196  34.140  68.657  1.00  0.00     0.021 A 
HETATM   12  C   UNL     1       4.213  33.989  67.676  1.00  0.00     0.031 A 
HETATM   13  H   UNL     1       2.667  33.659  65.568  1.00  0.00     0.170 HD
ENDROOT
BRANCH   1  14
HETATM   14  C   UNL     1       5.802  33.106  62.478  1.00  0.00     0.043 A 
HETATM   15  C   UNL     1       6.793  32.121  62.483  1.00  0.00     0.032 A 
HETATM   16  C   UNL     1       7.299  31.610  61.282  1.00  0.00     0.039 A 
HETATM   17  C   UNL     1       6.839  32.084  60.052  1.00  0.00     0.068 A 
HETATM   18  C   UNL     1       5.863  33.078  60.036  1.00  0.00     0.039 A 
HETATM   19  C   UNL     1       5.356  33.586  61.239  1.00  0.00     0.032 A 
BRANCH  17  20
HETATM   20  O   UNL     1       7.422  31.511  58.958  1.00  0.00    -0.352 OA
BRANCH  20  21
HETATM   21  C   UNL     1       8.393  30.495  59.199  1.00  0.00     0.171 C 
HETATM   22  C   UNL     1       9.699  30.930  58.558  1.00  0.00     0.034 C 
ENDBRANCH  20  21
ENDBRANCH  17  20
ENDBRANCH   1  14
BRANCH   2  23
HETATM   23  O   UNL     1       7.491  34.549  64.198  1.00  0.00    -0.359 OA
HETATM   24  H   UNL     1       7.919  34.734  65.056  1.00  0.00     0.213 HD
ENDBRANCH   2  23
BRANCH   2  25
HETATM   25  C   UNL     1       5.670  36.101  64.028  1.00  0.00     0.279 C 
HETATM   26  N   UNL     1       6.212  36.585  62.846  1.00  0.00    -0.352 N 
HETATM   27  H   UNL     1       6.865  36.017  62.320  1.00  0.00     0.163 HD
HETATM   28  O   UNL     1       4.818  36.743  64.653  1.00  0.00    -0.268 OA
BRANCH  26  29
HETATM   29  C   UNL     1       5.907  37.885  62.340  1.00  0.00     0.084 A 
HETATM   30  C   UNL     1       6.654  39.091  62.840  1.00  0.00     0.027 A 
HETATM   31  C   UNL     1       6.878  38.601  61.440  1.00  0.00     0.027 A 
ENDBRANCH  26  29
ENDBRANCH   2  25
TORSDOF 6
ENDMDL
MODEL 5
REMARK VINA RESULT:      -7.3      5.998      8.920
REMARK  6 active torsions:
REMARK  status: ('A' for Active; 'I' for Inactive)
REMARK    1  A    between atoms: C_2  and  O_3 
REMARK    2  A    between atoms: O_3  and  C_4 
REMARK    3  A    between atoms: C_7  and  N_8 
REMARK    4  A    between atoms: C_9  and  O_10 
REMARK    5  A    between atoms: C_9  and  C_11 
REMARK       I    between atoms: C_11  and  N_12 
REMARK    6  A    between atoms: N_12  and  C_13 
ROOT
HETATM    1  N   UNL     1       4.734  28.194  51.316  1.00  0.00    -0.254 N 
HETATM    2  C   UNL     1       4.905  28.553  49.902  1.00  0.00     0.256 C 
HETATM    3  C   UNL     1       4.652  30.032  49.711  1.00  0.00     0.035 A 
HETATM    4  C   UNL     1       3.585  30.563  50.434  1.00  0.00     0.048 A 
HETATM    5  N   UNL     1       2.969  29.750  51.383  1.00  0.00    -0.308 N 
HETATM    6  C   UNL     1       3.551  28.624  51.925  1.00  0.00     0.330 C 
HETATM    7  O   UNL     1       3.042  28.163  52.945  1.00  0.00    -0.246 OA
HETATM    8  C   UNL     1       5.340  30.848  48.802  1.00  0.00     0.034 A 
HETATM    9  C   UNL     1       4.936  32.171  48.621  1.00  0.00     0.011 A 
HETATM   10 BR   UNL     1       5.863  33.273  47.396  1.00  0.00    -0.051 Br
HETATM   11  C   UNL     1       3.845  32.684  49.324  1.00  0.00     0.021 A 
HETATM   12  C   UNL     1       3.161  31.874  50.233  1.00  0.00     0.031 A 
HETATM   13  H   UNL     1       2.193  30.104  51.929  1.00  0.00     0.170 HD
ENDROOT
BRANCH   1  14
HETATM   14  C   UNL     1       5.577  27.235  51.955  1.00  0.00     0.043 A 
HETATM   15  C   UNL     1       5.388  25.861  51.791  1.00  0.00     0.032 A 
HETATM   16  C   UNL     1       6.200  24.941  52.465  1.00  0.00     0.039 A 
HETATM   17  C   UNL     1       7.206  25.375  53.330  1.00  0.00     0.068 A 
HETATM   18  C   UNL     1       7.392  26.742  53.515  1.00  0.00     0.039 A 
HETATM   19  C   UNL     1       6.580  27.661  52.837  1.00  0.00     0.032 A 
BRANCH  17  20
HETATM   20  O   UNL     1       7.918  24.377  53.934  1.00  0.00    -0.352 OA
BRANCH  20  21
HETATM   21  C   UNL     1       7.485  23.038  53.698  1.00  0.00     0.171 C 
HETATM   22  C   UNL     1       8.716  22.153  53.614  1.00  0.00     0.034 C 
ENDBRANCH  20  21
ENDBRANCH  17  20
ENDBRANCH   1  14
BRANCH   2  23
HETATM   23  O   UNL     1       6.212  28.244  49.412  1.00  0.00    -0.359 OA
HETATM   24  H   UNL     1       6.215  27.271  49.333  1.00  0.00     0.213 HD
ENDBRANCH   2  23
BRANCH   2  25
HETATM   25  C   UNL     1       3.919  27.643  49.045  1.00  0.00     0.279 C 
HETATM   26  N   UNL     1       3.130  28.278  48.097  1.00  0.00    -0.352 N 
HETATM   27  H   UNL     1       3.179  29.284  47.990  1.00  0.00     0.163 HD
HETATM   28  O   UNL     1       3.930  26.411  49.148  1.00  0.00    -0.268 OA
BRANCH  26  29
HETATM   29  C   UNL     1       2.210  27.568  47.266  1.00  0.00     0.084 A 
HETATM   30  C   UNL     1       0.828  27.245  47.764  1.00  0.00     0.027 A 
HETATM   31  C   UNL     1       1.012  28.267  46.682  1.00  0.00     0.027 A 
ENDBRANCH  26  29
ENDBRANCH   2  25
TORSDOF 6
ENDMDL
MODEL 6
REMARK VINA RESULT:      -7.3      6.762     10.406
REMARK  6 active torsions:
REMARK  status: ('A' for Active; 'I' for Inactive)
REMARK    1  A    between atoms: C_2  and  O_3 
REMARK    2  A    between atoms: O_3  and  C_4 
REMARK    3  A    between atoms: C_7  and  N_8 
REMARK    4  A    between atoms: C_9  and  O_10 
REMARK    5  A    between atoms: C_9  and  C_11 
REMARK       I    between atoms: C_11  and  N_12 
REMARK    6  A    between atoms: N_12  and  C_13 
ROOT
HETATM    1  N   UNL     1       5.859  33.141  62.447  1.00  0.00    -0.254 N 
HETATM    2  C   UNL     1       5.489  34.534  62.166  1.00  0.00     0.256 C 
HETATM    3  C   UNL     1       5.279  35.284  63.462  1.00  0.00     0.035 A 
HETATM    4  C   UNL     1       4.615  34.584  64.467  1.00  0.00     0.048 A 
HETATM    5  N   UNL     1       4.367  33.227  64.265  1.00  0.00    -0.308 N 
HETATM    6  C   UNL     1       5.039  32.451  63.344  1.00  0.00     0.330 C 
HETATM    7  O   UNL     1       4.938  31.230  63.458  1.00  0.00    -0.246 OA
HETATM    8  C   UNL     1       5.610  36.631  63.667  1.00  0.00     0.034 A 
HETATM    9  C   UNL     1       5.255  37.254  64.864  1.00  0.00     0.011 A 
HETATM   10 BR   UNL     1       5.701  39.069  65.142  1.00  0.00    -0.051 Br
HETATM   11  C   UNL     1       4.560  36.553  65.851  1.00  0.00     0.021 A 
HETATM   12  C   UNL     1       4.233  35.210  65.650  1.00  0.00     0.031 A 
HETATM   13  H   UNL     1       3.889  32.687  64.975  1.00  0.00     0.170 HD
ENDROOT
BRANCH   1  14
HETATM   14  C   UNL     1       6.821  32.443  61.654  1.00  0.00     0.043 A 
HETATM   15  C   UNL     1       6.517  31.969  60.376  1.00  0.00     0.032 A 
HETATM   16  C   UNL     1       7.463  31.248  59.637  1.00  0.00     0.039 A 
HETATM   17  C   UNL     1       8.725  30.972  60.166  1.00  0.00     0.068 A 
HETATM   18  C   UNL     1       9.032  31.426  61.446  1.00  0.00     0.039 A 
HETATM   19  C   UNL     1       8.085  32.149  62.183  1.00  0.00     0.032 A 
BRANCH  17  20
HETATM   20  O   UNL     1       9.548  30.251  59.348  1.00  0.00    -0.352 OA
BRANCH  20  21
HETATM   21  C   UNL     1       9.890  30.838  58.093  1.00  0.00     0.171 C 
HETATM   22  C   UNL     1      10.856  29.904  57.385  1.00  0.00     0.034 C 
ENDBRANCH  20  21
ENDBRANCH  17  20
ENDBRANCH   1  14
BRANCH   2  23
HETATM   23  O   UNL     1       6.479  35.220  61.394  1.00  0.00    -0.359 OA
HETATM   24  H   UNL     1       6.970  34.506  60.944  1.00  0.00     0.213 HD
ENDBRANCH   2  23
BRANCH   2  25
HETATM   25  C   UNL     1       4.190  34.517  61.245  1.00  0.00     0.279 C 
HETATM   26  N   UNL     1       4.378  34.652  59.877  1.00  0.00    -0.352 N 
HETATM   27  H   UNL     1       5.312  34.780  59.506  1.00  0.00     0.163 HD
HETATM   28  O   UNL     1       3.071  34.291  61.719  1.00  0.00    -0.268 OA
BRANCH  26  29
HETATM   29  C   UNL     1       3.291  34.649  58.951  1.00  0.00     0.084 A 
HETATM   30  C   UNL     1       2.723  35.944  58.440  1.00  0.00     0.027 A 
HETATM   31  C   UNL     1       3.507  35.058  57.519  1.00  0.00     0.027 A 
ENDBRANCH  26  29
ENDBRANCH   2  25
TORSDOF 6
ENDMDL
MODEL 7
REMARK VINA RESULT:      -7.1      4.123      5.951
REMARK  6 active torsions:
REMARK  status: ('A' for Active; 'I' for Inactive)
REMARK    1  A    between atoms: C_2  and  O_3 
REMARK    2  A    between atoms: O_3  and  C_4 
REMARK    3  A    between atoms: C_7  and  N_8 
REMARK    4  A    between atoms: C_9  and  O_10 
REMARK    5  A    between atoms: C_9  and  C_11 
REMARK       I    between atoms: C_11  and  N_12 
REMARK    6  A    between atoms: N_12  and  C_13 
ROOT
HETATM    1  N   UNL     1       6.589  31.721  59.518  1.00  0.00    -0.254 N 
HETATM    2  C   UNL     1       5.770  31.113  58.461  1.00  0.00     0.256 C 
HETATM    3  C   UNL     1       6.463  29.884  57.915  1.00  0.00     0.035 A 
HETATM    4  C   UNL     1       7.842  29.990  57.745  1.00  0.00     0.048 A 
HETATM    5  N   UNL     1       8.477  31.125  58.246  1.00  0.00    -0.308 N 
HETATM    6  C   UNL     1       7.932  31.951  59.206  1.00  0.00     0.330 C 
HETATM    7  O   UNL     1       8.692  32.738  59.768  1.00  0.00    -0.246 OA
HETATM    8  C   UNL     1       5.806  28.721  57.489  1.00  0.00     0.034 A 
HETATM    9  C   UNL     1       6.537  27.697  56.885  1.00  0.00     0.011 A 
HETATM   10 BR   UNL     1       5.653  26.129  56.311  1.00  0.00    -0.051 Br
HETATM   11  C   UNL     1       7.913  27.828  56.688  1.00  0.00     0.021 A 
HETATM   12  C   UNL     1       8.570  28.984  57.116  1.00  0.00     0.031 A 
HETATM   13  H   UNL     1       9.479  31.234  58.142  1.00  0.00     0.170 HD
ENDROOT
BRANCH   1  14
HETATM   14  C   UNL     1       6.002  32.299  60.684  1.00  0.00     0.043 A 
HETATM   15  C   UNL     1       5.321  33.519  60.640  1.00  0.00     0.032 A 
HETATM   16  C   UNL     1       4.794  34.086  61.806  1.00  0.00     0.039 A 
HETATM   17  C   UNL     1       4.951  33.456  63.042  1.00  0.00     0.068 A 
HETATM   18  C   UNL     1       5.641  32.249  63.100  1.00  0.00     0.039 A 
HETATM   19  C   UNL     1       6.166  31.681  61.931  1.00  0.00     0.032 A 
BRANCH  17  20
HETATM   20  O   UNL     1       4.400  34.120  64.102  1.00  0.00    -0.352 OA
BRANCH  20  21
HETATM   21  C   UNL     1       5.289  34.547  65.132  1.00  0.00     0.171 C 
HETATM   22  C   UNL     1       4.786  33.985  66.450  1.00  0.00     0.034 C 
ENDBRANCH  20  21
ENDBRANCH  17  20
ENDBRANCH   1  14
BRANCH   2  23
HETATM   23  O   UNL     1       4.469  30.739  58.921  1.00  0.00    -0.359 OA
HETATM   24  H   UNL     1       4.638  30.239  59.742  1.00  0.00     0.213 HD
ENDBRANCH   2  23
BRANCH   2  25
HETATM   25  C   UNL     1       5.510  32.220  57.347  1.00  0.00     0.279 C 
HETATM   26  N   UNL     1       4.982  31.793  56.137  1.00  0.00    -0.352 N 
HETATM   27  H   UNL     1       4.801  30.808  55.984  1.00  0.00     0.163 HD
HETATM   28  O   UNL     1       5.676  33.422  57.585  1.00  0.00    -0.268 OA
BRANCH  26  29
HETATM   29  C   UNL     1       4.703  32.692  55.063  1.00  0.00     0.084 A 
HETATM   30  C   UNL     1       4.097  32.186  53.784  1.00  0.00     0.027 A 
HETATM   31  C   UNL     1       3.283  33.041  54.708  1.00  0.00     0.027 A 
ENDBRANCH  26  29
ENDBRANCH   2  25
TORSDOF 6
ENDMDL
MODEL 8
REMARK VINA RESULT:      -6.9      5.794      8.121
REMARK  6 active torsions:
REMARK  status: ('A' for Active; 'I' for Inactive)
REMARK    1  A    between atoms: C_2  and  O_3 
REMARK    2  A    between atoms: O_3  and  C_4 
REMARK    3  A    between atoms: C_7  and  N_8 
REMARK    4  A    between atoms: C_9  and  O_10 
REMARK    5  A    between atoms: C_9  and  C_11 
REMARK       I    between atoms: C_11  and  N_12 
REMARK    6  A    between atoms: N_12  and  C_13 
ROOT
HETATM    1  N   UNL     1       3.985  32.194  59.481  1.00  0.00    -0.254 N 
HETATM    2  C   UNL     1       4.990  32.499  58.454  1.00  0.00     0.256 C 
HETATM    3  C   UNL     1       4.403  32.283  57.077  1.00  0.00     0.035 A 
HETATM    4  C   UNL     1       3.590  31.161  56.934  1.00  0.00     0.048 A 
HETATM    5  N   UNL     1       3.247  30.450  58.083  1.00  0.00    -0.308 N 
HETATM    6  C   UNL     1       3.329  30.966  59.359  1.00  0.00     0.330 C 
HETATM    7  O   UNL     1       2.736  30.359  60.250  1.00  0.00    -0.246 OA
HETATM    8  C   UNL     1       4.704  33.062  55.951  1.00  0.00     0.034 A 
HETATM    9  C   UNL     1       4.201  32.693  54.703  1.00  0.00     0.011 A 
HETATM   10 BR   UNL     1       4.605  33.742  53.184  1.00  0.00    -0.051 Br
HETATM   11  C   UNL     1       3.415  31.547  54.564  1.00  0.00     0.021 A 
HETATM   12  C   UNL     1       3.111  30.773  55.685  1.00  0.00     0.031 A 
HETATM   13  H   UNL     1       2.656  29.631  58.016  1.00  0.00     0.170 HD
ENDROOT
BRANCH   1  14
HETATM   14  C   UNL     1       3.876  32.963  60.679  1.00  0.00     0.043 A 
HETATM   15  C   UNL     1       4.678  32.707  61.795  1.00  0.00     0.032 A 
HETATM   16  C   UNL     1       4.520  33.445  62.973  1.00  0.00     0.039 A 
HETATM   17  C   UNL     1       3.548  34.443  63.068  1.00  0.00     0.068 A 
HETATM   18  C   UNL     1       2.733  34.695  61.968  1.00  0.00     0.039 A 
HETATM   19  C   UNL     1       2.894  33.956  60.788  1.00  0.00     0.032 A 
BRANCH  17  20
HETATM   20  O   UNL     1       3.491  35.080  64.276  1.00  0.00    -0.352 OA
BRANCH  20  21
HETATM   21  C   UNL     1       4.712  35.616  64.784  1.00  0.00     0.171 C 
HETATM   22  C   UNL     1       4.986  36.925  64.065  1.00  0.00     0.034 C 
ENDBRANCH  20  21
ENDBRANCH  17  20
ENDBRANCH   1  14
BRANCH   2  23
HETATM   23  O   UNL     1       5.473  33.842  58.542  1.00  0.00    -0.359 OA
HETATM   24  H   UNL     1       6.445  33.750  58.526  1.00  0.00     0.213 HD
ENDBRANCH   2  23
BRANCH   2  25
HETATM   25  C   UNL     1       6.264  31.586  58.733  1.00  0.00     0.279 C 
HETATM   26  N   UNL     1       7.131  31.993  59.736  1.00  0.00    -0.352 N 
HETATM   27  H   UNL     1       6.952  32.852  60.241  1.00  0.00     0.163 HD
HETATM   28  O   UNL     1       6.420  30.507  58.150  1.00  0.00    -0.268 OA
BRANCH  26  29
HETATM   29  C   UNL     1       8.305  31.255  60.079  1.00  0.00     0.084 A 
HETATM   30  C   UNL     1       9.486  31.950  60.699  1.00  0.00     0.027 A 
HETATM   31  C   UNL     1       8.657  31.008  61.522  1.00  0.00     0.027 A 
ENDBRANCH  26  29
ENDBRANCH   2  25
TORSDOF 6
ENDMDL
MODEL 9
REMARK VINA RESULT:      -6.7      5.784      7.532
REMARK  6 active torsions:
REMARK  status: ('A' for Active; 'I' for Inactive)
REMARK    1  A    between atoms: C_2  and  O_3 
REMARK    2  A    between atoms: O_3  and  C_4 
REMARK    3  A    between atoms: C_7  and  N_8 
REMARK    4  A    between atoms: C_9  and  O_10 
REMARK    5  A    between atoms: C_9  and  C_11 
REMARK       I    between atoms: C_11  and  N_12 
REMARK    6  A    between atoms: N_12  and  C_13 
ROOT
HETATM    1  N   UNL     1       4.626  27.909  51.445  1.00  0.00    -0.254 N 
HETATM    2  C   UNL     1       4.019  28.709  50.372  1.00  0.00     0.256 C 
HETATM    3  C   UNL     1       3.411  27.798  49.330  1.00  0.00     0.035 A 
HETATM    4  C   UNL     1       4.152  26.663  49.009  1.00  0.00     0.048 A 
HETATM    5  N   UNL     1       5.275  26.375  49.783  1.00  0.00    -0.308 N 
HETATM    6  C   UNL     1       5.494  26.891  51.043  1.00  0.00     0.330 C 
HETATM    7  O   UNL     1       6.358  26.348  51.731  1.00  0.00    -0.246 OA
HETATM    8  C   UNL     1       2.234  28.073  48.620  1.00  0.00     0.034 A 
HETATM    9  C   UNL     1       1.834  27.219  47.591  1.00  0.00     0.011 A 
HETATM   10 BR   UNL     1       0.248  27.589  46.632  1.00  0.00    -0.051 Br
HETATM   11  C   UNL     1       2.602  26.103  47.255  1.00  0.00     0.021 A 
HETATM   12  C   UNL     1       3.772  25.825  47.964  1.00  0.00     0.031 A 
HETATM   13  H   UNL     1       5.836  25.557  49.580  1.00  0.00     0.170 HD
ENDROOT
BRANCH   1  14
HETATM   14  C   UNL     1       4.559  28.313  52.813  1.00  0.00     0.043 A 
HETATM   15  C   UNL     1       4.609  29.658  53.189  1.00  0.00     0.032 A 
HETATM   16  C   UNL     1       4.588  30.025  54.539  1.00  0.00     0.039 A 
HETATM   17  C   UNL     1       4.533  29.057  55.543  1.00  0.00     0.068 A 
HETATM   18  C   UNL     1       4.500  27.713  55.181  1.00  0.00     0.039 A 
HETATM   19  C   UNL     1       4.519  27.347  53.828  1.00  0.00     0.032 A 
BRANCH  17  20
HETATM   20  O   UNL     1       4.530  29.547  56.818  1.00  0.00    -0.352 OA
BRANCH  20  21
HETATM   21  C   UNL     1       5.432  30.614  57.105  1.00  0.00     0.171 C 
HETATM   22  C   UNL     1       6.657  30.026  57.781  1.00  0.00     0.034 C 
ENDBRANCH  20  21
ENDBRANCH  17  20
ENDBRANCH   1  14
BRANCH   2  23
HETATM   23  O   UNL     1       3.006  29.596  50.855  1.00  0.00    -0.359 OA
HETATM   24  H   UNL     1       2.272  29.005  51.110  1.00  0.00     0.213 HD
ENDBRANCH   2  23
BRANCH   2  25
HETATM   25  C   UNL     1       5.148  29.661  49.776  1.00  0.00     0.279 C 
HETATM   26  N   UNL     1       5.092  31.005  50.116  1.00  0.00    -0.352 N 
HETATM   27  H   UNL     1       4.340  31.347  50.702  1.00  0.00     0.163 HD
HETATM   28  O   UNL     1       6.092  29.204  49.121  1.00  0.00    -0.268 OA
BRANCH  26  29
HETATM   29  C   UNL     1       6.049  31.954  49.646  1.00  0.00     0.084 A 
HETATM   30  C   UNL     1       5.746  32.811  48.448  1.00  0.00     0.027 A 
HETATM   31  C   UNL     1       5.806  33.430  49.812  1.00  0.00     0.027 A 
ENDBRANCH  26  29
ENDBRANCH   2  25
TORSDOF 6
ENDMDL
MODEL 10
REMARK VINA RESULT:      -6.7      6.146      8.973
REMARK  6 active torsions:
REMARK  status: ('A' for Active; 'I' for Inactive)
REMARK    1  A    between atoms: C_2  and  O_3 
REMARK    2  A    between atoms: O_3  and  C_4 
REMARK    3  A    between atoms: C_7  and  N_8 
REMARK    4  A    between atoms: C_9  and  O_10 
REMARK    5  A    between atoms: C_9  and  C_11 
REMARK       I    between atoms: C_11  and  N_12 
REMARK    6  A    between atoms: N_12  and  C_13 
ROOT
HETATM    1  N   UNL     1       4.357  29.134  50.172  1.00  0.00    -0.254 N 
HETATM    2  C   UNL     1       2.937  29.507  50.169  1.00  0.00     0.256 C 
HETATM    3  C   UNL     1       2.483  29.802  48.756  1.00  0.00     0.035 A 
HETATM    4  C   UNL     1       3.384  30.512  47.966  1.00  0.00     0.048 A 
HETATM    5  N   UNL     1       4.665  30.730  48.469  1.00  0.00    -0.308 N 
HETATM    6  C   UNL     1       5.225  29.996  49.493  1.00  0.00     0.330 C 
HETATM    7  O   UNL     1       6.441  30.086  49.651  1.00  0.00    -0.246 OA
HETATM    8  C   UNL     1       1.212  29.501  48.248  1.00  0.00     0.034 A 
HETATM    9  C   UNL     1       0.861  29.933  46.969  1.00  0.00     0.011 A 
HETATM   10 BR   UNL     1      -0.853  29.528  46.282  1.00  0.00    -0.051 Br
HETATM   11  C   UNL     1       1.758  30.674  46.198  1.00  0.00     0.021 A 
HETATM   12  C   UNL     1       3.027  30.971  46.701  1.00  0.00     0.031 A 
HETATM   13  H   UNL     1       5.347  31.241  47.921  1.00  0.00     0.170 HD
ENDROOT
BRANCH   1  14
HETATM   14  C   UNL     1       4.867  28.120  51.037  1.00  0.00     0.043 A 
HETATM   15  C   UNL     1       5.379  28.418  52.303  1.00  0.00     0.032 A 
HETATM   16  C   UNL     1       5.914  27.411  53.114  1.00  0.00     0.039 A 
HETATM   17  C   UNL     1       5.965  26.088  52.672  1.00  0.00     0.068 A 
HETATM   18  C   UNL     1       5.473  25.782  51.406  1.00  0.00     0.039 A 
HETATM   19  C   UNL     1       4.935  26.791  50.596  1.00  0.00     0.032 A 
BRANCH  17  20
HETATM   20  O   UNL     1       6.522  25.206  53.555  1.00  0.00    -0.352 OA
BRANCH  20  21
HETATM   21  C   UNL     1       7.871  24.812  53.313  1.00  0.00     0.171 C 
HETATM   22  C   UNL     1       7.866  23.354  52.888  1.00  0.00     0.034 C 
ENDBRANCH  20  21
ENDBRANCH  17  20
ENDBRANCH   1  14
BRANCH   2  23
HETATM   23  O   UNL     1       2.100  28.484  50.716  1.00  0.00    -0.359 OA
HETATM   24  H   UNL     1       1.346  28.971  51.101  1.00  0.00     0.213 HD
ENDBRANCH   2  23
BRANCH   2  25
HETATM   25  C   UNL     1       2.757  30.750  51.147  1.00  0.00     0.279 C 
HETATM   26  N   UNL     1       3.018  30.544  52.494  1.00  0.00    -0.352 N 
HETATM   27  H   UNL     1       3.288  29.624  52.821  1.00  0.00     0.163 HD
HETATM   28  O   UNL     1       2.494  31.877  50.711  1.00  0.00    -0.268 OA
BRANCH  26  29
HETATM   29  C   UNL     1       2.895  31.582  53.466  1.00  0.00     0.084 A 
HETATM   30  C   UNL     1       2.863  31.252  54.932  1.00  0.00     0.027 A 
HETATM   31  C   UNL     1       4.059  31.944  54.349  1.00  0.00     0.027 A 
ENDBRANCH  26  29
ENDBRANCH   2  25
TORSDOF 6
ENDMDL
