MODEL 1
REMARK VINA RESULT:      -9.0      0.000      0.000
REMARK  4 active torsions:
REMARK  status: ('A' for Active; 'I' for Inactive)
REMARK    1  A    between atoms: C_4  and  C_5 
REMARK    2  A    between atoms: C_8  and  N_9 
REMARK       I    between atoms: N_9  and  C_10 
REMARK       I    between atoms: C_10  and  N_11 
REMARK    3  A    between atoms: N_11  and  C_12 
REMARK    4  A    between atoms: C_12  and  C_13 
ROOT
HETATM    1  C   UNL     1       6.843  23.816  55.015  1.00  0.00     0.089 A 
HETATM    2  N   UNL     1       6.794  24.118  56.332  1.00  0.00    -0.148 NA
HETATM    3  N   UNL     1       6.230  25.304  56.764  1.00  0.00    -0.131 NA
HETATM    4  C   UNL     1       5.709  26.174  55.880  1.00  0.00     0.153 A 
HETATM    5  C   UNL     1       5.731  25.891  54.524  1.00  0.00     0.055 A 
HETATM    6  C   UNL     1       6.305  24.696  54.086  1.00  0.00     0.038 A 
ENDROOT
BRANCH   4   7
HETATM    7  N   UNL     1       5.150  27.386  56.285  1.00  0.00    -0.292 N 
HETATM    8  C   UNL     1       5.667  28.359  57.077  1.00  0.00     0.322 C 
HETATM    9  N   UNL     1       6.887  28.152  57.632  1.00  0.00    -0.337 N 
HETATM   10  O   UNL     1       5.003  29.376  57.273  1.00  0.00    -0.247 OA
HETATM   11  H   UNL     1       7.459  27.424  57.217  1.00  0.00     0.164 HD
HETATM   12  H   UNL     1       4.228  27.621  55.947  1.00  0.00     0.172 HD
BRANCH   9  13
HETATM   13  C   UNL     1       7.549  29.209  58.359  1.00  0.00     0.189 C 
BRANCH  13  14
HETATM   14  C   UNL     1       8.847  29.534  57.721  1.00  0.00     0.070 A 
HETATM   15  O   UNL     1       9.524  30.601  58.238  1.00  0.00    -0.325 OA
HETATM   16  C   UNL     1      10.685  30.713  57.544  1.00  0.00     0.142 A 
HETATM   17  C   UNL     1      10.769  29.732  56.586  1.00  0.00     0.027 A 
HETATM   18  C   UNL     1       9.584  28.968  56.699  1.00  0.00     0.036 A 
ENDBRANCH  13  14
ENDBRANCH   9  13
ENDBRANCH   4   7
BRANCH   1  19
HETATM   19  C   UNL     1       7.472  22.535  54.649  1.00  0.00    -0.006 A 
HETATM   20  C   UNL     1       7.781  21.576  55.632  1.00  0.00     0.014 A 
HETATM   21  C   UNL     1       8.364  20.350  55.297  1.00  0.00     0.001 A 
HETATM   22  C   UNL     1       8.659  20.060  53.969  1.00  0.00     0.000 A 
HETATM   23  C   UNL     1       8.375  20.993  52.978  1.00  0.00     0.001 A 
HETATM   24  C   UNL     1       7.788  22.217  53.314  1.00  0.00     0.014 A 
ENDBRANCH   1  19
TORSDOF 4
ENDMDL
MODEL 2
REMARK VINA RESULT:      -8.8      4.798      7.101
REMARK  4 active torsions:
REMARK  status: ('A' for Active; 'I' for Inactive)
REMARK    1  A    between atoms: C_4  and  C_5 
REMARK    2  A    between atoms: C_8  and  N_9 
REMARK       I    between atoms: N_9  and  C_10 
REMARK       I    between atoms: C_10  and  N_11 
REMARK    3  A    between atoms: N_11  and  C_12 
REMARK    4  A    between atoms: C_12  and  C_13 
ROOT
HETATM    1  C   UNL     1       7.084  23.888  53.538  1.00  0.00     0.089 A 
HETATM    2  N   UNL     1       7.638  24.486  52.458  1.00  0.00    -0.148 NA
HETATM    3  N   UNL     1       7.209  25.733  52.045  1.00  0.00    -0.131 NA
HETATM    4  C   UNL     1       6.242  26.380  52.719  1.00  0.00     0.153 A 
HETATM    5  C   UNL     1       5.662  25.803  53.837  1.00  0.00     0.055 A 
HETATM    6  C   UNL     1       6.089  24.541  54.252  1.00  0.00     0.038 A 
ENDROOT
BRANCH   4   7
HETATM    7  N   UNL     1       5.777  27.632  52.315  1.00  0.00    -0.292 N 
HETATM    8  C   UNL     1       5.414  28.067  51.082  1.00  0.00     0.322 C 
HETATM    9  N   UNL     1       5.555  27.216  50.036  1.00  0.00    -0.337 N 
HETATM   10  O   UNL     1       4.991  29.217  50.961  1.00  0.00    -0.247 OA
HETATM   11  H   UNL     1       5.658  26.232  50.259  1.00  0.00     0.164 HD
HETATM   12  H   UNL     1       5.664  28.348  53.019  1.00  0.00     0.172 HD
BRANCH   9  13
HETATM   13  C   UNL     1       5.048  27.570  48.731  1.00  0.00     0.189 C 
BRANCH  13  14
HETATM   14  C   UNL     1       4.110  26.529  48.246  1.00  0.00     0.070 A 
HETATM   15  O   UNL     1       3.585  26.723  47.000  1.00  0.00    -0.325 OA
HETATM   16  C   UNL     1       2.785  25.659  46.734  1.00  0.00     0.142 A 
HETATM   17  C   UNL     1       2.787  24.779  47.790  1.00  0.00     0.027 A 
HETATM   18  C   UNL     1       3.644  25.338  48.768  1.00  0.00     0.036 A 
ENDBRANCH  13  14
ENDBRANCH   9  13
ENDBRANCH   4   7
BRANCH   1  19
HETATM   19  C   UNL     1       7.598  22.554  53.896  1.00  0.00    -0.006 A 
HETATM   20  C   UNL     1       8.065  21.671  52.905  1.00  0.00     0.014 A 
HETATM   21  C   UNL     1       8.569  20.409  53.232  1.00  0.00     0.001 A 
HETATM   22  C   UNL     1       8.609  19.999  54.562  1.00  0.00     0.000 A 
HETATM   23  C   UNL     1       8.143  20.847  55.560  1.00  0.00     0.001 A 
HETATM   24  C   UNL     1       7.643  22.110  55.231  1.00  0.00     0.014 A 
ENDBRANCH   1  19
TORSDOF 4
ENDMDL
MODEL 3
REMARK VINA RESULT:      -8.6      3.922      5.780
REMARK  4 active torsions:
REMARK  status: ('A' for Active; 'I' for Inactive)
REMARK    1  A    between atoms: C_4  and  C_5 
REMARK    2  A    between atoms: C_8  and  N_9 
REMARK       I    between atoms: N_9  and  C_10 
REMARK       I    between atoms: C_10  and  N_11 
REMARK    3  A    between atoms: N_11  and  C_12 
REMARK    4  A    between atoms: C_12  and  C_13 
ROOT
HETATM    1  C   UNL     1       6.772  23.676  54.307  1.00  0.00     0.089 A 
HETATM    2  N   UNL     1       6.261  24.072  53.119  1.00  0.00    -0.148 NA
HETATM    3  N   UNL     1       5.554  25.255  53.013  1.00  0.00    -0.131 NA
HETATM    4  C   UNL     1       5.373  26.040  54.090  1.00  0.00     0.153 A 
HETATM    5  C   UNL     1       5.893  25.672  55.320  1.00  0.00     0.055 A 
HETATM    6  C   UNL     1       6.602  24.475  55.430  1.00  0.00     0.038 A 
ENDROOT
BRANCH   4   7
HETATM    7  N   UNL     1       4.650  27.230  54.017  1.00  0.00    -0.292 N 
HETATM    8  C   UNL     1       4.616  28.168  53.037  1.00  0.00     0.322 C 
HETATM    9  N   UNL     1       5.432  28.003  51.966  1.00  0.00    -0.337 N 
HETATM   10  O   UNL     1       3.866  29.134  53.168  1.00  0.00    -0.247 OA
HETATM   11  H   UNL     1       5.812  27.074  51.820  1.00  0.00     0.164 HD
HETATM   12  H   UNL     1       4.031  27.459  54.783  1.00  0.00     0.172 HD
BRANCH   9  13
HETATM   13  C   UNL     1       5.332  28.886  50.828  1.00  0.00     0.189 C 
BRANCH  13  14
HETATM   14  C   UNL     1       5.117  28.102  49.589  1.00  0.00     0.070 A 
HETATM   15  O   UNL     1       5.561  28.670  48.429  1.00  0.00    -0.325 OA
HETATM   16  C   UNL     1       5.299  27.793  47.428  1.00  0.00     0.142 A 
HETATM   17  C   UNL     1       4.693  26.663  47.923  1.00  0.00     0.027 A 
HETATM   18  C   UNL     1       4.576  26.859  49.320  1.00  0.00     0.036 A 
ENDBRANCH  13  14
ENDBRANCH   9  13
ENDBRANCH   4   7
BRANCH   1  19
HETATM   19  C   UNL     1       7.500  22.396  54.324  1.00  0.00    -0.006 A 
HETATM   20  C   UNL     1       7.919  21.787  53.126  1.00  0.00     0.014 A 
HETATM   21  C   UNL     1       8.624  20.580  53.129  1.00  0.00     0.001 A 
HETATM   22  C   UNL     1       8.921  19.950  54.334  1.00  0.00     0.000 A 
HETATM   23  C   UNL     1       8.510  20.523  55.532  1.00  0.00     0.001 A 
HETATM   24  C   UNL     1       7.808  21.732  55.527  1.00  0.00     0.014 A 
ENDBRANCH   1  19
TORSDOF 4
ENDMDL
MODEL 4
REMARK VINA RESULT:      -8.3      2.042      2.685
REMARK  4 active torsions:
REMARK  status: ('A' for Active; 'I' for Inactive)
REMARK    1  A    between atoms: C_4  and  C_5 
REMARK    2  A    between atoms: C_8  and  N_9 
REMARK       I    between atoms: N_9  and  C_10 
REMARK       I    between atoms: C_10  and  N_11 
REMARK    3  A    between atoms: N_11  and  C_12 
REMARK    4  A    between atoms: C_12  and  C_13 
ROOT
HETATM    1  C   UNL     1       7.115  23.808  53.551  1.00  0.00     0.089 A 
HETATM    2  N   UNL     1       6.120  24.328  54.307  1.00  0.00    -0.148 NA
HETATM    3  N   UNL     1       5.571  25.559  54.001  1.00  0.00    -0.131 NA
HETATM    4  C   UNL     1       6.008  26.256  52.937  1.00  0.00     0.153 A 
HETATM    5  C   UNL     1       7.016  25.748  52.134  1.00  0.00     0.055 A 
HETATM    6  C   UNL     1       7.576  24.508  52.444  1.00  0.00     0.038 A 
ENDROOT
BRANCH   4   7
HETATM    7  N   UNL     1       5.485  27.508  52.614  1.00  0.00    -0.292 N 
HETATM    8  C   UNL     1       5.270  28.590  53.405  1.00  0.00     0.322 C 
HETATM    9  N   UNL     1       5.535  28.476  54.731  1.00  0.00    -0.337 N 
HETATM   10  O   UNL     1       4.828  29.618  52.894  1.00  0.00    -0.247 OA
HETATM   11  H   UNL     1       6.126  27.701  55.013  1.00  0.00     0.164 HD
HETATM   12  H   UNL     1       5.229  27.684  51.653  1.00  0.00     0.172 HD
BRANCH   9  13
HETATM   13  C   UNL     1       5.467  29.632  55.592  1.00  0.00     0.189 C 
BRANCH  13  14
HETATM   14  C   UNL     1       6.491  29.536  56.660  1.00  0.00     0.070 A 
HETATM   15  O   UNL     1       7.430  28.556  56.510  1.00  0.00    -0.325 OA
HETATM   16  C   UNL     1       8.281  28.652  57.563  1.00  0.00     0.142 A 
HETATM   17  C   UNL     1       7.906  29.683  58.392  1.00  0.00     0.027 A 
HETATM   18  C   UNL     1       6.750  30.257  57.809  1.00  0.00     0.036 A 
ENDBRANCH  13  14
ENDBRANCH   9  13
ENDBRANCH   4   7
BRANCH   1  19
HETATM   19  C   UNL     1       7.644  22.496  53.960  1.00  0.00    -0.006 A 
HETATM   20  C   UNL     1       7.671  22.120  55.316  1.00  0.00     0.014 A 
HETATM   21  C   UNL     1       8.158  20.872  55.717  1.00  0.00     0.001 A 
HETATM   22  C   UNL     1       8.636  19.974  54.768  1.00  0.00     0.000 A 
HETATM   23  C   UNL     1       8.632  20.324  53.422  1.00  0.00     0.001 A 
HETATM   24  C   UNL     1       8.142  21.571  53.023  1.00  0.00     0.014 A 
ENDBRANCH   1  19
TORSDOF 4
ENDMDL
MODEL 5
REMARK VINA RESULT:      -8.2      4.626     10.064
REMARK  4 active torsions:
REMARK  status: ('A' for Active; 'I' for Inactive)
REMARK    1  A    between atoms: C_4  and  C_5 
REMARK    2  A    between atoms: C_8  and  N_9 
REMARK       I    between atoms: N_9  and  C_10 
REMARK       I    between atoms: C_10  and  N_11 
REMARK    3  A    between atoms: N_11  and  C_12 
REMARK    4  A    between atoms: C_12  and  C_13 
ROOT
HETATM    1  C   UNL     1       8.008  32.416  61.759  1.00  0.00     0.089 A 
HETATM    2  N   UNL     1       7.434  32.559  60.542  1.00  0.00    -0.148 NA
HETATM    3  N   UNL     1       8.124  32.227  59.392  1.00  0.00    -0.131 NA
HETATM    4  C   UNL     1       9.377  31.742  59.464  1.00  0.00     0.153 A 
HETATM    5  C   UNL     1       9.991  31.570  60.694  1.00  0.00     0.055 A 
HETATM    6  C   UNL     1       9.298  31.911  61.856  1.00  0.00     0.038 A 
ENDROOT
BRANCH   4   7
HETATM    7  N   UNL     1      10.105  31.414  58.320  1.00  0.00    -0.292 N 
HETATM    8  C   UNL     1       9.995  30.340  57.499  1.00  0.00     0.322 C 
HETATM    9  N   UNL     1       9.094  29.378  57.821  1.00  0.00    -0.337 N 
HETATM   10  O   UNL     1      10.725  30.273  56.511  1.00  0.00    -0.247 OA
HETATM   11  H   UNL     1       8.372  29.633  58.487  1.00  0.00     0.164 HD
HETATM   12  H   UNL     1      10.821  32.056  58.012  1.00  0.00     0.172 HD
BRANCH   9  13
HETATM   13  C   UNL     1       8.828  28.290  56.910  1.00  0.00     0.189 C 
BRANCH  13  14
HETATM   14  C   UNL     1       7.368  28.137  56.707  1.00  0.00     0.070 A 
HETATM   15  O   UNL     1       6.981  27.226  55.765  1.00  0.00    -0.325 OA
HETATM   16  C   UNL     1       5.624  27.215  55.753  1.00  0.00     0.142 A 
HETATM   17  C   UNL     1       5.127  28.105  56.676  1.00  0.00     0.027 A 
HETATM   18  C   UNL     1       6.252  28.700  57.295  1.00  0.00     0.036 A 
ENDBRANCH  13  14
ENDBRANCH   9  13
ENDBRANCH   4   7
BRANCH   1  19
HETATM   19  C   UNL     1       7.199  32.807  62.926  1.00  0.00    -0.006 A 
HETATM   20  C   UNL     1       7.812  33.173  64.139  1.00  0.00     0.014 A 
HETATM   21  C   UNL     1       7.056  33.560  65.250  1.00  0.00     0.001 A 
HETATM   22  C   UNL     1       5.666  33.581  65.173  1.00  0.00     0.000 A 
HETATM   23  C   UNL     1       5.034  33.214  63.991  1.00  0.00     0.001 A 
HETATM   24  C   UNL     1       5.792  32.831  62.880  1.00  0.00     0.014 A 
ENDBRANCH   1  19
TORSDOF 4
ENDMDL
MODEL 6
REMARK VINA RESULT:      -8.0      2.364      3.390
REMARK  4 active torsions:
REMARK  status: ('A' for Active; 'I' for Inactive)
REMARK    1  A    between atoms: C_4  and  C_5 
REMARK    2  A    between atoms: C_8  and  N_9 
REMARK       I    between atoms: N_9  and  C_10 
REMARK       I    between atoms: C_10  and  N_11 
REMARK    3  A    between atoms: N_11  and  C_12 
REMARK    4  A    between atoms: C_12  and  C_13 
ROOT
HETATM    1  C   UNL     1       6.744  26.323  55.376  1.00  0.00     0.089 A 
HETATM    2  N   UNL     1       7.586  27.380  55.325  1.00  0.00    -0.148 NA
HETATM    3  N   UNL     1       7.290  28.551  55.998  1.00  0.00    -0.131 NA
HETATM    4  C   UNL     1       6.164  28.654  56.726  1.00  0.00     0.153 A 
HETATM    5  C   UNL     1       5.285  27.586  56.811  1.00  0.00     0.055 A 
HETATM    6  C   UNL     1       5.579  26.405  56.128  1.00  0.00     0.038 A 
ENDROOT
BRANCH   4   7
HETATM    7  N   UNL     1       5.831  29.828  57.401  1.00  0.00    -0.292 N 
HETATM    8  C   UNL     1       6.626  30.703  58.068  1.00  0.00     0.322 C 
HETATM    9  N   UNL     1       7.947  30.413  58.173  1.00  0.00    -0.337 N 
HETATM   10  O   UNL     1       6.116  31.707  58.562  1.00  0.00    -0.247 OA
HETATM   11  H   UNL     1       8.315  29.721  57.530  1.00  0.00     0.164 HD
HETATM   12  H   UNL     1       4.863  30.117  57.405  1.00  0.00     0.172 HD
BRANCH   9  13
HETATM   13  C   UNL     1       8.864  31.375  58.739  1.00  0.00     0.189 C 
BRANCH  13  14
HETATM   14  C   UNL     1       8.784  31.349  60.219  1.00  0.00     0.070 A 
HETATM   15  O   UNL     1       9.145  30.178  60.822  1.00  0.00    -0.325 OA
HETATM   16  C   UNL     1       9.032  30.367  62.161  1.00  0.00     0.142 A 
HETATM   17  C   UNL     1       8.605  31.645  62.433  1.00  0.00     0.027 A 
HETATM   18  C   UNL     1       8.446  32.282  61.179  1.00  0.00     0.036 A 
ENDBRANCH  13  14
ENDBRANCH   9  13
ENDBRANCH   4   7
BRANCH   1  19
HETATM   19  C   UNL     1       7.138  25.122  54.619  1.00  0.00    -0.006 A 
HETATM   20  C   UNL     1       7.184  23.860  55.240  1.00  0.00     0.014 A 
HETATM   21  C   UNL     1       7.542  22.711  54.529  1.00  0.00     0.001 A 
HETATM   22  C   UNL     1       7.870  22.800  53.180  1.00  0.00     0.000 A 
HETATM   23  C   UNL     1       7.843  24.036  52.543  1.00  0.00     0.001 A 
HETATM   24  C   UNL     1       7.481  25.184  53.254  1.00  0.00     0.014 A 
ENDBRANCH   1  19
TORSDOF 4
ENDMDL
MODEL 7
REMARK VINA RESULT:      -8.0      3.020      8.328
REMARK  4 active torsions:
REMARK  status: ('A' for Active; 'I' for Inactive)
REMARK    1  A    between atoms: C_4  and  C_5 
REMARK    2  A    between atoms: C_8  and  N_9 
REMARK       I    between atoms: N_9  and  C_10 
REMARK       I    between atoms: C_10  and  N_11 
REMARK    3  A    between atoms: N_11  and  C_12 
REMARK    4  A    between atoms: C_12  and  C_13 
ROOT
HETATM    1  C   UNL     1       8.186  30.356  58.402  1.00  0.00     0.089 A 
HETATM    2  N   UNL     1       6.963  30.219  57.841  1.00  0.00    -0.148 NA
HETATM    3  N   UNL     1       6.820  29.652  56.588  1.00  0.00    -0.131 NA
HETATM    4  C   UNL     1       7.897  29.215  55.911  1.00  0.00     0.153 A 
HETATM    5  C   UNL     1       9.163  29.327  56.461  1.00  0.00     0.055 A 
HETATM    6  C   UNL     1       9.309  29.904  57.723  1.00  0.00     0.038 A 
ENDROOT
BRANCH   4   7
HETATM    7  N   UNL     1       7.786  28.655  54.638  1.00  0.00    -0.292 N 
HETATM    8  C   UNL     1       7.154  27.522  54.239  1.00  0.00     0.322 C 
HETATM    9  N   UNL     1       6.571  26.747  55.188  1.00  0.00    -0.337 N 
HETATM   10  O   UNL     1       7.152  27.236  53.043  1.00  0.00    -0.247 OA
HETATM   11  H   UNL     1       6.399  27.180  56.089  1.00  0.00     0.164 HD
HETATM   12  H   UNL     1       8.212  29.144  53.864  1.00  0.00     0.172 HD
BRANCH   9  13
HETATM   13  C   UNL     1       5.760  25.614  54.810  1.00  0.00     0.189 C 
BRANCH  13  14
HETATM   14  C   UNL     1       6.603  24.402  54.680  1.00  0.00     0.070 A 
HETATM   15  O   UNL     1       6.721  23.880  53.424  1.00  0.00    -0.325 OA
HETATM   16  C   UNL     1       7.547  22.806  53.513  1.00  0.00     0.142 A 
HETATM   17  C   UNL     1       7.966  22.627  54.810  1.00  0.00     0.027 A 
HETATM   18  C   UNL     1       7.359  23.659  55.566  1.00  0.00     0.036 A 
ENDBRANCH  13  14
ENDBRANCH   9  13
ENDBRANCH   4   7
BRANCH   1  19
HETATM   19  C   UNL     1       8.239  30.981  59.735  1.00  0.00    -0.006 A 
HETATM   20  C   UNL     1       9.182  30.560  60.692  1.00  0.00     0.014 A 
HETATM   21  C   UNL     1       9.253  31.155  61.955  1.00  0.00     0.001 A 
HETATM   22  C   UNL     1       8.375  32.181  62.293  1.00  0.00     0.000 A 
HETATM   23  C   UNL     1       7.426  32.609  61.371  1.00  0.00     0.001 A 
HETATM   24  C   UNL     1       7.359  32.015  60.107  1.00  0.00     0.014 A 
ENDBRANCH   1  19
TORSDOF 4
ENDMDL
MODEL 8
REMARK VINA RESULT:      -7.6      7.758     12.195
REMARK  4 active torsions:
REMARK  status: ('A' for Active; 'I' for Inactive)
REMARK    1  A    between atoms: C_4  and  C_5 
REMARK    2  A    between atoms: C_8  and  N_9 
REMARK       I    between atoms: N_9  and  C_10 
REMARK       I    between atoms: C_10  and  N_11 
REMARK    3  A    between atoms: N_11  and  C_12 
REMARK    4  A    between atoms: C_12  and  C_13 
ROOT
HETATM    1  C   UNL     1       4.673  33.735  65.155  1.00  0.00     0.089 A 
HETATM    2  N   UNL     1       5.155  32.678  64.461  1.00  0.00    -0.148 NA
HETATM    3  N   UNL     1       4.645  32.359  63.217  1.00  0.00    -0.131 NA
HETATM    4  C   UNL     1       3.668  33.104  62.668  1.00  0.00     0.153 A 
HETATM    5  C   UNL     1       3.161  34.201  63.344  1.00  0.00     0.055 A 
HETATM    6  C   UNL     1       3.670  34.521  64.603  1.00  0.00     0.038 A 
ENDROOT
BRANCH   4   7
HETATM    7  N   UNL     1       3.123  32.796  61.421  1.00  0.00    -0.292 N 
HETATM    8  C   UNL     1       3.743  32.496  60.252  1.00  0.00     0.322 C 
HETATM    9  N   UNL     1       5.098  32.540  60.217  1.00  0.00    -0.337 N 
HETATM   10  O   UNL     1       3.053  32.215  59.273  1.00  0.00    -0.247 OA
HETATM   11  H   UNL     1       5.579  32.524  61.109  1.00  0.00     0.164 HD
HETATM   12  H   UNL     1       2.117  32.764  61.337  1.00  0.00     0.172 HD
BRANCH   9  13
HETATM   13  C   UNL     1       5.814  32.089  59.047  1.00  0.00     0.189 C 
BRANCH  13  14
HETATM   14  C   UNL     1       7.262  31.977  59.345  1.00  0.00     0.070 A 
HETATM   15  O   UNL     1       8.045  31.458  58.353  1.00  0.00    -0.325 OA
HETATM   16  C   UNL     1       9.324  31.467  58.807  1.00  0.00     0.142 A 
HETATM   17  C   UNL     1       9.380  31.986  60.078  1.00  0.00     0.027 A 
HETATM   18  C   UNL     1       8.049  32.318  60.428  1.00  0.00     0.036 A 
ENDBRANCH  13  14
ENDBRANCH   9  13
ENDBRANCH   4   7
BRANCH   1  19
HETATM   19  C   UNL     1       5.270  33.991  66.477  1.00  0.00    -0.006 A 
HETATM   20  C   UNL     1       6.663  34.130  66.625  1.00  0.00     0.014 A 
HETATM   21  C   UNL     1       7.242  34.388  67.871  1.00  0.00     0.001 A 
HETATM   22  C   UNL     1       6.438  34.505  69.001  1.00  0.00     0.000 A 
HETATM   23  C   UNL     1       5.059  34.361  68.886  1.00  0.00     0.001 A 
HETATM   24  C   UNL     1       4.482  34.107  67.638  1.00  0.00     0.014 A 
ENDBRANCH   1  19
TORSDOF 4
ENDMDL
MODEL 9
REMARK VINA RESULT:      -7.5      3.753      6.607
REMARK  4 active torsions:
REMARK  status: ('A' for Active; 'I' for Inactive)
REMARK    1  A    between atoms: C_4  and  C_5 
REMARK    2  A    between atoms: C_8  and  N_9 
REMARK       I    between atoms: N_9  and  C_10 
REMARK       I    between atoms: C_10  and  N_11 
REMARK    3  A    between atoms: N_11  and  C_12 
REMARK    4  A    between atoms: C_12  and  C_13 
ROOT
HETATM    1  C   UNL     1       5.802  27.193  52.532  1.00  0.00     0.089 A 
HETATM    2  N   UNL     1       5.266  26.197  53.273  1.00  0.00    -0.148 NA
HETATM    3  N   UNL     1       5.608  26.044  54.604  1.00  0.00    -0.131 NA
HETATM    4  C   UNL     1       6.471  26.894  55.189  1.00  0.00     0.153 A 
HETATM    5  C   UNL     1       7.029  27.934  54.463  1.00  0.00     0.055 A 
HETATM    6  C   UNL     1       6.689  28.086  53.118  1.00  0.00     0.038 A 
ENDROOT
BRANCH   4   7
HETATM    7  N   UNL     1       6.848  26.755  56.524  1.00  0.00    -0.292 N 
HETATM    8  C   UNL     1       7.512  25.743  57.138  1.00  0.00     0.322 C 
HETATM    9  N   UNL     1       7.837  24.651  56.402  1.00  0.00    -0.337 N 
HETATM   10  O   UNL     1       7.775  25.849  58.335  1.00  0.00    -0.247 OA
HETATM   11  H   UNL     1       7.816  24.758  55.393  1.00  0.00     0.164 HD
HETATM   12  H   UNL     1       6.625  27.505  57.163  1.00  0.00     0.172 HD
BRANCH   9  13
HETATM   13  C   UNL     1       8.671  23.614  56.961  1.00  0.00     0.189 C 
BRANCH  13  14
HETATM   14  C   UNL     1       8.563  22.377  56.150  1.00  0.00     0.070 A 
HETATM   15  O   UNL     1       8.978  22.468  54.852  1.00  0.00    -0.325 OA
HETATM   16  C   UNL     1       8.827  21.238  54.298  1.00  0.00     0.142 A 
HETATM   17  C   UNL     1       8.321  20.353  55.220  1.00  0.00     0.027 A 
HETATM   18  C   UNL     1       8.152  21.086  56.419  1.00  0.00     0.036 A 
ENDBRANCH  13  14
ENDBRANCH   9  13
ENDBRANCH   4   7
BRANCH   1  19
HETATM   19  C   UNL     1       5.387  27.270  51.121  1.00  0.00    -0.006 A 
HETATM   20  C   UNL     1       4.890  26.135  50.452  1.00  0.00     0.014 A 
HETATM   21  C   UNL     1       4.478  26.198  49.118  1.00  0.00     0.001 A 
HETATM   22  C   UNL     1       4.562  27.399  48.419  1.00  0.00     0.000 A 
HETATM   23  C   UNL     1       5.059  28.533  49.051  1.00  0.00     0.001 A 
HETATM   24  C   UNL     1       5.467  28.469  50.387  1.00  0.00     0.014 A 
ENDBRANCH   1  19
TORSDOF 4
ENDMDL
MODEL 10
REMARK VINA RESULT:      -7.5     10.018     14.484
REMARK  4 active torsions:
REMARK  status: ('A' for Active; 'I' for Inactive)
REMARK    1  A    between atoms: C_4  and  C_5 
REMARK    2  A    between atoms: C_8  and  N_9 
REMARK       I    between atoms: N_9  and  C_10 
REMARK       I    between atoms: C_10  and  N_11 
REMARK    3  A    between atoms: N_11  and  C_12 
REMARK    4  A    between atoms: C_12  and  C_13 
ROOT
HETATM    1  C   UNL     1       6.340  34.439  68.354  1.00  0.00     0.089 A 
HETATM    2  N   UNL     1       7.002  34.205  67.198  1.00  0.00    -0.148 NA
HETATM    3  N   UNL     1       6.314  33.885  66.042  1.00  0.00    -0.131 NA
HETATM    4  C   UNL     1       4.971  33.813  66.046  1.00  0.00     0.153 A 
HETATM    5  C   UNL     1       4.260  34.060  67.208  1.00  0.00     0.055 A 
HETATM    6  C   UNL     1       4.953  34.378  68.377  1.00  0.00     0.038 A 
ENDROOT
BRANCH   4   7
HETATM    7  N   UNL     1       4.251  33.475  64.900  1.00  0.00    -0.292 N 
HETATM    8  C   UNL     1       4.638  33.476  63.599  1.00  0.00     0.322 C 
HETATM    9  N   UNL     1       5.887  33.917  63.303  1.00  0.00    -0.337 N 
HETATM   10  O   UNL     1       3.839  33.098  62.744  1.00  0.00    -0.247 OA
HETATM   11  H   UNL     1       6.549  33.959  64.070  1.00  0.00     0.164 HD
HETATM   12  H   UNL     1       3.298  33.160  65.011  1.00  0.00     0.172 HD
BRANCH   9  13
HETATM   13  C   UNL     1       6.404  33.801  61.960  1.00  0.00     0.189 C 
BRANCH  13  14
HETATM   14  C   UNL     1       7.344  32.659  61.870  1.00  0.00     0.070 A 
HETATM   15  O   UNL     1       7.315  31.944  60.706  1.00  0.00    -0.325 OA
HETATM   16  C   UNL     1       8.258  30.973  60.811  1.00  0.00     0.142 A 
HETATM   17  C   UNL     1       8.897  31.050  62.025  1.00  0.00     0.027 A 
HETATM   18  C   UNL     1       8.310  32.140  62.711  1.00  0.00     0.036 A 
ENDBRANCH  13  14
ENDBRANCH   9  13
ENDBRANCH   4   7
BRANCH   1  19
HETATM   19  C   UNL     1       7.158  34.763  69.535  1.00  0.00    -0.006 A 
HETATM   20  C   UNL     1       7.508  36.095  69.828  1.00  0.00     0.014 A 
HETATM   21  C   UNL     1       8.271  36.417  70.954  1.00  0.00     0.001 A 
HETATM   22  C   UNL     1       8.709  35.411  71.810  1.00  0.00     0.000 A 
HETATM   23  C   UNL     1       8.388  34.085  71.539  1.00  0.00     0.001 A 
HETATM   24  C   UNL     1       7.621  33.765  70.414  1.00  0.00     0.014 A 
ENDBRANCH   1  19
TORSDOF 4
ENDMDL
