MODEL 1
REMARK VINA RESULT:     -10.5      0.000      0.000
REMARK  7 active torsions:
REMARK  status: ('A' for Active; 'I' for Inactive)
REMARK    1  A    between atoms: N_7  and  C_8 
REMARK    2  A    between atoms: C_8  and  C_9 
REMARK       I    between atoms: C_9  and  N_10 
REMARK    3  A    between atoms: N_10  and  C_11 
REMARK    4  A    between atoms: C_11  and  C_12 
REMARK    5  A    between atoms: C_12  and  C_13 
REMARK    6  A    between atoms: C_12  and  C_23 
REMARK    7  A    between atoms: C_26  and  O_27 
ROOT
HETATM    1  C   UNL     1       7.914  28.632  54.658  1.00  0.00     0.136 C 
ENDROOT
BRANCH   1   2
HETATM    2  N   UNL     1       8.748  28.559  55.855  1.00  0.00    -0.359 N 
HETATM    3  C   UNL     1       9.806  29.454  55.937  1.00  0.00     0.236 C 
HETATM    4  O   UNL     1      10.183  30.107  54.964  1.00  0.00    -0.272 OA
HETATM    5  H   UNL     1       8.306  28.278  56.730  1.00  0.00     0.162 HD
BRANCH   3   6
HETATM    6  C   UNL     1      10.323  29.766  57.334  1.00  0.00     0.239 C 
BRANCH   6   7
HETATM    7  N   UNL     1       9.328  30.212  58.278  1.00  0.00    -0.259 N 
HETATM    8  C   UNL     1       8.367  29.402  58.803  1.00  0.00     0.326 C 
HETATM    9  N   UNL     1       7.706  30.095  59.792  1.00  0.00    -0.324 N 
HETATM   10  O   UNL     1       8.123  28.245  58.511  1.00  0.00    -0.247 OA
HETATM   11  C   UNL     1       8.379  31.333  60.127  1.00  0.00     0.119 C 
HETATM   12  H   UNL     1       7.043  29.606  60.381  1.00  0.00     0.165 HD
HETATM   13  C   UNL     1       7.425  32.534  60.261  1.00  0.00     0.019 C 
HETATM   14  C   UNL     1       9.346  31.415  58.925  1.00  0.00     0.257 C 
HETATM   15  C   UNL     1       9.244  31.148  61.391  1.00  0.00     0.041 C 
HETATM   16  C   UNL     1       6.484  32.697  59.063  1.00  0.00     0.013 C 
HETATM   17  C   UNL     1       6.599  32.441  61.559  1.00  0.00     0.007 C 
HETATM   18  C   UNL     1       7.479  32.268  62.794  1.00  0.00     0.001 C 
HETATM   19  C   UNL     1       8.407  31.068  62.664  1.00  0.00     0.003 C 
HETATM   20  O   UNL     1      10.084  32.352  58.650  1.00  0.00    -0.270 OA
ENDBRANCH   6   7
ENDBRANCH   3   6
ENDBRANCH   1   2
BRANCH   1  21
HETATM   21  C   UNL     1       6.471  28.098  54.780  1.00  0.00     0.071 C 
BRANCH  21  22
HETATM   22  C   UNL     1       6.455  26.592  54.981  1.00  0.00    -0.020 A 
HETATM   23  C   UNL     1       6.989  25.593  54.094  1.00  0.00    -0.001 A 
HETATM   24  C   UNL     1       6.746  24.343  54.668  1.00  0.00     0.042 A 
HETATM   25  C   UNL     1       7.662  25.633  52.854  1.00  0.00     0.014 A 
HETATM   26  C   UNL     1       7.139  23.139  54.071  1.00  0.00     0.030 A 
HETATM   27  N   UNL     1       6.090  24.561  55.853  1.00  0.00    -0.365 N 
HETATM   28  C   UNL     1       7.807  23.210  52.846  1.00  0.00     0.002 A 
HETATM   29  C   UNL     1       8.066  24.438  52.244  1.00  0.00     0.001 A 
HETATM   30  H   UNL     1       5.788  23.832  56.484  1.00  0.00     0.165 HD
HETATM   31  C   UNL     1       5.909  25.901  56.053  1.00  0.00     0.097 A 
ENDBRANCH  21  22
BRANCH  21  32
HETATM   32  C   UNL     1       5.547  28.323  53.588  1.00  0.00    -0.048 A 
HETATM   33  C   UNL     1       4.158  28.214  53.772  1.00  0.00     0.011 A 
HETATM   34  C   UNL     1       3.277  28.369  52.698  1.00  0.00     0.037 A 
HETATM   35  C   UNL     1       3.758  28.636  51.416  1.00  0.00     0.068 A 
HETATM   36  C   UNL     1       5.133  28.750  51.220  1.00  0.00     0.037 A 
HETATM   37  C   UNL     1       6.019  28.592  52.294  1.00  0.00     0.011 A 
BRANCH  35  38
HETATM   38  O   UNL     1       2.792  28.753  50.456  1.00  0.00    -0.356 OA
HETATM   39  C   UNL     1       3.060  28.149  49.198  1.00  0.00     0.210 C 
ENDBRANCH  35  38
ENDBRANCH  21  32
ENDBRANCH   1  21
TORSDOF 7
ENDMDL
MODEL 2
REMARK VINA RESULT:     -10.3      3.419      6.187
REMARK  7 active torsions:
REMARK  status: ('A' for Active; 'I' for Inactive)
REMARK    1  A    between atoms: N_7  and  C_8 
REMARK    2  A    between atoms: C_8  and  C_9 
REMARK       I    between atoms: C_9  and  N_10 
REMARK    3  A    between atoms: N_10  and  C_11 
REMARK    4  A    between atoms: C_11  and  C_12 
REMARK    5  A    between atoms: C_12  and  C_13 
REMARK    6  A    between atoms: C_12  and  C_23 
REMARK    7  A    between atoms: C_26  and  O_27 
ROOT
HETATM    1  C   UNL     1       5.423  27.977  56.825  1.00  0.00     0.136 C 
ENDROOT
BRANCH   1   2
HETATM    2  N   UNL     1       4.707  29.032  57.537  1.00  0.00    -0.359 N 
HETATM    3  C   UNL     1       4.734  30.299  56.970  1.00  0.00     0.236 C 
HETATM    4  O   UNL     1       5.511  30.588  56.059  1.00  0.00    -0.272 OA
HETATM    5  H   UNL     1       3.872  28.774  58.062  1.00  0.00     0.162 HD
BRANCH   3   6
HETATM    6  C   UNL     1       3.603  31.240  57.359  1.00  0.00     0.239 C 
BRANCH   6   7
HETATM    7  N   UNL     1       3.783  31.945  58.604  1.00  0.00    -0.259 N 
HETATM    8  C   UNL     1       3.293  31.510  59.797  1.00  0.00     0.326 C 
HETATM    9  N   UNL     1       3.794  32.316  60.795  1.00  0.00    -0.324 N 
HETATM   10  O   UNL     1       2.568  30.554  60.004  1.00  0.00    -0.247 OA
HETATM   11  C   UNL     1       4.847  33.184  60.310  1.00  0.00     0.119 C 
HETATM   12  H   UNL     1       3.638  32.062  61.763  1.00  0.00     0.165 HD
HETATM   13  C   UNL     1       4.718  34.638  60.799  1.00  0.00     0.019 C 
HETATM   14  C   UNL     1       4.632  32.998  58.791  1.00  0.00     0.257 C 
HETATM   15  C   UNL     1       6.231  32.590  60.646  1.00  0.00     0.041 C 
HETATM   16  C   UNL     1       3.327  35.235  60.565  1.00  0.00     0.013 C 
HETATM   17  C   UNL     1       5.085  34.754  62.291  1.00  0.00     0.007 C 
HETATM   18  C   UNL     1       6.462  34.168  62.595  1.00  0.00     0.001 C 
HETATM   19  C   UNL     1       6.578  32.723  62.126  1.00  0.00     0.003 C 
HETATM   20  O   UNL     1       5.199  33.614  57.898  1.00  0.00    -0.270 OA
ENDBRANCH   6   7
ENDBRANCH   3   6
ENDBRANCH   1   2
BRANCH   1  21
HETATM   21  C   UNL     1       6.761  27.508  57.436  1.00  0.00     0.071 C 
BRANCH  21  22
HETATM   22  C   UNL     1       7.902  28.429  57.037  1.00  0.00    -0.020 A 
HETATM   23  C   UNL     1       8.537  29.427  57.855  1.00  0.00    -0.001 A 
HETATM   24  C   UNL     1       9.526  30.041  57.083  1.00  0.00     0.042 A 
HETATM   25  C   UNL     1       8.368  29.866  59.185  1.00  0.00     0.014 A 
HETATM   26  C   UNL     1      10.349  31.064  57.569  1.00  0.00     0.030 A 
HETATM   27  N   UNL     1       9.499  29.451  55.844  1.00  0.00    -0.365 N 
HETATM   28  C   UNL     1      10.160  31.476  58.890  1.00  0.00     0.002 A 
HETATM   29  C   UNL     1       9.185  30.886  59.689  1.00  0.00     0.001 A 
HETATM   30  H   UNL     1      10.110  29.698  55.078  1.00  0.00     0.165 HD
HETATM   31  C   UNL     1       8.533  28.485  55.802  1.00  0.00     0.097 A 
ENDBRANCH  21  22
BRANCH  21  32
HETATM   32  C   UNL     1       7.251  26.118  57.045  1.00  0.00    -0.048 A 
HETATM   33  C   UNL     1       6.560  25.405  56.051  1.00  0.00     0.011 A 
HETATM   34  C   UNL     1       6.949  24.111  55.694  1.00  0.00     0.037 A 
HETATM   35  C   UNL     1       8.035  23.497  56.316  1.00  0.00     0.068 A 
HETATM   36  C   UNL     1       8.733  24.195  57.301  1.00  0.00     0.037 A 
HETATM   37  C   UNL     1       8.343  25.490  57.665  1.00  0.00     0.011 A 
BRANCH  35  38
HETATM   38  O   UNL     1       8.302  22.229  55.881  1.00  0.00    -0.356 OA
HETATM   39  C   UNL     1       8.365  21.210  56.870  1.00  0.00     0.210 C 
ENDBRANCH  35  38
ENDBRANCH  21  32
ENDBRANCH   1  21
TORSDOF 7
ENDMDL
MODEL 3
REMARK VINA RESULT:     -10.2      2.586      8.341
REMARK  7 active torsions:
REMARK  status: ('A' for Active; 'I' for Inactive)
REMARK    1  A    between atoms: N_7  and  C_8 
REMARK    2  A    between atoms: C_8  and  C_9 
REMARK       I    between atoms: C_9  and  N_10 
REMARK    3  A    between atoms: N_10  and  C_11 
REMARK    4  A    between atoms: C_11  and  C_12 
REMARK    5  A    between atoms: C_12  and  C_13 
REMARK    6  A    between atoms: C_12  and  C_23 
REMARK    7  A    between atoms: C_26  and  O_27 
ROOT
HETATM    1  C   UNL     1       4.698  27.686  55.530  1.00  0.00     0.136 C 
ENDROOT
BRANCH   1   2
HETATM    2  N   UNL     1       3.888  28.297  54.479  1.00  0.00    -0.359 N 
HETATM    3  C   UNL     1       3.926  29.682  54.386  1.00  0.00     0.236 C 
HETATM    4  O   UNL     1       4.408  30.382  55.278  1.00  0.00    -0.272 OA
HETATM    5  H   UNL     1       3.752  27.776  53.614  1.00  0.00     0.162 HD
BRANCH   3   6
HETATM    6  C   UNL     1       3.562  30.281  53.036  1.00  0.00     0.239 C 
BRANCH   6   7
HETATM    7  N   UNL     1       3.677  29.387  51.910  1.00  0.00    -0.259 N 
HETATM    8  C   UNL     1       2.628  29.023  51.123  1.00  0.00     0.326 C 
HETATM    9  N   UNL     1       3.115  28.314  50.048  1.00  0.00    -0.324 N 
HETATM   10  O   UNL     1       1.450  29.289  51.277  1.00  0.00    -0.247 OA
HETATM   11  C   UNL     1       4.559  28.391  49.958  1.00  0.00     0.119 C 
HETATM   12  H   UNL     1       2.490  28.072  49.289  1.00  0.00     0.165 HD
HETATM   13  C   UNL     1       5.230  27.036  49.673  1.00  0.00     0.019 C 
HETATM   14  C   UNL     1       4.856  28.970  51.360  1.00  0.00     0.257 C 
HETATM   15  C   UNL     1       4.977  29.462  48.930  1.00  0.00     0.041 C 
HETATM   16  C   UNL     1       4.772  25.921  50.618  1.00  0.00     0.013 C 
HETATM   17  C   UNL     1       4.999  26.602  48.212  1.00  0.00     0.007 C 
HETATM   18  C   UNL     1       5.430  27.675  47.215  1.00  0.00     0.001 C 
HETATM   19  C   UNL     1       4.749  29.009  47.491  1.00  0.00     0.003 C 
HETATM   20  O   UNL     1       5.962  29.129  51.859  1.00  0.00    -0.270 OA
ENDBRANCH   6   7
ENDBRANCH   3   6
ENDBRANCH   1   2
BRANCH   1  21
HETATM   21  C   UNL     1       6.197  27.479  55.223  1.00  0.00     0.071 C 
BRANCH  21  22
HETATM   22  C   UNL     1       6.595  26.019  55.375  1.00  0.00    -0.020 A 
HETATM   23  C   UNL     1       7.109  25.150  54.351  1.00  0.00    -0.001 A 
HETATM   24  C   UNL     1       7.327  23.897  54.929  1.00  0.00     0.042 A 
HETATM   25  C   UNL     1       7.415  25.310  52.983  1.00  0.00     0.014 A 
HETATM   26  C   UNL     1       7.833  22.805  54.216  1.00  0.00     0.030 A 
HETATM   27  N   UNL     1       6.961  23.990  56.249  1.00  0.00    -0.365 N 
HETATM   28  C   UNL     1       8.130  22.994  52.864  1.00  0.00     0.002 A 
HETATM   29  C   UNL     1       7.926  24.228  52.254  1.00  0.00     0.001 A 
HETATM   30  H   UNL     1       7.014  23.230  56.913  1.00  0.00     0.165 HD
HETATM   31  C   UNL     1       6.521  25.253  56.529  1.00  0.00     0.097 A 
ENDBRANCH  21  22
BRANCH  21  32
HETATM   32  C   UNL     1       7.194  28.228  56.101  1.00  0.00    -0.048 A 
HETATM   33  C   UNL     1       6.816  28.591  57.405  1.00  0.00     0.011 A 
HETATM   34  C   UNL     1       7.682  29.317  58.227  1.00  0.00     0.037 A 
HETATM   35  C   UNL     1       8.943  29.697  57.772  1.00  0.00     0.068 A 
HETATM   36  C   UNL     1       9.333  29.341  56.482  1.00  0.00     0.037 A 
HETATM   37  C   UNL     1       8.466  28.616  55.653  1.00  0.00     0.011 A 
BRANCH  35  38
HETATM   38  O   UNL     1       9.685  30.411  58.672  1.00  0.00    -0.356 OA
HETATM   39  C   UNL     1       9.055  30.746  59.901  1.00  0.00     0.210 C 
ENDBRANCH  35  38
ENDBRANCH  21  32
ENDBRANCH   1  21
TORSDOF 7
ENDMDL
MODEL 4
REMARK VINA RESULT:     -10.1      3.925      7.782
REMARK  7 active torsions:
REMARK  status: ('A' for Active; 'I' for Inactive)
REMARK    1  A    between atoms: N_7  and  C_8 
REMARK    2  A    between atoms: C_8  and  C_9 
REMARK       I    between atoms: C_9  and  N_10 
REMARK    3  A    between atoms: N_10  and  C_11 
REMARK    4  A    between atoms: C_11  and  C_12 
REMARK    5  A    between atoms: C_12  and  C_13 
REMARK    6  A    between atoms: C_12  and  C_23 
REMARK    7  A    between atoms: C_26  and  O_27 
ROOT
HETATM    1  C   UNL     1       5.146  25.304  52.075  1.00  0.00     0.136 C 
ENDROOT
BRANCH   1   2
HETATM    2  N   UNL     1       4.626  26.593  51.627  1.00  0.00    -0.359 N 
HETATM    3  C   UNL     1       4.787  26.901  50.283  1.00  0.00     0.236 C 
HETATM    4  O   UNL     1       5.537  26.252  49.552  1.00  0.00    -0.272 OA
HETATM    5  H   UNL     1       3.799  26.964  52.094  1.00  0.00     0.162 HD
BRANCH   3   6
HETATM    6  C   UNL     1       3.821  27.921  49.700  1.00  0.00     0.239 C 
BRANCH   6   7
HETATM    7  N   UNL     1       3.566  29.076  50.526  1.00  0.00    -0.259 N 
HETATM    8  C   UNL     1       2.325  29.447  50.945  1.00  0.00     0.326 C 
HETATM    9  N   UNL     1       2.459  30.474  51.851  1.00  0.00    -0.324 N 
HETATM   10  O   UNL     1       1.253  28.958  50.633  1.00  0.00    -0.247 OA
HETATM   11  C   UNL     1       3.837  30.663  52.254  1.00  0.00     0.119 C 
HETATM   12  H   UNL     1       1.646  30.791  52.365  1.00  0.00     0.165 HD
HETATM   13  C   UNL     1       4.275  32.139  52.275  1.00  0.00     0.019 C 
HETATM   14  C   UNL     1       4.525  29.808  51.165  1.00  0.00     0.257 C 
HETATM   15  C   UNL     1       4.102  29.970  53.606  1.00  0.00     0.041 C 
HETATM   16  C   UNL     1       3.946  32.887  50.980  1.00  0.00     0.013 C 
HETATM   17  C   UNL     1       3.652  32.882  53.474  1.00  0.00     0.007 C 
HETATM   18  C   UNL     1       3.936  32.181  54.800  1.00  0.00     0.001 C 
HETATM   19  C   UNL     1       3.485  30.726  54.779  1.00  0.00     0.003 C 
HETATM   20  O   UNL     1       5.730  29.715  50.970  1.00  0.00    -0.270 OA
ENDBRANCH   6   7
ENDBRANCH   3   6
ENDBRANCH   1   2
BRANCH   1  21
HETATM   21  C   UNL     1       5.637  25.220  53.536  1.00  0.00     0.071 C 
BRANCH  21  22
HETATM   22  C   UNL     1       6.360  26.493  53.949  1.00  0.00    -0.020 A 
HETATM   23  C   UNL     1       6.078  27.316  55.095  1.00  0.00    -0.001 A 
HETATM   24  C   UNL     1       6.977  28.385  55.079  1.00  0.00     0.042 A 
HETATM   25  C   UNL     1       5.144  27.251  56.151  1.00  0.00     0.014 A 
HETATM   26  C   UNL     1       6.991  29.386  56.057  1.00  0.00     0.030 A 
HETATM   27  N   UNL     1       7.773  28.230  53.972  1.00  0.00    -0.365 N 
HETATM   28  C   UNL     1       6.057  29.294  57.092  1.00  0.00     0.002 A 
HETATM   29  C   UNL     1       5.146  28.243  57.141  1.00  0.00     0.001 A 
HETATM   30  H   UNL     1       8.517  28.861  53.708  1.00  0.00     0.165 HD
HETATM   31  C   UNL     1       7.415  27.102  53.287  1.00  0.00     0.097 A 
ENDBRANCH  21  22
BRANCH  21  32
HETATM   32  C   UNL     1       6.625  24.108  53.872  1.00  0.00    -0.048 A 
HETATM   33  C   UNL     1       6.886  23.812  55.221  1.00  0.00     0.011 A 
HETATM   34  C   UNL     1       7.816  22.831  55.574  1.00  0.00     0.037 A 
HETATM   35  C   UNL     1       8.507  22.121  54.593  1.00  0.00     0.068 A 
HETATM   36  C   UNL     1       8.255  22.401  53.251  1.00  0.00     0.037 A 
HETATM   37  C   UNL     1       7.326  23.387  52.894  1.00  0.00     0.011 A 
BRANCH  35  38
HETATM   38  O   UNL     1       9.395  21.198  55.073  1.00  0.00    -0.356 OA
HETATM   39  C   UNL     1       9.039  20.531  56.277  1.00  0.00     0.210 C 
ENDBRANCH  35  38
ENDBRANCH  21  32
ENDBRANCH   1  21
TORSDOF 7
ENDMDL
MODEL 5
REMARK VINA RESULT:     -10.0      2.665      9.365
REMARK  7 active torsions:
REMARK  status: ('A' for Active; 'I' for Inactive)
REMARK    1  A    between atoms: N_7  and  C_8 
REMARK    2  A    between atoms: C_8  and  C_9 
REMARK       I    between atoms: C_9  and  N_10 
REMARK    3  A    between atoms: N_10  and  C_11 
REMARK    4  A    between atoms: C_11  and  C_12 
REMARK    5  A    between atoms: C_12  and  C_13 
REMARK    6  A    between atoms: C_12  and  C_23 
REMARK    7  A    between atoms: C_26  and  O_27 
ROOT
HETATM    1  C   UNL     1       5.896  28.013  54.337  1.00  0.00     0.136 C 
ENDROOT
BRANCH   1   2
HETATM    2  N   UNL     1       5.859  28.973  53.238  1.00  0.00    -0.359 N 
HETATM    3  C   UNL     1       5.742  28.453  51.956  1.00  0.00     0.236 C 
HETATM    4  O   UNL     1       5.907  27.255  51.722  1.00  0.00    -0.272 OA
HETATM    5  H   UNL     1       5.436  29.885  53.411  1.00  0.00     0.162 HD
BRANCH   3   6
HETATM    6  C   UNL     1       5.170  29.383  50.896  1.00  0.00     0.239 C 
BRANCH   6   7
HETATM    7  N   UNL     1       4.062  28.853  50.139  1.00  0.00    -0.259 N 
HETATM    8  C   UNL     1       2.815  28.669  50.653  1.00  0.00     0.326 C 
HETATM    9  N   UNL     1       1.967  28.323  49.625  1.00  0.00    -0.324 N 
HETATM   10  O   UNL     1       2.452  28.814  51.806  1.00  0.00    -0.247 OA
HETATM   11  C   UNL     1       2.587  28.503  48.328  1.00  0.00     0.119 C 
HETATM   12  H   UNL     1       0.970  28.272  49.800  1.00  0.00     0.165 HD
HETATM   13  C   UNL     1       2.354  27.324  47.366  1.00  0.00     0.019 C 
HETATM   14  C   UNL     1       4.053  28.676  48.785  1.00  0.00     0.257 C 
HETATM   15  C   UNL     1       2.147  29.844  47.705  1.00  0.00     0.041 C 
HETATM   16  C   UNL     1       2.693  25.963  47.982  1.00  0.00     0.013 C 
HETATM   17  C   UNL     1       0.901  27.311  46.852  1.00  0.00     0.007 C 
HETATM   18  C   UNL     1       0.494  28.645  46.231  1.00  0.00     0.001 C 
HETATM   19  C   UNL     1       0.710  29.805  47.194  1.00  0.00     0.003 C 
HETATM   20  O   UNL     1       5.035  28.748  48.057  1.00  0.00    -0.270 OA
ENDBRANCH   6   7
ENDBRANCH   3   6
ENDBRANCH   1   2
BRANCH   1  21
HETATM   21  C   UNL     1       7.285  27.668  54.915  1.00  0.00     0.071 C 
BRANCH  21  22
HETATM   22  C   UNL     1       7.329  26.238  55.429  1.00  0.00    -0.020 A 
HETATM   23  C   UNL     1       7.555  25.046  54.657  1.00  0.00    -0.001 A 
HETATM   24  C   UNL     1       7.500  23.958  55.532  1.00  0.00     0.042 A 
HETATM   25  C   UNL     1       7.805  24.787  53.293  1.00  0.00     0.014 A 
HETATM   26  C   UNL     1       7.683  22.634  55.116  1.00  0.00     0.030 A 
HETATM   27  N   UNL     1       7.249  24.457  56.785  1.00  0.00    -0.365 N 
HETATM   28  C   UNL     1       7.933  22.408  53.760  1.00  0.00     0.002 A 
HETATM   29  C   UNL     1       7.994  23.468  52.860  1.00  0.00     0.001 A 
HETATM   30  H   UNL     1       7.159  23.894  57.619  1.00  0.00     0.165 HD
HETATM   31  C   UNL     1       7.144  25.820  56.739  1.00  0.00     0.097 A 
ENDBRANCH  21  22
BRANCH  21  32
HETATM   32  C   UNL     1       7.771  28.502  56.096  1.00  0.00    -0.048 A 
HETATM   33  C   UNL     1       9.149  28.728  56.250  1.00  0.00     0.011 A 
HETATM   34  C   UNL     1       9.640  29.449  57.342  1.00  0.00     0.037 A 
HETATM   35  C   UNL     1       8.772  29.962  58.304  1.00  0.00     0.068 A 
HETATM   36  C   UNL     1       7.402  29.749  58.162  1.00  0.00     0.037 A 
HETATM   37  C   UNL     1       6.906  29.024  57.070  1.00  0.00     0.011 A 
BRANCH  35  38
HETATM   38  O   UNL     1       9.383  30.638  59.324  1.00  0.00    -0.356 OA
HETATM   39  C   UNL     1       8.733  30.617  60.588  1.00  0.00     0.210 C 
ENDBRANCH  35  38
ENDBRANCH  21  32
ENDBRANCH   1  21
TORSDOF 7
ENDMDL
MODEL 6
REMARK VINA RESULT:      -9.7      3.858      7.905
REMARK  7 active torsions:
REMARK  status: ('A' for Active; 'I' for Inactive)
REMARK    1  A    between atoms: N_7  and  C_8 
REMARK    2  A    between atoms: C_8  and  C_9 
REMARK       I    between atoms: C_9  and  N_10 
REMARK    3  A    between atoms: N_10  and  C_11 
REMARK    4  A    between atoms: C_11  and  C_12 
REMARK    5  A    between atoms: C_12  and  C_13 
REMARK    6  A    between atoms: C_12  and  C_23 
REMARK    7  A    between atoms: C_26  and  O_27 
ROOT
HETATM    1  C   UNL     1       5.378  25.627  52.057  1.00  0.00     0.136 C 
ENDROOT
BRANCH   1   2
HETATM    2  N   UNL     1       5.253  26.982  51.527  1.00  0.00    -0.359 N 
HETATM    3  C   UNL     1       4.934  27.101  50.181  1.00  0.00     0.236 C 
HETATM    4  O   UNL     1       4.992  26.142  49.411  1.00  0.00    -0.272 OA
HETATM    5  H   UNL     1       4.914  27.712  52.152  1.00  0.00     0.162 HD
BRANCH   3   6
HETATM    6  C   UNL     1       4.284  28.408  49.751  1.00  0.00     0.239 C 
BRANCH   6   7
HETATM    7  N   UNL     1       4.271  29.451  50.748  1.00  0.00    -0.259 N 
HETATM    8  C   UNL     1       5.229  30.413  50.848  1.00  0.00     0.326 C 
HETATM    9  N   UNL     1       4.819  31.340  51.779  1.00  0.00    -0.324 N 
HETATM   10  O   UNL     1       6.265  30.504  50.216  1.00  0.00    -0.247 OA
HETATM   11  C   UNL     1       3.436  31.147  52.162  1.00  0.00     0.119 C 
HETATM   12  H   UNL     1       5.348  32.196  51.892  1.00  0.00     0.165 HD
HETATM   13  C   UNL     1       3.200  31.237  53.681  1.00  0.00     0.019 C 
HETATM   14  C   UNL     1       3.214  29.740  51.563  1.00  0.00     0.257 C 
HETATM   15  C   UNL     1       2.523  32.118  51.385  1.00  0.00     0.041 C 
HETATM   16  C   UNL     1       4.151  30.355  54.495  1.00  0.00     0.013 C 
HETATM   17  C   UNL     1       3.303  32.696  54.170  1.00  0.00     0.007 C 
HETATM   18  C   UNL     1       2.383  33.633  53.391  1.00  0.00     0.001 C 
HETATM   19  C   UNL     1       2.633  33.553  51.891  1.00  0.00     0.003 C 
HETATM   20  O   UNL     1       2.220  29.040  51.704  1.00  0.00    -0.270 OA
ENDBRANCH   6   7
ENDBRANCH   3   6
ENDBRANCH   1   2
BRANCH   1  21
HETATM   21  C   UNL     1       5.762  25.493  53.546  1.00  0.00     0.071 C 
BRANCH  21  22
HETATM   22  C   UNL     1       6.557  26.699  54.021  1.00  0.00    -0.020 A 
HETATM   23  C   UNL     1       6.330  27.471  55.213  1.00  0.00    -0.001 A 
HETATM   24  C   UNL     1       7.286  28.489  55.246  1.00  0.00     0.042 A 
HETATM   25  C   UNL     1       5.402  27.399  56.274  1.00  0.00     0.014 A 
HETATM   26  C   UNL     1       7.362  29.432  56.279  1.00  0.00     0.030 A 
HETATM   27  N   UNL     1       8.064  28.353  54.124  1.00  0.00    -0.365 N 
HETATM   28  C   UNL     1       6.433  29.333  57.317  1.00  0.00     0.002 A 
HETATM   29  C   UNL     1       5.466  28.332  57.317  1.00  0.00     0.001 A 
HETATM   30  H   UNL     1       8.839  28.956  53.887  1.00  0.00     0.165 HD
HETATM   31  C   UNL     1       7.639  27.287  53.382  1.00  0.00     0.097 A 
ENDBRANCH  21  22
BRANCH  21  32
HETATM   32  C   UNL     1       6.631  24.301  53.933  1.00  0.00    -0.048 A 
HETATM   33  C   UNL     1       7.234  23.538  52.918  1.00  0.00     0.011 A 
HETATM   34  C   UNL     1       8.002  22.413  53.226  1.00  0.00     0.037 A 
HETATM   35  C   UNL     1       8.189  22.020  54.551  1.00  0.00     0.068 A 
HETATM   36  C   UNL     1       7.600  22.770  55.568  1.00  0.00     0.037 A 
HETATM   37  C   UNL     1       6.827  23.897  55.262  1.00  0.00     0.011 A 
BRANCH  35  38
HETATM   38  O   UNL     1       8.952  20.897  54.712  1.00  0.00    -0.356 OA
HETATM   39  C   UNL     1       9.192  20.470  56.047  1.00  0.00     0.210 C 
ENDBRANCH  35  38
ENDBRANCH  21  32
ENDBRANCH   1  21
TORSDOF 7
ENDMDL
MODEL 7
REMARK VINA RESULT:      -9.7      2.569      8.801
REMARK  7 active torsions:
REMARK  status: ('A' for Active; 'I' for Inactive)
REMARK    1  A    between atoms: N_7  and  C_8 
REMARK    2  A    between atoms: C_8  and  C_9 
REMARK       I    between atoms: C_9  and  N_10 
REMARK    3  A    between atoms: N_10  and  C_11 
REMARK    4  A    between atoms: C_11  and  C_12 
REMARK    5  A    between atoms: C_12  and  C_13 
REMARK    6  A    between atoms: C_12  and  C_23 
REMARK    7  A    between atoms: C_26  and  O_27 
ROOT
HETATM    1  C   UNL     1       5.250  28.636  54.675  1.00  0.00     0.136 C 
ENDROOT
BRANCH   1   2
HETATM    2  N   UNL     1       4.901  29.115  53.340  1.00  0.00    -0.359 N 
HETATM    3  C   UNL     1       4.091  30.241  53.272  1.00  0.00     0.236 C 
HETATM    4  O   UNL     1       3.493  30.674  54.257  1.00  0.00    -0.272 OA
HETATM    5  H   UNL     1       5.579  28.983  52.590  1.00  0.00     0.162 HD
BRANCH   3   6
HETATM    6  C   UNL     1       4.163  31.051  51.986  1.00  0.00     0.239 C 
BRANCH   6   7
HETATM    7  N   UNL     1       4.148  30.281  50.766  1.00  0.00    -0.259 N 
HETATM    8  C   UNL     1       5.215  30.171  49.928  1.00  0.00     0.326 C 
HETATM    9  N   UNL     1       4.920  29.230  48.967  1.00  0.00    -0.324 N 
HETATM   10  O   UNL     1       6.284  30.750  49.999  1.00  0.00    -0.247 OA
HETATM   11  C   UNL     1       3.713  28.495  49.283  1.00  0.00     0.119 C 
HETATM   12  H   UNL     1       5.648  28.924  48.333  1.00  0.00     0.165 HD
HETATM   13  C   UNL     1       2.765  28.325  48.082  1.00  0.00     0.019 C 
HETATM   14  C   UNL     1       3.164  29.404  50.407  1.00  0.00     0.257 C 
HETATM   15  C   UNL     1       4.063  27.140  49.930  1.00  0.00     0.041 C 
HETATM   16  C   UNL     1       2.465  29.640  47.355  1.00  0.00     0.013 C 
HETATM   17  C   UNL     1       3.324  27.296  47.079  1.00  0.00     0.007 C 
HETATM   18  C   UNL     1       3.653  25.961  47.743  1.00  0.00     0.001 C 
HETATM   19  C   UNL     1       4.605  26.134  48.919  1.00  0.00     0.003 C 
HETATM   20  O   UNL     1       2.077  29.299  50.958  1.00  0.00    -0.270 OA
ENDBRANCH   6   7
ENDBRANCH   3   6
ENDBRANCH   1   2
BRANCH   1  21
HETATM   21  C   UNL     1       6.732  28.282  54.923  1.00  0.00     0.071 C 
BRANCH  21  22
HETATM   22  C   UNL     1       6.912  26.791  55.157  1.00  0.00    -0.020 A 
HETATM   23  C   UNL     1       7.256  25.796  54.177  1.00  0.00    -0.001 A 
HETATM   24  C   UNL     1       7.304  24.560  54.828  1.00  0.00     0.042 A 
HETATM   25  C   UNL     1       7.538  25.827  52.795  1.00  0.00     0.014 A 
HETATM   26  C   UNL     1       7.617  23.364  54.172  1.00  0.00     0.030 A 
HETATM   27  N   UNL     1       6.999  24.784  56.147  1.00  0.00    -0.365 N 
HETATM   28  C   UNL     1       7.894  23.426  52.804  1.00  0.00     0.002 A 
HETATM   29  C   UNL     1       7.856  24.640  52.123  1.00  0.00     0.001 A 
HETATM   30  H   UNL     1       6.960  24.065  56.856  1.00  0.00     0.165 HD
HETATM   31  C   UNL     1       6.762  26.114  56.358  1.00  0.00     0.097 A 
ENDBRANCH  21  22
BRANCH  21  32
HETATM   32  C   UNL     1       7.406  28.931  56.127  1.00  0.00    -0.048 A 
HETATM   33  C   UNL     1       8.810  28.975  56.181  1.00  0.00     0.011 A 
HETATM   34  C   UNL     1       9.469  29.520  57.286  1.00  0.00     0.037 A 
HETATM   35  C   UNL     1       8.747  30.034  58.362  1.00  0.00     0.068 A 
HETATM   36  C   UNL     1       7.354  30.001  58.320  1.00  0.00     0.037 A 
HETATM   37  C   UNL     1       6.690  29.452  57.215  1.00  0.00     0.011 A 
BRANCH  35  38
HETATM   38  O   UNL     1       9.513  30.527  59.382  1.00  0.00    -0.356 OA
HETATM   39  C   UNL     1       9.836  31.910  59.332  1.00  0.00     0.210 C 
ENDBRANCH  35  38
ENDBRANCH  21  32
ENDBRANCH   1  21
TORSDOF 7
ENDMDL
MODEL 8
REMARK VINA RESULT:      -9.6      2.772      3.921
REMARK  7 active torsions:
REMARK  status: ('A' for Active; 'I' for Inactive)
REMARK    1  A    between atoms: N_7  and  C_8 
REMARK    2  A    between atoms: C_8  and  C_9 
REMARK       I    between atoms: C_9  and  N_10 
REMARK    3  A    between atoms: N_10  and  C_11 
REMARK    4  A    between atoms: C_11  and  C_12 
REMARK    5  A    between atoms: C_12  and  C_13 
REMARK    6  A    between atoms: C_12  and  C_23 
REMARK    7  A    between atoms: C_26  and  O_27 
ROOT
HETATM    1  C   UNL     1       5.374  26.168  57.203  1.00  0.00     0.136 C 
ENDROOT
BRANCH   1   2
HETATM    2  N   UNL     1       4.931  27.556  57.090  1.00  0.00    -0.359 N 
HETATM    3  C   UNL     1       5.870  28.537  57.378  1.00  0.00     0.236 C 
HETATM    4  O   UNL     1       6.938  28.275  57.932  1.00  0.00    -0.272 OA
HETATM    5  H   UNL     1       4.224  27.778  56.391  1.00  0.00     0.162 HD
BRANCH   3   6
HETATM    6  C   UNL     1       5.626  29.909  56.766  1.00  0.00     0.239 C 
BRANCH   6   7
HETATM    7  N   UNL     1       5.340  30.965  57.706  1.00  0.00    -0.259 N 
HETATM    8  C   UNL     1       6.299  31.712  58.319  1.00  0.00     0.326 C 
HETATM    9  N   UNL     1       5.684  32.735  59.004  1.00  0.00    -0.324 N 
HETATM   10  O   UNL     1       7.507  31.567  58.266  1.00  0.00    -0.247 OA
HETATM   11  C   UNL     1       4.280  32.844  58.666  1.00  0.00     0.119 C 
HETATM   12  H   UNL     1       6.250  33.467  59.416  1.00  0.00     0.165 HD
HETATM   13  C   UNL     1       3.366  33.032  59.891  1.00  0.00     0.019 C 
HETATM   14  C   UNL     1       4.102  31.493  57.937  1.00  0.00     0.257 C 
HETATM   15  C   UNL     1       4.064  33.955  57.618  1.00  0.00     0.041 C 
HETATM   16  C   UNL     1       3.613  32.000  60.996  1.00  0.00     0.013 C 
HETATM   17  C   UNL     1       3.505  34.453  60.471  1.00  0.00     0.007 C 
HETATM   18  C   UNL     1       3.277  35.533  59.415  1.00  0.00     0.001 C 
HETATM   19  C   UNL     1       4.197  35.353  58.215  1.00  0.00     0.003 C 
HETATM   20  O   UNL     1       3.047  31.018  57.537  1.00  0.00    -0.270 OA
ENDBRANCH   6   7
ENDBRANCH   3   6
ENDBRANCH   1   2
BRANCH   1  21
HETATM   21  C   UNL     1       5.656  25.418  55.884  1.00  0.00     0.071 C 
BRANCH  21  22
HETATM   22  C   UNL     1       6.981  24.673  55.946  1.00  0.00    -0.020 A 
HETATM   23  C   UNL     1       7.488  23.727  54.989  1.00  0.00    -0.001 A 
HETATM   24  C   UNL     1       8.731  23.284  55.450  1.00  0.00     0.042 A 
HETATM   25  C   UNL     1       7.010  23.205  53.768  1.00  0.00     0.014 A 
HETATM   26  C   UNL     1       9.515  22.354  54.757  1.00  0.00     0.030 A 
HETATM   27  N   UNL     1       8.976  23.927  56.637  1.00  0.00    -0.365 N 
HETATM   28  C   UNL     1       9.017  21.857  53.550  1.00  0.00     0.002 A 
HETATM   29  C   UNL     1       7.783  22.276  53.060  1.00  0.00     0.001 A 
HETATM   30  H   UNL     1       9.807  23.798  57.197  1.00  0.00     0.165 HD
HETATM   31  C   UNL     1       7.937  24.760  56.947  1.00  0.00     0.097 A 
ENDBRANCH  21  22
BRANCH  21  32
HETATM   32  C   UNL     1       5.764  26.260  54.617  1.00  0.00    -0.048 A 
HETATM   33  C   UNL     1       4.790  26.112  53.615  1.00  0.00     0.011 A 
HETATM   34  C   UNL     1       4.873  26.832  52.420  1.00  0.00     0.037 A 
HETATM   35  C   UNL     1       5.928  27.715  52.195  1.00  0.00     0.068 A 
HETATM   36  C   UNL     1       6.900  27.875  53.182  1.00  0.00     0.037 A 
HETATM   37  C   UNL     1       6.820  27.152  54.379  1.00  0.00     0.011 A 
BRANCH  35  38
HETATM   38  O   UNL     1       5.897  28.346  50.982  1.00  0.00    -0.356 OA
HETATM   39  C   UNL     1       4.872  27.953  50.080  1.00  0.00     0.210 C 
ENDBRANCH  35  38
ENDBRANCH  21  32
ENDBRANCH   1  21
TORSDOF 7
ENDMDL
MODEL 9
REMARK VINA RESULT:      -9.6      3.398      9.829
REMARK  7 active torsions:
REMARK  status: ('A' for Active; 'I' for Inactive)
REMARK    1  A    between atoms: N_7  and  C_8 
REMARK    2  A    between atoms: C_8  and  C_9 
REMARK       I    between atoms: C_9  and  N_10 
REMARK    3  A    between atoms: N_10  and  C_11 
REMARK    4  A    between atoms: C_11  and  C_12 
REMARK    5  A    between atoms: C_12  and  C_13 
REMARK    6  A    between atoms: C_12  and  C_23 
REMARK    7  A    between atoms: C_26  and  O_27 
ROOT
HETATM    1  C   UNL     1       5.501  28.218  53.512  1.00  0.00     0.136 C 
ENDROOT
BRANCH   1   2
HETATM    2  N   UNL     1       4.703  27.775  52.373  1.00  0.00    -0.359 N 
HETATM    3  C   UNL     1       5.186  28.089  51.109  1.00  0.00     0.236 C 
HETATM    4  O   UNL     1       6.097  28.901  50.944  1.00  0.00    -0.272 OA
HETATM    5  H   UNL     1       4.172  26.909  52.467  1.00  0.00     0.162 HD
BRANCH   3   6
HETATM    6  C   UNL     1       4.705  27.212  49.962  1.00  0.00     0.239 C 
BRANCH   6   7
HETATM    7  N   UNL     1       3.865  27.868  48.990  1.00  0.00    -0.259 N 
HETATM    8  C   UNL     1       4.147  27.921  47.660  1.00  0.00     0.326 C 
HETATM    9  N   UNL     1       3.062  28.458  47.005  1.00  0.00    -0.324 N 
HETATM   10  O   UNL     1       5.153  27.534  47.093  1.00  0.00    -0.247 OA
HETATM   11  C   UNL     1       1.905  28.561  47.870  1.00  0.00     0.119 C 
HETATM   12  H   UNL     1       3.042  28.455  45.992  1.00  0.00     0.165 HD
HETATM   13  C   UNL     1       1.171  29.909  47.758  1.00  0.00     0.019 C 
HETATM   14  C   UNL     1       2.599  28.321  49.230  1.00  0.00     0.257 C 
HETATM   15  C   UNL     1       0.951  27.371  47.635  1.00  0.00     0.041 C 
HETATM   16  C   UNL     1       2.101  31.119  47.895  1.00  0.00     0.013 C 
HETATM   17  C   UNL     1       0.392  30.005  46.431  1.00  0.00     0.007 C 
HETATM   18  C   UNL     1      -0.551  28.822  46.228  1.00  0.00     0.001 C 
HETATM   19  C   UNL     1       0.184  27.491  46.322  1.00  0.00     0.003 C 
HETATM   20  O   UNL     1       2.082  28.418  50.335  1.00  0.00    -0.270 OA
ENDBRANCH   6   7
ENDBRANCH   3   6
ENDBRANCH   1   2
BRANCH   1  21
HETATM   21  C   UNL     1       5.648  27.228  54.687  1.00  0.00     0.071 C 
BRANCH  21  22
HETATM   22  C   UNL     1       6.341  27.879  55.874  1.00  0.00    -0.020 A 
HETATM   23  C   UNL     1       7.643  28.488  55.890  1.00  0.00    -0.001 A 
HETATM   24  C   UNL     1       7.881  28.947  57.188  1.00  0.00     0.042 A 
HETATM   25  C   UNL     1       8.646  28.698  54.919  1.00  0.00     0.014 A 
HETATM   26  C   UNL     1       9.060  29.601  57.563  1.00  0.00     0.030 A 
HETATM   27  N   UNL     1       6.776  28.632  57.938  1.00  0.00    -0.365 N 
HETATM   28  C   UNL     1      10.034  29.798  56.580  1.00  0.00     0.002 A 
HETATM   29  C   UNL     1       9.832  29.354  55.276  1.00  0.00     0.001 A 
HETATM   30  H   UNL     1       6.670  28.847  58.920  1.00  0.00     0.165 HD
HETATM   31  C   UNL     1       5.847  27.993  57.165  1.00  0.00     0.097 A 
ENDBRANCH  21  22
BRANCH  21  32
HETATM   32  C   UNL     1       6.462  25.964  54.431  1.00  0.00    -0.048 A 
HETATM   33  C   UNL     1       7.231  25.874  53.258  1.00  0.00     0.011 A 
HETATM   34  C   UNL     1       7.957  24.717  52.963  1.00  0.00     0.037 A 
HETATM   35  C   UNL     1       7.935  23.624  53.828  1.00  0.00     0.068 A 
HETATM   36  C   UNL     1       7.181  23.701  54.997  1.00  0.00     0.037 A 
HETATM   37  C   UNL     1       6.449  24.858  55.294  1.00  0.00     0.011 A 
BRANCH  35  38
HETATM   38  O   UNL     1       8.680  22.554  53.415  1.00  0.00    -0.356 OA
HETATM   39  C   UNL     1       7.990  21.325  53.231  1.00  0.00     0.210 C 
ENDBRANCH  35  38
ENDBRANCH  21  32
ENDBRANCH   1  21
TORSDOF 7
ENDMDL
MODEL 10
REMARK VINA RESULT:      -9.5      3.871      9.959
REMARK  7 active torsions:
REMARK  status: ('A' for Active; 'I' for Inactive)
REMARK    1  A    between atoms: N_7  and  C_8 
REMARK    2  A    between atoms: C_8  and  C_9 
REMARK       I    between atoms: C_9  and  N_10 
REMARK    3  A    between atoms: N_10  and  C_11 
REMARK    4  A    between atoms: C_11  and  C_12 
REMARK    5  A    between atoms: C_12  and  C_13 
REMARK    6  A    between atoms: C_12  and  C_23 
REMARK    7  A    between atoms: C_26  and  O_27 
ROOT
HETATM    1  C   UNL     1       4.646  26.195  52.977  1.00  0.00     0.136 C 
ENDROOT
BRANCH   1   2
HETATM    2  N   UNL     1       5.080  27.350  52.195  1.00  0.00    -0.359 N 
HETATM    3  C   UNL     1       5.334  27.135  50.847  1.00  0.00     0.236 C 
HETATM    4  O   UNL     1       5.432  26.001  50.377  1.00  0.00    -0.272 OA
HETATM    5  H   UNL     1       4.727  28.269  52.462  1.00  0.00     0.162 HD
BRANCH   3   6
HETATM    6  C   UNL     1       5.249  28.352  49.939  1.00  0.00     0.239 C 
BRANCH   6   7
HETATM    7  N   UNL     1       3.959  28.587  49.336  1.00  0.00    -0.259 N 
HETATM    8  C   UNL     1       2.930  29.212  49.971  1.00  0.00     0.326 C 
HETATM    9  N   UNL     1       1.922  29.428  49.059  1.00  0.00    -0.324 N 
HETATM   10  O   UNL     1       2.879  29.577  51.132  1.00  0.00    -0.247 OA
HETATM   11  C   UNL     1       2.353  29.161  47.702  1.00  0.00     0.119 C 
HETATM   12  H   UNL     1       1.127  29.998  49.324  1.00  0.00     0.165 HD
HETATM   13  C   UNL     1       1.338  28.344  46.884  1.00  0.00     0.019 C 
HETATM   14  C   UNL     1       3.673  28.418  48.011  1.00  0.00     0.257 C 
HETATM   15  C   UNL     1       2.732  30.477  46.991  1.00  0.00     0.041 C 
HETATM   16  C   UNL     1       0.867  27.073  47.598  1.00  0.00     0.013 C 
HETATM   17  C   UNL     1       0.117  29.204  46.501  1.00  0.00     0.007 C 
HETATM   18  C   UNL     1       0.519  30.494  45.790  1.00  0.00     0.001 C 
HETATM   19  C   UNL     1       1.510  31.307  46.613  1.00  0.00     0.003 C 
HETATM   20  O   UNL     1       4.398  27.860  47.198  1.00  0.00    -0.270 OA
ENDBRANCH   6   7
ENDBRANCH   3   6
ENDBRANCH   1   2
BRANCH   1  21
HETATM   21  C   UNL     1       5.479  25.848  54.230  1.00  0.00     0.071 C 
BRANCH  21  22
HETATM   22  C   UNL     1       6.367  27.012  54.641  1.00  0.00    -0.020 A 
HETATM   23  C   UNL     1       6.106  27.979  55.673  1.00  0.00    -0.001 A 
HETATM   24  C   UNL     1       7.180  28.871  55.699  1.00  0.00     0.042 A 
HETATM   25  C   UNL     1       5.056  28.179  56.594  1.00  0.00     0.014 A 
HETATM   26  C   UNL     1       7.259  29.945  56.593  1.00  0.00     0.030 A 
HETATM   27  N   UNL     1       8.061  28.474  54.725  1.00  0.00    -0.365 N 
HETATM   28  C   UNL     1       6.207  30.117  57.496  1.00  0.00     0.002 A 
HETATM   29  C   UNL     1       5.120  29.247  57.499  1.00  0.00     0.001 A 
HETATM   30  H   UNL     1       8.935  28.939  54.518  1.00  0.00     0.165 HD
HETATM   31  C   UNL     1       7.588  27.364  54.083  1.00  0.00     0.097 A 
ENDBRANCH  21  22
BRANCH  21  32
HETATM   32  C   UNL     1       6.440  24.670  54.119  1.00  0.00    -0.048 A 
HETATM   33  C   UNL     1       6.942  24.086  55.294  1.00  0.00     0.011 A 
HETATM   34  C   UNL     1       7.859  23.033  55.238  1.00  0.00     0.037 A 
HETATM   35  C   UNL     1       8.297  22.536  54.011  1.00  0.00     0.068 A 
HETATM   36  C   UNL     1       7.804  23.103  52.837  1.00  0.00     0.037 A 
HETATM   37  C   UNL     1       6.887  24.161  52.890  1.00  0.00     0.011 A 
BRANCH  35  38
HETATM   38  O   UNL     1       9.200  21.514  54.098  1.00  0.00    -0.356 OA
HETATM   39  C   UNL     1       8.784  20.345  54.792  1.00  0.00     0.210 C 
ENDBRANCH  35  38
ENDBRANCH  21  32
ENDBRANCH   1  21
TORSDOF 7
ENDMDL
