MODEL 1
REMARK VINA RESULT:     -10.1      0.000      0.000
REMARK  7 active torsions:
REMARK  status: ('A' for Active; 'I' for Inactive)
REMARK    1  A    between atoms: C_4  and  C_5 
REMARK    2  A    between atoms: C_5  and  C_6 
REMARK    3  A    between atoms: C_6  and  N_7 
REMARK       I    between atoms: N_7  and  C_8 
REMARK    4  A    between atoms: C_8  and  C_9 
REMARK    5  A    between atoms: C_10  and  N_11 
REMARK    6  A    between atoms: N_12  and  N_13 
REMARK    7  A    between atoms: C_14  and  C_15 
ROOT
HETATM    1  C   UNL     1       6.394  27.831  54.038  1.00  0.00     0.110 A 
HETATM    2  C   UNL     1       5.079  28.015  54.450  1.00  0.00     0.143 A 
HETATM    3  N   UNL     1       5.074  28.918  55.517  1.00  0.00    -0.197 N 
HETATM    4  C   UNL     1       6.387  29.178  55.864  1.00  0.00     0.183 A 
HETATM    5  C   UNL     1       7.214  28.534  54.951  1.00  0.00     0.125 A 
HETATM    6  N   UNL     1       8.567  28.592  55.063  1.00  0.00    -0.242 NA
HETATM    7  C   UNL     1       9.014  29.289  56.123  1.00  0.00     0.086 A 
HETATM    8  C   UNL     1       8.145  29.950  57.031  1.00  0.00     0.088 A 
HETATM    9  N   UNL     1       6.811  29.924  56.911  1.00  0.00    -0.225 NA
HETATM   10  C   UNL     1      10.384  29.351  56.347  1.00  0.00     0.034 A 
HETATM   11  C   UNL     1      10.920  30.044  57.436  1.00  0.00     0.002 A 
HETATM   12  C   UNL     1      10.068  30.698  58.315  1.00  0.00     0.002 A 
HETATM   13  C   UNL     1       8.691  30.646  58.102  1.00  0.00     0.034 A 
ENDROOT
BRANCH   1  14
HETATM   14  C   UNL     1       6.784  27.008  52.911  1.00  0.00     0.257 C 
HETATM   15  N   UNL     1       7.878  26.204  53.189  1.00  0.00    -0.356 N 
HETATM   16  H   UNL     1       8.256  26.362  54.118  1.00  0.00     0.162 HD
HETATM   17  O   UNL     1       6.121  26.947  51.884  1.00  0.00    -0.267 OA
BRANCH  15  18
HETATM   18  C   UNL     1       7.895  24.809  52.797  1.00  0.00     0.127 C 
BRANCH  18  19
HETATM   19  C   UNL     1       6.826  23.886  53.383  1.00  0.00     0.058 C 
BRANCH  19  20
HETATM   20  C   UNL     1       7.497  22.624  53.882  1.00  0.00    -0.057 A 
HETATM   21  C   UNL     1       7.934  21.656  52.963  1.00  0.00     0.007 A 
HETATM   22  C   UNL     1       8.454  20.441  53.407  1.00  0.00     0.001 A 
HETATM   23  C   UNL     1       8.549  20.183  54.773  1.00  0.00     0.000 A 
HETATM   24  C   UNL     1       8.130  21.143  55.694  1.00  0.00     0.001 A 
HETATM   25  C   UNL     1       7.604  22.358  55.252  1.00  0.00     0.007 A 
ENDBRANCH  19  20
ENDBRANCH  18  19
ENDBRANCH  15  18
ENDBRANCH   1  14
BRANCH   2  26
HETATM   26  N   UNL     1       3.938  27.445  53.967  1.00  0.00    -0.383 N 
HETATM   27  H   UNL     1       3.218  27.159  54.628  1.00  0.00     0.157 HD
HETATM   28  H   UNL     1       4.001  26.787  53.194  1.00  0.00     0.157 HD
ENDBRANCH   2  26
BRANCH   3  29
HETATM   29  N   UNL     1       3.987  29.307  56.253  1.00  0.00    -0.176 NA
HETATM   30  C   UNL     1       3.465  30.472  56.019  1.00  0.00     0.153 C 
BRANCH  30  31
HETATM   31  C   UNL     1       3.977  31.518  55.158  1.00  0.00     0.011 A 
HETATM   32  C   UNL     1       3.770  31.640  53.745  1.00  0.00     0.004 A 
HETATM   33  C   UNL     1       4.412  32.806  53.329  1.00  0.00     0.043 A 
HETATM   34  C   UNL     1       3.122  30.846  52.776  1.00  0.00     0.014 A 
HETATM   35  C   UNL     1       4.426  33.229  51.995  1.00  0.00     0.030 A 
HETATM   36  N   UNL     1       4.972  33.382  54.449  1.00  0.00    -0.364 N 
HETATM   37  C   UNL     1       3.781  32.422  51.053  1.00  0.00     0.002 A 
HETATM   38  C   UNL     1       3.140  31.246  51.434  1.00  0.00     0.001 A 
HETATM   39  H   UNL     1       5.494  34.249  54.447  1.00  0.00     0.165 HD
HETATM   40  C   UNL     1       4.721  32.612  55.553  1.00  0.00     0.102 A 
ENDBRANCH  30  31
ENDBRANCH   3  29
TORSDOF 7
ENDMDL
MODEL 2
REMARK VINA RESULT:      -9.9      1.611      2.635
REMARK  7 active torsions:
REMARK  status: ('A' for Active; 'I' for Inactive)
REMARK    1  A    between atoms: C_4  and  C_5 
REMARK    2  A    between atoms: C_5  and  C_6 
REMARK    3  A    between atoms: C_6  and  N_7 
REMARK       I    between atoms: N_7  and  C_8 
REMARK    4  A    between atoms: C_8  and  C_9 
REMARK    5  A    between atoms: C_10  and  N_11 
REMARK    6  A    between atoms: N_12  and  N_13 
REMARK    7  A    between atoms: C_14  and  C_15 
ROOT
HETATM    1  C   UNL     1       6.524  28.517  55.760  1.00  0.00     0.110 A 
HETATM    2  C   UNL     1       5.143  28.639  55.658  1.00  0.00     0.143 A 
HETATM    3  N   UNL     1       4.736  29.713  56.454  1.00  0.00    -0.197 N 
HETATM    4  C   UNL     1       5.834  30.161  57.164  1.00  0.00     0.183 A 
HETATM    5  C   UNL     1       6.949  29.450  56.734  1.00  0.00     0.125 A 
HETATM    6  N   UNL     1       8.175  29.662  57.283  1.00  0.00    -0.242 NA
HETATM    7  C   UNL     1       8.199  30.579  58.267  1.00  0.00     0.086 A 
HETATM    8  C   UNL     1       7.045  31.302  58.674  1.00  0.00     0.088 A 
HETATM    9  N   UNL     1       5.840  31.121  58.118  1.00  0.00    -0.225 NA
HETATM   10  C   UNL     1       9.400  30.817  58.923  1.00  0.00     0.034 A 
HETATM   11  C   UNL     1       9.497  31.743  59.965  1.00  0.00     0.002 A 
HETATM   12  C   UNL     1       8.371  32.456  60.353  1.00  0.00     0.002 A 
HETATM   13  C   UNL     1       7.158  32.229  59.702  1.00  0.00     0.034 A 
ENDROOT
BRANCH   1  14
HETATM   14  C   UNL     1       7.311  27.549  55.023  1.00  0.00     0.257 C 
HETATM   15  N   UNL     1       7.461  26.351  55.704  1.00  0.00    -0.356 N 
HETATM   16  H   UNL     1       7.039  26.368  56.627  1.00  0.00     0.162 HD
HETATM   17  O   UNL     1       7.675  27.742  53.870  1.00  0.00    -0.267 OA
BRANCH  15  18
HETATM   18  C   UNL     1       7.293  25.083  55.024  1.00  0.00     0.127 C 
BRANCH  18  19
HETATM   19  C   UNL     1       7.199  23.818  55.878  1.00  0.00     0.058 C 
BRANCH  19  20
HETATM   20  C   UNL     1       7.512  22.620  55.006  1.00  0.00    -0.057 A 
HETATM   21  C   UNL     1       7.785  21.378  55.599  1.00  0.00     0.007 A 
HETATM   22  C   UNL     1       8.182  20.291  54.819  1.00  0.00     0.001 A 
HETATM   23  C   UNL     1       8.302  20.434  53.438  1.00  0.00     0.000 A 
HETATM   24  C   UNL     1       8.020  21.661  52.838  1.00  0.00     0.001 A 
HETATM   25  C   UNL     1       7.629  22.751  53.617  1.00  0.00     0.007 A 
ENDBRANCH  19  20
ENDBRANCH  18  19
ENDBRANCH  15  18
ENDBRANCH   1  14
BRANCH   2  26
HETATM   26  N   UNL     1       4.264  27.880  54.943  1.00  0.00    -0.383 N 
HETATM   27  H   UNL     1       4.522  27.592  54.001  1.00  0.00     0.157 HD
HETATM   28  H   UNL     1       3.270  28.089  54.997  1.00  0.00     0.157 HD
ENDBRANCH   2  26
BRANCH   3  29
HETATM   29  N   UNL     1       3.448  30.116  56.684  1.00  0.00    -0.176 NA
HETATM   30  C   UNL     1       2.956  31.066  55.950  1.00  0.00     0.153 C 
BRANCH  30  31
HETATM   31  C   UNL     1       3.649  31.891  54.982  1.00  0.00     0.011 A 
HETATM   32  C   UNL     1       4.264  33.162  55.227  1.00  0.00     0.004 A 
HETATM   33  C   UNL     1       4.840  33.584  54.029  1.00  0.00     0.043 A 
HETATM   34  C   UNL     1       4.355  34.008  56.353  1.00  0.00     0.014 A 
HETATM   35  C   UNL     1       5.517  34.802  53.901  1.00  0.00     0.030 A 
HETATM   36  N   UNL     1       4.601  32.599  53.096  1.00  0.00    -0.364 N 
HETATM   37  C   UNL     1       5.588  35.625  55.029  1.00  0.00     0.002 A 
HETATM   38  C   UNL     1       5.015  35.238  56.238  1.00  0.00     0.001 A 
HETATM   39  H   UNL     1       4.914  32.633  52.134  1.00  0.00     0.165 HD
HETATM   40  C   UNL     1       3.880  31.579  53.657  1.00  0.00     0.102 A 
ENDBRANCH  30  31
ENDBRANCH   3  29
TORSDOF 7
ENDMDL
MODEL 3
REMARK VINA RESULT:      -9.8      2.895      7.311
REMARK  7 active torsions:
REMARK  status: ('A' for Active; 'I' for Inactive)
REMARK    1  A    between atoms: C_4  and  C_5 
REMARK    2  A    between atoms: C_5  and  C_6 
REMARK    3  A    between atoms: C_6  and  N_7 
REMARK       I    between atoms: N_7  and  C_8 
REMARK    4  A    between atoms: C_8  and  C_9 
REMARK    5  A    between atoms: C_10  and  N_11 
REMARK    6  A    between atoms: N_12  and  N_13 
REMARK    7  A    between atoms: C_14  and  C_15 
ROOT
HETATM    1  C   UNL     1       5.636  26.720  52.847  1.00  0.00     0.110 A 
HETATM    2  C   UNL     1       5.145  27.395  53.958  1.00  0.00     0.143 A 
HETATM    3  N   UNL     1       5.559  26.713  55.106  1.00  0.00    -0.197 N 
HETATM    4  C   UNL     1       6.175  25.541  54.709  1.00  0.00     0.183 A 
HETATM    5  C   UNL     1       6.251  25.538  53.321  1.00  0.00     0.125 A 
HETATM    6  N   UNL     1       6.788  24.487  52.646  1.00  0.00    -0.242 NA
HETATM    7  C   UNL     1       7.203  23.472  53.426  1.00  0.00     0.086 A 
HETATM    8  C   UNL     1       7.128  23.511  54.844  1.00  0.00     0.088 A 
HETATM    9  N   UNL     1       6.628  24.555  55.518  1.00  0.00    -0.225 NA
HETATM   10  C   UNL     1       7.713  22.333  52.816  1.00  0.00     0.034 A 
HETATM   11  C   UNL     1       8.149  21.234  53.561  1.00  0.00     0.002 A 
HETATM   12  C   UNL     1       8.084  21.279  54.947  1.00  0.00     0.002 A 
HETATM   13  C   UNL     1       7.577  22.417  55.573  1.00  0.00     0.034 A 
ENDROOT
BRANCH   1  14
HETATM   14  C   UNL     1       5.461  27.170  51.480  1.00  0.00     0.257 C 
HETATM   15  N   UNL     1       5.425  26.122  50.573  1.00  0.00    -0.356 N 
HETATM   16  H   UNL     1       5.578  25.219  51.009  1.00  0.00     0.162 HD
HETATM   17  O   UNL     1       5.235  28.339  51.199  1.00  0.00    -0.267 OA
BRANCH  15  18
HETATM   18  C   UNL     1       4.430  26.085  49.520  1.00  0.00     0.127 C 
BRANCH  18  19
HETATM   19  C   UNL     1       4.735  26.827  48.218  1.00  0.00     0.058 C 
BRANCH  19  20
HETATM   20  C   UNL     1       3.439  27.373  47.657  1.00  0.00    -0.057 A 
HETATM   21  C   UNL     1       3.365  28.715  47.252  1.00  0.00     0.007 A 
HETATM   22  C   UNL     1       2.153  29.265  46.836  1.00  0.00     0.001 A 
HETATM   23  C   UNL     1       1.004  28.476  46.813  1.00  0.00     0.000 A 
HETATM   24  C   UNL     1       1.070  27.138  47.200  1.00  0.00     0.001 A 
HETATM   25  C   UNL     1       2.281  26.588  47.623  1.00  0.00     0.007 A 
ENDBRANCH  19  20
ENDBRANCH  18  19
ENDBRANCH  15  18
ENDBRANCH   1  14
BRANCH   2  26
HETATM   26  N   UNL     1       4.376  28.520  54.011  1.00  0.00    -0.383 N 
HETATM   27  H   UNL     1       3.825  28.696  54.849  1.00  0.00     0.157 HD
HETATM   28  H   UNL     1       3.870  28.816  53.179  1.00  0.00     0.157 HD
ENDBRANCH   2  26
BRANCH   3  29
HETATM   29  N   UNL     1       5.223  27.012  56.399  1.00  0.00    -0.176 NA
HETATM   30  C   UNL     1       5.951  27.870  57.046  1.00  0.00     0.153 C 
BRANCH  30  31
HETATM   31  C   UNL     1       7.201  28.470  56.626  1.00  0.00     0.011 A 
HETATM   32  C   UNL     1       8.089  29.247  57.438  1.00  0.00     0.004 A 
HETATM   33  C   UNL     1       9.181  29.597  56.642  1.00  0.00     0.043 A 
HETATM   34  C   UNL     1       8.050  29.714  58.769  1.00  0.00     0.014 A 
HETATM   35  C   UNL     1      10.244  30.376  57.113  1.00  0.00     0.030 A 
HETATM   36  N   UNL     1       8.973  29.038  55.400  1.00  0.00    -0.364 N 
HETATM   37  C   UNL     1      10.178  30.831  58.434  1.00  0.00     0.002 A 
HETATM   38  C   UNL     1       9.097  30.508  59.251  1.00  0.00     0.001 A 
HETATM   39  H   UNL     1       9.612  29.120  54.620  1.00  0.00     0.165 HD
HETATM   40  C   UNL     1       7.781  28.362  55.378  1.00  0.00     0.102 A 
ENDBRANCH  30  31
ENDBRANCH   3  29
TORSDOF 7
ENDMDL
MODEL 4
REMARK VINA RESULT:      -9.8      1.704      2.365
REMARK  7 active torsions:
REMARK  status: ('A' for Active; 'I' for Inactive)
REMARK    1  A    between atoms: C_4  and  C_5 
REMARK    2  A    between atoms: C_5  and  C_6 
REMARK    3  A    between atoms: C_6  and  N_7 
REMARK       I    between atoms: N_7  and  C_8 
REMARK    4  A    between atoms: C_8  and  C_9 
REMARK    5  A    between atoms: C_10  and  N_11 
REMARK    6  A    between atoms: N_12  and  N_13 
REMARK    7  A    between atoms: C_14  and  C_15 
ROOT
HETATM    1  C   UNL     1       6.608  28.331  56.384  1.00  0.00     0.110 A 
HETATM    2  C   UNL     1       5.233  28.449  56.218  1.00  0.00     0.143 A 
HETATM    3  N   UNL     1       4.806  29.595  56.894  1.00  0.00    -0.197 N 
HETATM    4  C   UNL     1       5.881  30.102  57.600  1.00  0.00     0.183 A 
HETATM    5  C   UNL     1       7.004  29.349  57.281  1.00  0.00     0.125 A 
HETATM    6  N   UNL     1       8.211  29.606  57.853  1.00  0.00    -0.242 NA
HETATM    7  C   UNL     1       8.206  30.611  58.747  1.00  0.00     0.086 A 
HETATM    8  C   UNL     1       7.045  31.375  59.040  1.00  0.00     0.088 A 
HETATM    9  N   UNL     1       5.859  31.148  58.459  1.00  0.00    -0.225 NA
HETATM   10  C   UNL     1       9.384  30.905  59.422  1.00  0.00     0.034 A 
HETATM   11  C   UNL     1       9.450  31.924  60.375  1.00  0.00     0.002 A 
HETATM   12  C   UNL     1       8.317  32.675  60.652  1.00  0.00     0.002 A 
HETATM   13  C   UNL     1       7.127  32.394  59.980  1.00  0.00     0.034 A 
ENDROOT
BRANCH   1  14
HETATM   14  C   UNL     1       7.414  27.294  55.770  1.00  0.00     0.257 C 
HETATM   15  N   UNL     1       8.096  26.526  56.701  1.00  0.00    -0.356 N 
HETATM   16  H   UNL     1       7.958  26.848  57.654  1.00  0.00     0.162 HD
HETATM   17  O   UNL     1       7.372  27.055  54.571  1.00  0.00    -0.267 OA
BRANCH  15  18
HETATM   18  C   UNL     1       8.134  25.081  56.590  1.00  0.00     0.127 C 
BRANCH  18  19
HETATM   19  C   UNL     1       6.858  24.362  56.151  1.00  0.00     0.058 C 
BRANCH  19  20
HETATM   20  C   UNL     1       7.223  23.314  55.121  1.00  0.00    -0.057 A 
HETATM   21  C   UNL     1       7.567  22.018  55.536  1.00  0.00     0.007 A 
HETATM   22  C   UNL     1       8.011  21.072  54.613  1.00  0.00     0.001 A 
HETATM   23  C   UNL     1       8.108  21.409  53.264  1.00  0.00     0.000 A 
HETATM   24  C   UNL     1       7.755  22.689  52.839  1.00  0.00     0.001 A 
HETATM   25  C   UNL     1       7.317  23.640  53.763  1.00  0.00     0.007 A 
ENDBRANCH  19  20
ENDBRANCH  18  19
ENDBRANCH  15  18
ENDBRANCH   1  14
BRANCH   2  26
HETATM   26  N   UNL     1       4.374  27.631  55.546  1.00  0.00    -0.383 N 
HETATM   27  H   UNL     1       3.546  27.288  56.031  1.00  0.00     0.157 HD
HETATM   28  H   UNL     1       4.750  26.918  54.926  1.00  0.00     0.157 HD
ENDBRANCH   2  26
BRANCH   3  29
HETATM   29  N   UNL     1       3.514  30.025  57.037  1.00  0.00    -0.176 NA
HETATM   30  C   UNL     1       3.008  30.785  56.115  1.00  0.00     0.153 C 
BRANCH  30  31
HETATM   31  C   UNL     1       3.688  31.385  54.985  1.00  0.00     0.011 A 
HETATM   32  C   UNL     1       3.701  30.897  53.639  1.00  0.00     0.004 A 
HETATM   33  C   UNL     1       4.448  31.796  52.877  1.00  0.00     0.043 A 
HETATM   34  C   UNL     1       3.172  29.754  53.002  1.00  0.00     0.014 A 
HETATM   35  C   UNL     1       4.681  31.620  51.508  1.00  0.00     0.030 A 
HETATM   36  N   UNL     1       4.858  32.802  53.725  1.00  0.00    -0.364 N 
HETATM   37  C   UNL     1       4.151  30.477  50.903  1.00  0.00     0.002 A 
HETATM   38  C   UNL     1       3.409  29.554  51.637  1.00  0.00     0.001 A 
HETATM   39  H   UNL     1       5.412  33.600  53.442  1.00  0.00     0.165 HD
HETATM   40  C   UNL     1       4.411  32.561  54.997  1.00  0.00     0.102 A 
ENDBRANCH  30  31
ENDBRANCH   3  29
TORSDOF 7
ENDMDL
MODEL 5
REMARK VINA RESULT:      -9.5      3.250      6.585
REMARK  7 active torsions:
REMARK  status: ('A' for Active; 'I' for Inactive)
REMARK    1  A    between atoms: C_4  and  C_5 
REMARK    2  A    between atoms: C_5  and  C_6 
REMARK    3  A    between atoms: C_6  and  N_7 
REMARK       I    between atoms: N_7  and  C_8 
REMARK    4  A    between atoms: C_8  and  C_9 
REMARK    5  A    between atoms: C_10  and  N_11 
REMARK    6  A    between atoms: N_12  and  N_13 
REMARK    7  A    between atoms: C_14  and  C_15 
ROOT
HETATM    1  C   UNL     1       4.309  29.732  53.367  1.00  0.00     0.110 A 
HETATM    2  C   UNL     1       4.724  30.518  52.298  1.00  0.00     0.143 A 
HETATM    3  N   UNL     1       5.426  29.707  51.403  1.00  0.00    -0.197 N 
HETATM    4  C   UNL     1       5.577  28.460  51.981  1.00  0.00     0.183 A 
HETATM    5  C   UNL     1       4.878  28.451  53.182  1.00  0.00     0.125 A 
HETATM    6  N   UNL     1       4.872  27.354  53.986  1.00  0.00    -0.242 NA
HETATM    7  C   UNL     1       5.606  26.322  53.533  1.00  0.00     0.086 A 
HETATM    8  C   UNL     1       6.298  26.355  52.293  1.00  0.00     0.088 A 
HETATM    9  N   UNL     1       6.284  27.420  51.480  1.00  0.00    -0.225 NA
HETATM   10  C   UNL     1       5.704  25.181  54.320  1.00  0.00     0.034 A 
HETATM   11  C   UNL     1       6.461  24.076  53.921  1.00  0.00     0.002 A 
HETATM   12  C   UNL     1       7.126  24.107  52.704  1.00  0.00     0.002 A 
HETATM   13  C   UNL     1       7.036  25.245  51.902  1.00  0.00     0.034 A 
ENDROOT
BRANCH   1  14
HETATM   14  C   UNL     1       3.497  30.217  54.466  1.00  0.00     0.257 C 
HETATM   15  N   UNL     1       3.663  29.472  55.623  1.00  0.00    -0.356 N 
HETATM   16  H   UNL     1       4.286  28.681  55.496  1.00  0.00     0.162 HD
HETATM   17  O   UNL     1       2.851  31.254  54.394  1.00  0.00    -0.267 OA
BRANCH  15  18
HETATM   18  C   UNL     1       3.823  30.121  56.909  1.00  0.00     0.127 C 
BRANCH  18  19
HETATM   19  C   UNL     1       5.244  30.415  57.392  1.00  0.00     0.058 C 
BRANCH  19  20
HETATM   20  C   UNL     1       6.157  29.307  56.912  1.00  0.00    -0.057 A 
HETATM   21  C   UNL     1       6.090  28.039  57.512  1.00  0.00     0.007 A 
HETATM   22  C   UNL     1       6.995  27.038  57.160  1.00  0.00     0.001 A 
HETATM   23  C   UNL     1       7.972  27.292  56.200  1.00  0.00     0.000 A 
HETATM   24  C   UNL     1       8.039  28.544  55.588  1.00  0.00     0.001 A 
HETATM   25  C   UNL     1       7.138  29.549  55.944  1.00  0.00     0.007 A 
ENDBRANCH  19  20
ENDBRANCH  18  19
ENDBRANCH  15  18
ENDBRANCH   1  14
BRANCH   2  26
HETATM   26  N   UNL     1       4.536  31.852  52.088  1.00  0.00    -0.383 N 
HETATM   27  H   UNL     1       3.677  32.283  52.425  1.00  0.00     0.157 HD
HETATM   28  H   UNL     1       4.820  32.260  51.201  1.00  0.00     0.157 HD
ENDBRANCH   2  26
BRANCH   3  29
HETATM   29  N   UNL     1       6.061  30.112  50.260  1.00  0.00    -0.176 NA
HETATM   30  C   UNL     1       5.403  30.084  49.142  1.00  0.00     0.153 C 
BRANCH  30  31
HETATM   31  C   UNL     1       4.089  29.525  48.898  1.00  0.00     0.011 A 
HETATM   32  C   UNL     1       3.792  28.180  48.505  1.00  0.00     0.004 A 
HETATM   33  C   UNL     1       2.405  28.069  48.414  1.00  0.00     0.043 A 
HETATM   34  C   UNL     1       4.579  27.053  48.186  1.00  0.00     0.014 A 
HETATM   35  C   UNL     1       1.762  26.885  48.036  1.00  0.00     0.030 A 
HETATM   36  N   UNL     1       1.877  29.295  48.757  1.00  0.00    -0.364 N 
HETATM   37  C   UNL     1       2.564  25.785  47.719  1.00  0.00     0.002 A 
HETATM   38  C   UNL     1       3.953  25.865  47.789  1.00  0.00     0.001 A 
HETATM   39  H   UNL     1       0.888  29.505  48.788  1.00  0.00     0.165 HD
HETATM   40  C   UNL     1       2.883  30.180  49.044  1.00  0.00     0.102 A 
ENDBRANCH  30  31
ENDBRANCH   3  29
TORSDOF 7
ENDMDL
MODEL 6
REMARK VINA RESULT:      -9.4      1.604      2.636
REMARK  7 active torsions:
REMARK  status: ('A' for Active; 'I' for Inactive)
REMARK    1  A    between atoms: C_4  and  C_5 
REMARK    2  A    between atoms: C_5  and  C_6 
REMARK    3  A    between atoms: C_6  and  N_7 
REMARK       I    between atoms: N_7  and  C_8 
REMARK    4  A    between atoms: C_8  and  C_9 
REMARK    5  A    between atoms: C_10  and  N_11 
REMARK    6  A    between atoms: N_12  and  N_13 
REMARK    7  A    between atoms: C_14  and  C_15 
ROOT
HETATM    1  C   UNL     1       6.142  27.757  53.880  1.00  0.00     0.110 A 
HETATM    2  C   UNL     1       4.802  28.032  54.125  1.00  0.00     0.143 A 
HETATM    3  N   UNL     1       4.727  28.978  55.150  1.00  0.00    -0.197 N 
HETATM    4  C   UNL     1       6.003  29.178  55.643  1.00  0.00     0.183 A 
HETATM    5  C   UNL     1       6.891  28.450  54.858  1.00  0.00     0.125 A 
HETATM    6  N   UNL     1       8.223  28.436  55.129  1.00  0.00    -0.242 NA
HETATM    7  C   UNL     1       8.584  29.152  56.210  1.00  0.00     0.086 A 
HETATM    8  C   UNL     1       7.656  29.899  56.983  1.00  0.00     0.088 A 
HETATM    9  N   UNL     1       6.346  29.943  56.705  1.00  0.00    -0.225 NA
HETATM   10  C   UNL     1       9.920  29.146  56.594  1.00  0.00     0.034 A 
HETATM   11  C   UNL     1      10.365  29.853  57.713  1.00  0.00     0.002 A 
HETATM   12  C   UNL     1       9.458  30.591  58.460  1.00  0.00     0.002 A 
HETATM   13  C   UNL     1       8.114  30.608  58.086  1.00  0.00     0.034 A 
ENDROOT
BRANCH   1  14
HETATM   14  C   UNL     1       6.611  26.866  52.837  1.00  0.00     0.257 C 
HETATM   15  N   UNL     1       7.696  26.100  53.236  1.00  0.00    -0.356 N 
HETATM   16  H   UNL     1       8.013  26.326  54.173  1.00  0.00     0.162 HD
HETATM   17  O   UNL     1       6.014  26.724  51.778  1.00  0.00    -0.267 OA
BRANCH  15  18
HETATM   18  C   UNL     1       7.754  24.682  52.942  1.00  0.00     0.127 C 
BRANCH  18  19
HETATM   19  C   UNL     1       7.172  23.712  53.971  1.00  0.00     0.058 C 
BRANCH  19  20
HETATM   20  C   UNL     1       7.270  24.345  55.343  1.00  0.00    -0.057 A 
HETATM   21  C   UNL     1       6.127  24.904  55.936  1.00  0.00     0.007 A 
HETATM   22  C   UNL     1       6.219  25.587  57.149  1.00  0.00     0.001 A 
HETATM   23  C   UNL     1       7.453  25.712  57.784  1.00  0.00     0.000 A 
HETATM   24  C   UNL     1       8.592  25.149  57.209  1.00  0.00     0.001 A 
HETATM   25  C   UNL     1       8.503  24.470  55.993  1.00  0.00     0.007 A 
ENDBRANCH  19  20
ENDBRANCH  18  19
ENDBRANCH  15  18
ENDBRANCH   1  14
BRANCH   2  26
HETATM   26  N   UNL     1       3.693  27.507  53.529  1.00  0.00    -0.383 N 
HETATM   27  H   UNL     1       2.963  28.142  53.210  1.00  0.00     0.157 HD
HETATM   28  H   UNL     1       3.288  26.650  53.899  1.00  0.00     0.157 HD
ENDBRANCH   2  26
BRANCH   3  29
HETATM   29  N   UNL     1       3.587  29.459  55.737  1.00  0.00    -0.176 NA
HETATM   30  C   UNL     1       3.137  30.616  55.360  1.00  0.00     0.153 C 
BRANCH  30  31
HETATM   31  C   UNL     1       3.774  31.573  54.478  1.00  0.00     0.011 A 
HETATM   32  C   UNL     1       4.334  32.837  54.853  1.00  0.00     0.004 A 
HETATM   33  C   UNL     1       4.868  33.413  53.700  1.00  0.00     0.043 A 
HETATM   34  C   UNL     1       4.409  33.560  56.062  1.00  0.00     0.014 A 
HETATM   35  C   UNL     1       5.486  34.669  53.696  1.00  0.00     0.030 A 
HETATM   36  N   UNL     1       4.657  32.525  52.668  1.00  0.00    -0.364 N 
HETATM   37  C   UNL     1       5.542  35.367  54.906  1.00  0.00     0.002 A 
HETATM   38  C   UNL     1       5.009  34.825  56.073  1.00  0.00     0.001 A 
HETATM   39  H   UNL     1       4.950  32.677  51.711  1.00  0.00     0.165 HD
HETATM   40  C   UNL     1       3.994  31.417  53.125  1.00  0.00     0.102 A 
ENDBRANCH  30  31
ENDBRANCH   3  29
TORSDOF 7
ENDMDL
MODEL 7
REMARK VINA RESULT:      -9.3      1.577      2.089
REMARK  7 active torsions:
REMARK  status: ('A' for Active; 'I' for Inactive)
REMARK    1  A    between atoms: C_4  and  C_5 
REMARK    2  A    between atoms: C_5  and  C_6 
REMARK    3  A    between atoms: C_6  and  N_7 
REMARK       I    between atoms: N_7  and  C_8 
REMARK    4  A    between atoms: C_8  and  C_9 
REMARK    5  A    between atoms: C_10  and  N_11 
REMARK    6  A    between atoms: N_12  and  N_13 
REMARK    7  A    between atoms: C_14  and  C_15 
ROOT
HETATM    1  C   UNL     1       4.937  28.278  53.686  1.00  0.00     0.110 A 
HETATM    2  C   UNL     1       3.783  29.003  53.411  1.00  0.00     0.143 A 
HETATM    3  N   UNL     1       3.753  30.119  54.252  1.00  0.00    -0.197 N 
HETATM    4  C   UNL     1       4.801  30.009  55.146  1.00  0.00     0.183 A 
HETATM    5  C   UNL     1       5.554  28.893  54.800  1.00  0.00     0.125 A 
HETATM    6  N   UNL     1       6.640  28.522  55.528  1.00  0.00    -0.242 NA
HETATM    7  C   UNL     1       6.893  29.300  56.596  1.00  0.00     0.086 A 
HETATM    8  C   UNL     1       6.115  30.444  56.916  1.00  0.00     0.088 A 
HETATM    9  N   UNL     1       5.061  30.835  56.187  1.00  0.00    -0.225 NA
HETATM   10  C   UNL     1       7.951  28.959  57.430  1.00  0.00     0.034 A 
HETATM   11  C   UNL     1       8.263  29.711  58.566  1.00  0.00     0.002 A 
HETATM   12  C   UNL     1       7.508  30.835  58.869  1.00  0.00     0.002 A 
HETATM   13  C   UNL     1       6.444  31.191  58.041  1.00  0.00     0.034 A 
ENDROOT
BRANCH   1  14
HETATM   14  C   UNL     1       5.340  27.087  52.965  1.00  0.00     0.257 C 
HETATM   15  N   UNL     1       6.521  26.544  53.448  1.00  0.00    -0.356 N 
HETATM   16  H   UNL     1       6.934  27.098  54.191  1.00  0.00     0.162 HD
HETATM   17  O   UNL     1       4.629  26.561  52.120  1.00  0.00    -0.267 OA
BRANCH  15  18
HETATM   18  C   UNL     1       6.650  25.117  53.663  1.00  0.00     0.127 C 
BRANCH  18  19
HETATM   19  C   UNL     1       7.667  24.636  54.699  1.00  0.00     0.058 C 
BRANCH  19  20
HETATM   20  C   UNL     1       7.855  23.143  54.535  1.00  0.00    -0.057 A 
HETATM   21  C   UNL     1       8.027  22.598  53.253  1.00  0.00     0.007 A 
HETATM   22  C   UNL     1       8.092  21.216  53.073  1.00  0.00     0.001 A 
HETATM   23  C   UNL     1       7.995  20.366  54.173  1.00  0.00     0.000 A 
HETATM   24  C   UNL     1       7.839  20.899  55.452  1.00  0.00     0.001 A 
HETATM   25  C   UNL     1       7.766  22.281  55.634  1.00  0.00     0.007 A 
ENDBRANCH  19  20
ENDBRANCH  18  19
ENDBRANCH  15  18
ENDBRANCH   1  14
BRANCH   2  26
HETATM   26  N   UNL     1       2.795  28.737  52.509  1.00  0.00    -0.383 N 
HETATM   27  H   UNL     1       2.878  27.906  51.926  1.00  0.00     0.157 HD
HETATM   28  H   UNL     1       2.379  29.504  51.987  1.00  0.00     0.157 HD
ENDBRANCH   2  26
BRANCH   3  29
HETATM   29  N   UNL     1       2.748  31.043  54.346  1.00  0.00    -0.176 NA
HETATM   30  C   UNL     1       2.828  32.122  53.630  1.00  0.00     0.153 C 
BRANCH  30  31
HETATM   31  C   UNL     1       3.945  32.572  52.824  1.00  0.00     0.011 A 
HETATM   32  C   UNL     1       4.196  32.241  51.453  1.00  0.00     0.004 A 
HETATM   33  C   UNL     1       5.356  32.914  51.069  1.00  0.00     0.043 A 
HETATM   34  C   UNL     1       3.560  31.405  50.512  1.00  0.00     0.014 A 
HETATM   35  C   UNL     1       5.905  32.806  49.786  1.00  0.00     0.030 A 
HETATM   36  N   UNL     1       5.783  33.641  52.159  1.00  0.00    -0.364 N 
HETATM   37  C   UNL     1       5.260  31.966  48.874  1.00  0.00     0.002 A 
HETATM   38  C   UNL     1       4.106  31.272  49.229  1.00  0.00     0.001 A 
HETATM   39  H   UNL     1       6.601  34.236  52.166  1.00  0.00     0.165 HD
HETATM   40  C   UNL     1       4.944  33.437  53.222  1.00  0.00     0.102 A 
ENDBRANCH  30  31
ENDBRANCH   3  29
TORSDOF 7
ENDMDL
MODEL 8
REMARK VINA RESULT:      -9.2      5.794      7.824
REMARK  7 active torsions:
REMARK  status: ('A' for Active; 'I' for Inactive)
REMARK    1  A    between atoms: C_4  and  C_5 
REMARK    2  A    between atoms: C_5  and  C_6 
REMARK    3  A    between atoms: C_6  and  N_7 
REMARK       I    between atoms: N_7  and  C_8 
REMARK    4  A    between atoms: C_8  and  C_9 
REMARK    5  A    between atoms: C_10  and  N_11 
REMARK    6  A    between atoms: N_12  and  N_13 
REMARK    7  A    between atoms: C_14  and  C_15 
ROOT
HETATM    1  C   UNL     1       6.344  32.146  60.122  1.00  0.00     0.110 A 
HETATM    2  C   UNL     1       5.089  32.174  59.524  1.00  0.00     0.143 A 
HETATM    3  N   UNL     1       4.204  32.823  60.389  1.00  0.00    -0.197 N 
HETATM    4  C   UNL     1       4.866  33.062  61.579  1.00  0.00     0.183 A 
HETATM    5  C   UNL     1       6.191  32.672  61.425  1.00  0.00     0.125 A 
HETATM    6  N   UNL     1       7.077  32.768  62.452  1.00  0.00    -0.242 NA
HETATM    7  C   UNL     1       6.559  33.239  63.600  1.00  0.00     0.086 A 
HETATM    8  C   UNL     1       5.203  33.645  63.722  1.00  0.00     0.088 A 
HETATM    9  N   UNL     1       4.330  33.583  62.708  1.00  0.00    -0.225 NA
HETATM   10  C   UNL     1       7.381  33.316  64.718  1.00  0.00     0.034 A 
HETATM   11  C   UNL     1       6.907  33.780  65.947  1.00  0.00     0.002 A 
HETATM   12  C   UNL     1       5.585  34.187  66.060  1.00  0.00     0.002 A 
HETATM   13  C   UNL     1       4.748  34.117  64.947  1.00  0.00     0.034 A 
ENDROOT
BRANCH   1  14
HETATM   14  C   UNL     1       7.533  31.607  59.491  1.00  0.00     0.257 C 
HETATM   15  N   UNL     1       7.550  30.221  59.480  1.00  0.00    -0.356 N 
HETATM   16  H   UNL     1       6.753  29.814  59.960  1.00  0.00     0.162 HD
HETATM   17  O   UNL     1       8.349  32.315  58.917  1.00  0.00    -0.267 OA
BRANCH  15  18
HETATM   18  C   UNL     1       7.929  29.491  58.287  1.00  0.00     0.127 C 
BRANCH  18  19
HETATM   19  C   UNL     1       6.816  29.021  57.349  1.00  0.00     0.058 C 
BRANCH  19  20
HETATM   20  C   UNL     1       6.871  27.511  57.253  1.00  0.00    -0.057 A 
HETATM   21  C   UNL     1       8.105  26.849  57.356  1.00  0.00     0.007 A 
HETATM   22  C   UNL     1       8.189  25.471  57.160  1.00  0.00     0.001 A 
HETATM   23  C   UNL     1       7.040  24.739  56.868  1.00  0.00     0.000 A 
HETATM   24  C   UNL     1       5.807  25.385  56.778  1.00  0.00     0.001 A 
HETATM   25  C   UNL     1       5.722  26.765  56.966  1.00  0.00     0.007 A 
ENDBRANCH  19  20
ENDBRANCH  18  19
ENDBRANCH  15  18
ENDBRANCH   1  14
BRANCH   2  26
HETATM   26  N   UNL     1       4.700  31.669  58.318  1.00  0.00    -0.383 N 
HETATM   27  H   UNL     1       4.315  30.726  58.286  1.00  0.00     0.157 HD
HETATM   28  H   UNL     1       5.267  31.856  57.495  1.00  0.00     0.157 HD
ENDBRANCH   2  26
BRANCH   3  29
HETATM   29  N   UNL     1       2.858  32.991  60.204  1.00  0.00    -0.176 NA
HETATM   30  C   UNL     1       2.437  34.109  59.699  1.00  0.00     0.153 C 
BRANCH  30  31
HETATM   31  C   UNL     1       3.205  35.307  59.427  1.00  0.00     0.011 A 
HETATM   32  C   UNL     1       3.528  36.345  60.360  1.00  0.00     0.004 A 
HETATM   33  C   UNL     1       4.306  37.285  59.685  1.00  0.00     0.043 A 
HETATM   34  C   UNL     1       3.202  36.587  61.711  1.00  0.00     0.014 A 
HETATM   35  C   UNL     1       4.788  38.449  60.295  1.00  0.00     0.030 A 
HETATM   36  N   UNL     1       4.466  36.827  58.395  1.00  0.00    -0.364 N 
HETATM   37  C   UNL     1       4.446  38.668  61.632  1.00  0.00     0.002 A 
HETATM   38  C   UNL     1       3.662  37.755  62.332  1.00  0.00     0.001 A 
HETATM   39  H   UNL     1       4.997  37.305  57.679  1.00  0.00     0.165 HD
HETATM   40  C   UNL     1       3.803  35.640  58.228  1.00  0.00     0.102 A 
ENDBRANCH  30  31
ENDBRANCH   3  29
TORSDOF 7
ENDMDL
MODEL 9
REMARK VINA RESULT:      -9.1      5.567      7.610
REMARK  7 active torsions:
REMARK  status: ('A' for Active; 'I' for Inactive)
REMARK    1  A    between atoms: C_4  and  C_5 
REMARK    2  A    between atoms: C_5  and  C_6 
REMARK    3  A    between atoms: C_6  and  N_7 
REMARK       I    between atoms: N_7  and  C_8 
REMARK    4  A    between atoms: C_8  and  C_9 
REMARK    5  A    between atoms: C_10  and  N_11 
REMARK    6  A    between atoms: N_12  and  N_13 
REMARK    7  A    between atoms: C_14  and  C_15 
ROOT
HETATM    1  C   UNL     1       6.478  32.247  60.543  1.00  0.00     0.110 A 
HETATM    2  C   UNL     1       5.231  32.158  59.934  1.00  0.00     0.143 A 
HETATM    3  N   UNL     1       4.283  32.727  60.787  1.00  0.00    -0.197 N 
HETATM    4  C   UNL     1       4.909  33.032  61.981  1.00  0.00     0.183 A 
HETATM    5  C   UNL     1       6.265  32.763  61.843  1.00  0.00     0.125 A 
HETATM    6  N   UNL     1       7.129  32.945  62.876  1.00  0.00    -0.242 NA
HETATM    7  C   UNL     1       6.559  33.372  64.017  1.00  0.00     0.086 A 
HETATM    8  C   UNL     1       5.171  33.655  64.124  1.00  0.00     0.088 A 
HETATM    9  N   UNL     1       4.317  33.508  63.102  1.00  0.00    -0.225 NA
HETATM   10  C   UNL     1       7.359  33.529  65.142  1.00  0.00     0.034 A 
HETATM   11  C   UNL     1       6.834  33.955  66.364  1.00  0.00     0.002 A 
HETATM   12  C   UNL     1       5.479  34.241  66.463  1.00  0.00     0.002 A 
HETATM   13  C   UNL     1       4.663  34.090  65.342  1.00  0.00     0.034 A 
ENDROOT
BRANCH   1  14
HETATM   14  C   UNL     1       7.716  31.815  59.927  1.00  0.00     0.257 C 
HETATM   15  N   UNL     1       7.854  30.436  59.914  1.00  0.00    -0.356 N 
HETATM   16  H   UNL     1       7.091  29.960  60.384  1.00  0.00     0.162 HD
HETATM   17  O   UNL     1       8.475  32.594  59.364  1.00  0.00    -0.267 OA
BRANCH  15  18
HETATM   18  C   UNL     1       8.311  29.744  58.725  1.00  0.00     0.127 C 
BRANCH  18  19
HETATM   19  C   UNL     1       7.365  29.680  57.526  1.00  0.00     0.058 C 
BRANCH  19  20
HETATM   20  C   UNL     1       6.936  28.242  57.324  1.00  0.00    -0.057 A 
HETATM   21  C   UNL     1       5.611  27.954  56.960  1.00  0.00     0.007 A 
HETATM   22  C   UNL     1       5.169  26.634  56.876  1.00  0.00     0.001 A 
HETATM   23  C   UNL     1       6.049  25.588  57.148  1.00  0.00     0.000 A 
HETATM   24  C   UNL     1       7.371  25.864  57.497  1.00  0.00     0.001 A 
HETATM   25  C   UNL     1       7.813  27.184  57.588  1.00  0.00     0.007 A 
ENDBRANCH  19  20
ENDBRANCH  18  19
ENDBRANCH  15  18
ENDBRANCH   1  14
BRANCH   2  26
HETATM   26  N   UNL     1       4.901  31.613  58.728  1.00  0.00    -0.383 N 
HETATM   27  H   UNL     1       4.015  31.877  58.300  1.00  0.00     0.157 HD
HETATM   28  H   UNL     1       5.109  30.633  58.551  1.00  0.00     0.157 HD
ENDBRANCH   2  26
BRANCH   3  29
HETATM   29  N   UNL     1       2.929  32.771  60.589  1.00  0.00    -0.176 NA
HETATM   30  C   UNL     1       2.406  33.863  60.121  1.00  0.00     0.153 C 
BRANCH  30  31
HETATM   31  C   UNL     1       3.057  35.139  59.907  1.00  0.00     0.011 A 
HETATM   32  C   UNL     1       3.697  35.580  58.703  1.00  0.00     0.004 A 
HETATM   33  C   UNL     1       4.158  36.877  58.928  1.00  0.00     0.043 A 
HETATM   34  C   UNL     1       3.953  34.982  57.451  1.00  0.00     0.014 A 
HETATM   35  C   UNL     1       4.851  37.614  57.960  1.00  0.00     0.030 A 
HETATM   36  N   UNL     1       3.797  37.218  60.213  1.00  0.00    -0.364 N 
HETATM   37  C   UNL     1       5.098  36.997  56.731  1.00  0.00     0.002 A 
HETATM   38  C   UNL     1       4.659  35.699  56.477  1.00  0.00     0.001 A 
HETATM   39  H   UNL     1       3.995  38.111  60.646  1.00  0.00     0.165 HD
HETATM   40  C   UNL     1       3.139  36.177  60.813  1.00  0.00     0.102 A 
ENDBRANCH  30  31
ENDBRANCH   3  29
TORSDOF 7
ENDMDL
MODEL 10
REMARK VINA RESULT:      -8.8      2.398      3.675
REMARK  7 active torsions:
REMARK  status: ('A' for Active; 'I' for Inactive)
REMARK    1  A    between atoms: C_4  and  C_5 
REMARK    2  A    between atoms: C_5  and  C_6 
REMARK    3  A    between atoms: C_6  and  N_7 
REMARK       I    between atoms: N_7  and  C_8 
REMARK    4  A    between atoms: C_8  and  C_9 
REMARK    5  A    between atoms: C_10  and  N_11 
REMARK    6  A    between atoms: N_12  and  N_13 
REMARK    7  A    between atoms: C_14  and  C_15 
ROOT
HETATM    1  C   UNL     1       5.074  30.283  56.732  1.00  0.00     0.110 A 
HETATM    2  C   UNL     1       3.899  31.021  56.814  1.00  0.00     0.143 A 
HETATM    3  N   UNL     1       4.070  32.015  57.782  1.00  0.00    -0.197 N 
HETATM    4  C   UNL     1       5.286  31.802  58.404  1.00  0.00     0.183 A 
HETATM    5  C   UNL     1       5.928  30.753  57.757  1.00  0.00     0.125 A 
HETATM    6  N   UNL     1       7.141  30.304  58.175  1.00  0.00    -0.242 NA
HETATM    7  C   UNL     1       7.633  30.936  59.256  1.00  0.00     0.086 A 
HETATM    8  C   UNL     1       6.961  32.017  59.887  1.00  0.00     0.088 A 
HETATM    9  N   UNL     1       5.779  32.486  59.463  1.00  0.00    -0.225 NA
HETATM   10  C   UNL     1       8.842  30.503  59.786  1.00  0.00     0.034 A 
HETATM   11  C   UNL     1       9.405  31.101  60.916  1.00  0.00     0.002 A 
HETATM   12  C   UNL     1       8.751  32.164  61.523  1.00  0.00     0.002 A 
HETATM   13  C   UNL     1       7.538  32.611  61.001  1.00  0.00     0.034 A 
ENDROOT
BRANCH   1  14
HETATM   14  C   UNL     1       5.292  29.204  55.789  1.00  0.00     0.257 C 
HETATM   15  N   UNL     1       6.550  29.248  55.208  1.00  0.00    -0.356 N 
HETATM   16  H   UNL     1       7.091  30.056  55.501  1.00  0.00     0.162 HD
HETATM   17  O   UNL     1       4.492  28.291  55.642  1.00  0.00    -0.267 OA
BRANCH  15  18
HETATM   18  C   UNL     1       7.350  28.047  55.074  1.00  0.00     0.127 C 
BRANCH  18  19
HETATM   19  C   UNL     1       7.632  27.528  53.663  1.00  0.00     0.058 C 
BRANCH  19  20
HETATM   20  C   UNL     1       7.479  26.022  53.663  1.00  0.00    -0.057 A 
HETATM   21  C   UNL     1       7.000  25.369  54.810  1.00  0.00     0.007 A 
HETATM   22  C   UNL     1       6.955  23.976  54.867  1.00  0.00     0.001 A 
HETATM   23  C   UNL     1       7.380  23.222  53.774  1.00  0.00     0.000 A 
HETATM   24  C   UNL     1       7.844  23.861  52.625  1.00  0.00     0.001 A 
HETATM   25  C   UNL     1       7.896  25.255  52.569  1.00  0.00     0.007 A 
ENDBRANCH  19  20
ENDBRANCH  18  19
ENDBRANCH  15  18
ENDBRANCH   1  14
BRANCH   2  26
HETATM   26  N   UNL     1       2.735  30.863  56.122  1.00  0.00    -0.383 N 
HETATM   27  H   UNL     1       1.867  30.752  56.646  1.00  0.00     0.157 HD
HETATM   28  H   UNL     1       2.728  30.284  55.286  1.00  0.00     0.157 HD
ENDBRANCH   2  26
BRANCH   3  29
HETATM   29  N   UNL     1       3.124  32.903  58.215  1.00  0.00    -0.176 NA
HETATM   30  C   UNL     1       2.987  34.024  57.576  1.00  0.00     0.153 C 
BRANCH  30  31
HETATM   31  C   UNL     1       3.824  34.551  56.518  1.00  0.00     0.011 A 
HETATM   32  C   UNL     1       3.588  34.444  55.109  1.00  0.00     0.004 A 
HETATM   33  C   UNL     1       4.624  35.118  54.461  1.00  0.00     0.043 A 
HETATM   34  C   UNL     1       2.605  33.806  54.323  1.00  0.00     0.014 A 
HETATM   35  C   UNL     1       4.719  35.201  53.067  1.00  0.00     0.030 A 
HETATM   36  N   UNL     1       5.447  35.631  55.439  1.00  0.00    -0.364 N 
HETATM   37  C   UNL     1       3.736  34.556  52.312  1.00  0.00     0.002 A 
HETATM   38  C   UNL     1       2.694  33.865  52.927  1.00  0.00     0.001 A 
HETATM   39  H   UNL     1       6.279  36.179  55.259  1.00  0.00     0.165 HD
HETATM   40  C   UNL     1       4.978  35.291  56.680  1.00  0.00     0.102 A 
ENDBRANCH  30  31
ENDBRANCH   3  29
TORSDOF 7
ENDMDL
