MODEL 1
REMARK VINA RESULT:     -11.1      0.000      0.000
REMARK  4 active torsions:
REMARK  status: ('A' for Active; 'I' for Inactive)
REMARK    1  A    between atoms: C_2  and  N_3 
REMARK    2  A    between atoms: C_10  and  C_11 
REMARK    3  A    between atoms: C_11  and  C_12 
REMARK       I    between atoms: C_12  and  N_13 
REMARK    4  A    between atoms: N_13  and  C_14 
ROOT
HETATM    1  C   UNL     1       7.227  28.049  57.784  1.00  0.00     0.035 A 
HETATM    2  C   UNL     1       7.645  26.770  57.412  1.00  0.00     0.049 A 
HETATM    3  C   UNL     1       6.908  25.994  56.492  1.00  0.00     0.061 A 
HETATM    4  C   UNL     1       5.730  26.510  55.935  1.00  0.00     0.050 A 
HETATM    5  N   UNL     1       4.956  25.908  54.928  1.00  0.00    -0.324 N 
HETATM    6  C   UNL     1       5.374  25.096  53.908  1.00  0.00     0.245 C 
HETATM    7  O   UNL     1       4.572  24.841  53.005  1.00  0.00    -0.271 OA
HETATM    8  C   UNL     1       6.854  24.723  53.830  1.00  0.00     0.180 C 
HETATM    9  N   UNL     1       7.268  24.035  55.042  1.00  0.00    -0.334 N 
HETATM   10  C   UNL     1       7.396  24.606  56.283  1.00  0.00     0.256 C 
HETATM   11  O   UNL     1       7.908  24.010  57.227  1.00  0.00    -0.267 OA
HETATM   12  C   UNL     1       7.156  23.728  52.703  1.00  0.00     0.037 C 
HETATM   13  C   UNL     1       8.253  22.847  53.286  1.00  0.00     0.022 C 
HETATM   14  C   UNL     1       7.850  22.737  54.746  1.00  0.00     0.127 C 
HETATM   15  C   UNL     1       5.260  27.749  56.394  1.00  0.00     0.033 A 
HETATM   16  C   UNL     1       6.006  28.516  57.296  1.00  0.00     0.032 A 
HETATM   17  H   UNL     1       4.019  26.261  54.766  1.00  0.00     0.169 HD
ENDROOT
BRANCH   1  18
HETATM   18  N   UNL     1       7.991  28.935  58.572  1.00  0.00    -0.327 N 
HETATM   19  C   UNL     1       8.884  29.895  58.125  1.00  0.00     0.226 C 
HETATM   20  O   UNL     1       9.333  29.978  56.984  1.00  0.00    -0.273 OA
HETATM   21  H   UNL     1       7.844  28.893  59.575  1.00  0.00     0.169 HD
BRANCH  19  22
HETATM   22  C   UNL     1       9.172  30.996  59.134  1.00  0.00     0.144 C 
BRANCH  22  23
HETATM   23  C   UNL     1       7.966  31.667  59.709  1.00  0.00    -0.021 A 
HETATM   24  C   UNL     1       7.769  32.079  61.064  1.00  0.00    -0.001 A 
HETATM   25  C   UNL     1       6.464  32.571  61.173  1.00  0.00     0.045 A 
HETATM   26  C   UNL     1       8.586  32.058  62.217  1.00  0.00     0.014 A 
HETATM   27  N   UNL     1       5.876  32.436  59.930  1.00  0.00    -0.351 N 
HETATM   28  C   UNL     1       5.959  33.056  62.392  1.00  0.00     0.030 A 
HETATM   29  C   UNL     1       6.794  31.940  59.036  1.00  0.00     0.100 A 
HETATM   30  C   UNL     1       6.792  33.032  63.514  1.00  0.00     0.002 A 
HETATM   31  C   UNL     1       8.088  32.538  63.431  1.00  0.00     0.001 A 
BRANCH  27  32
HETATM   32  C   UNL     1       4.474  32.709  59.606  1.00  0.00     0.081 C 
HETATM   33  C   UNL     1       3.848  31.574  58.790  1.00  0.00     0.032 C 
HETATM   34  C   UNL     1       4.310  34.057  58.905  1.00  0.00     0.032 C 
ENDBRANCH  27  32
ENDBRANCH  22  23
ENDBRANCH  19  22
ENDBRANCH   1  18
TORSDOF 4
ENDMDL
MODEL 2
REMARK VINA RESULT:     -10.5      6.174     10.578
REMARK  4 active torsions:
REMARK  status: ('A' for Active; 'I' for Inactive)
REMARK    1  A    between atoms: C_2  and  N_3 
REMARK    2  A    between atoms: C_10  and  C_11 
REMARK    3  A    between atoms: C_11  and  C_12 
REMARK       I    between atoms: C_12  and  N_13 
REMARK    4  A    between atoms: N_13  and  C_14 
ROOT
HETATM    1  C   UNL     1       4.673  26.775  49.117  1.00  0.00     0.035 A 
HETATM    2  C   UNL     1       4.309  27.968  48.492  1.00  0.00     0.049 A 
HETATM    3  C   UNL     1       3.211  28.030  47.607  1.00  0.00     0.061 A 
HETATM    4  C   UNL     1       2.465  26.874  47.344  1.00  0.00     0.050 A 
HETATM    5  N   UNL     1       1.287  26.803  46.581  1.00  0.00    -0.324 N 
HETATM    6  C   UNL     1       0.320  27.759  46.423  1.00  0.00     0.245 C 
HETATM    7  O   UNL     1      -0.739  27.428  45.884  1.00  0.00    -0.271 OA
HETATM    8  C   UNL     1       0.515  29.115  47.100  1.00  0.00     0.180 C 
HETATM    9  N   UNL     1       1.738  29.746  46.629  1.00  0.00    -0.334 N 
HETATM   10  C   UNL     1       3.014  29.330  46.914  1.00  0.00     0.256 C 
HETATM   11  O   UNL     1       4.001  30.002  46.623  1.00  0.00    -0.267 OA
HETATM   12  C   UNL     1      -0.592  30.118  46.749  1.00  0.00     0.037 C 
HETATM   13  C   UNL     1       0.141  31.451  46.682  1.00  0.00     0.022 C 
HETATM   14  C   UNL     1       1.480  31.065  46.079  1.00  0.00     0.127 C 
HETATM   15  C   UNL     1       2.901  25.658  47.891  1.00  0.00     0.033 A 
HETATM   16  C   UNL     1       3.982  25.611  48.778  1.00  0.00     0.032 A 
HETATM   17  H   UNL     1       0.964  25.890  46.279  1.00  0.00     0.169 HD
ENDROOT
BRANCH   1  18
HETATM   18  N   UNL     1       5.654  26.675  50.126  1.00  0.00    -0.327 N 
HETATM   19  C   UNL     1       5.688  25.769  51.174  1.00  0.00     0.226 C 
HETATM   20  O   UNL     1       4.754  25.055  51.532  1.00  0.00    -0.273 OA
HETATM   21  H   UNL     1       6.441  27.310  50.059  1.00  0.00     0.169 HD
BRANCH  19  22
HETATM   22  C   UNL     1       7.066  25.578  51.788  1.00  0.00     0.144 C 
BRANCH  22  23
HETATM   23  C   UNL     1       7.076  25.017  53.173  1.00  0.00    -0.021 A 
HETATM   24  C   UNL     1       7.405  23.680  53.563  1.00  0.00    -0.001 A 
HETATM   25  C   UNL     1       7.186  23.573  54.941  1.00  0.00     0.045 A 
HETATM   26  C   UNL     1       7.853  22.542  52.856  1.00  0.00     0.014 A 
HETATM   27  N   UNL     1       6.711  24.799  55.371  1.00  0.00    -0.351 N 
HETATM   28  C   UNL     1       7.418  22.372  55.633  1.00  0.00     0.030 A 
HETATM   29  C   UNL     1       6.693  25.682  54.319  1.00  0.00     0.100 A 
HETATM   30  C   UNL     1       7.871  21.265  54.910  1.00  0.00     0.002 A 
HETATM   31  C   UNL     1       8.084  21.346  53.539  1.00  0.00     0.001 A 
BRANCH  27  32
HETATM   32  C   UNL     1       6.232  25.111  56.719  1.00  0.00     0.081 C 
HETATM   33  C   UNL     1       5.109  26.151  56.695  1.00  0.00     0.032 C 
HETATM   34  C   UNL     1       7.375  25.544  57.636  1.00  0.00     0.032 C 
ENDBRANCH  27  32
ENDBRANCH  22  23
ENDBRANCH  19  22
ENDBRANCH   1  18
TORSDOF 4
ENDMDL
MODEL 3
REMARK VINA RESULT:     -10.4      1.914      9.725
REMARK  4 active torsions:
REMARK  status: ('A' for Active; 'I' for Inactive)
REMARK    1  A    between atoms: C_2  and  N_3 
REMARK    2  A    between atoms: C_10  and  C_11 
REMARK    3  A    between atoms: C_11  and  C_12 
REMARK       I    between atoms: C_12  and  N_13 
REMARK    4  A    between atoms: N_13  and  C_14 
ROOT
HETATM    1  C   UNL     1       6.183  28.580  57.253  1.00  0.00     0.035 A 
HETATM    2  C   UNL     1       7.192  29.148  58.032  1.00  0.00     0.049 A 
HETATM    3  C   UNL     1       7.051  30.436  58.594  1.00  0.00     0.061 A 
HETATM    4  C   UNL     1       5.877  31.167  58.369  1.00  0.00     0.050 A 
HETATM    5  N   UNL     1       5.546  32.403  58.950  1.00  0.00    -0.324 N 
HETATM    6  C   UNL     1       5.902  32.884  60.182  1.00  0.00     0.245 C 
HETATM    7  O   UNL     1       5.337  33.902  60.591  1.00  0.00    -0.271 OA
HETATM    8  C   UNL     1       6.814  32.032  61.063  1.00  0.00     0.180 C 
HETATM    9  N   UNL     1       8.077  31.776  60.389  1.00  0.00    -0.334 N 
HETATM   10  C   UNL     1       8.249  30.969  59.293  1.00  0.00     0.256 C 
HETATM   11  O   UNL     1       9.363  30.665  58.874  1.00  0.00    -0.267 OA
HETATM   12  C   UNL     1       7.213  32.742  62.363  1.00  0.00     0.037 C 
HETATM   13  C   UNL     1       8.646  32.282  62.599  1.00  0.00     0.022 C 
HETATM   14  C   UNL     1       9.207  32.212  61.190  1.00  0.00     0.127 C 
HETATM   15  C   UNL     1       4.914  30.635  57.499  1.00  0.00     0.033 A 
HETATM   16  C   UNL     1       5.058  29.352  56.959  1.00  0.00     0.032 A 
HETATM   17  H   UNL     1       4.782  32.935  58.546  1.00  0.00     0.169 HD
ENDROOT
BRANCH   1  18
HETATM   18  N   UNL     1       6.190  27.246  56.794  1.00  0.00    -0.327 N 
HETATM   19  C   UNL     1       6.856  26.170  57.359  1.00  0.00     0.226 C 
HETATM   20  O   UNL     1       7.734  26.243  58.216  1.00  0.00    -0.273 OA
HETATM   21  H   UNL     1       5.617  27.041  55.983  1.00  0.00     0.169 HD
BRANCH  19  22
HETATM   22  C   UNL     1       6.300  24.813  56.957  1.00  0.00     0.144 C 
BRANCH  22  23
HETATM   23  C   UNL     1       7.032  24.126  55.850  1.00  0.00    -0.021 A 
HETATM   24  C   UNL     1       7.126  24.543  54.485  1.00  0.00    -0.001 A 
HETATM   25  C   UNL     1       7.824  23.552  53.786  1.00  0.00     0.045 A 
HETATM   26  C   UNL     1       6.660  25.673  53.778  1.00  0.00     0.014 A 
HETATM   27  N   UNL     1       8.120  22.550  54.691  1.00  0.00    -0.351 N 
HETATM   28  C   UNL     1       8.083  23.666  52.408  1.00  0.00     0.030 A 
HETATM   29  C   UNL     1       7.689  22.917  55.943  1.00  0.00     0.100 A 
HETATM   30  C   UNL     1       7.618  24.799  51.736  1.00  0.00     0.002 A 
HETATM   31  C   UNL     1       6.914  25.790  52.409  1.00  0.00     0.001 A 
BRANCH  27  32
HETATM   32  C   UNL     1       8.736  21.259  54.377  1.00  0.00     0.081 C 
HETATM   33  C   UNL     1       7.949  20.501  53.304  1.00  0.00     0.032 C 
HETATM   34  C   UNL     1       8.934  20.409  55.631  1.00  0.00     0.032 C 
ENDBRANCH  27  32
ENDBRANCH  22  23
ENDBRANCH  19  22
ENDBRANCH   1  18
TORSDOF 4
ENDMDL
MODEL 4
REMARK VINA RESULT:     -10.4      0.635      2.476
REMARK  4 active torsions:
REMARK  status: ('A' for Active; 'I' for Inactive)
REMARK    1  A    between atoms: C_2  and  N_3 
REMARK    2  A    between atoms: C_10  and  C_11 
REMARK    3  A    between atoms: C_11  and  C_12 
REMARK       I    between atoms: C_12  and  N_13 
REMARK    4  A    between atoms: N_13  and  C_14 
ROOT
HETATM    1  C   UNL     1       7.303  28.206  57.732  1.00  0.00     0.035 A 
HETATM    2  C   UNL     1       7.761  26.937  57.373  1.00  0.00     0.049 A 
HETATM    3  C   UNL     1       7.014  26.100  56.516  1.00  0.00     0.061 A 
HETATM    4  C   UNL     1       5.785  26.544  56.011  1.00  0.00     0.050 A 
HETATM    5  N   UNL     1       4.988  25.877  55.065  1.00  0.00    -0.324 N 
HETATM    6  C   UNL     1       5.389  25.055  54.046  1.00  0.00     0.245 C 
HETATM    7  O   UNL     1       4.553  24.736  53.197  1.00  0.00    -0.271 OA
HETATM    8  C   UNL     1       6.878  24.749  53.898  1.00  0.00     0.180 C 
HETATM    9  N   UNL     1       7.389  24.117  55.104  1.00  0.00    -0.334 N 
HETATM   10  C   UNL     1       7.555  24.731  56.320  1.00  0.00     0.256 C 
HETATM   11  O   UNL     1       8.145  24.187  57.251  1.00  0.00    -0.267 OA
HETATM   12  C   UNL     1       7.167  23.734  52.783  1.00  0.00     0.037 C 
HETATM   13  C   UNL     1       8.334  22.923  53.330  1.00  0.00     0.022 C 
HETATM   14  C   UNL     1       8.015  22.839  54.812  1.00  0.00     0.127 C 
HETATM   15  C   UNL     1       5.282  27.774  56.460  1.00  0.00     0.033 A 
HETATM   16  C   UNL     1       6.037  28.601  57.299  1.00  0.00     0.032 A 
HETATM   17  H   UNL     1       4.028  26.181  54.945  1.00  0.00     0.169 HD
ENDROOT
BRANCH   1  18
HETATM   18  N   UNL     1       8.065  29.150  58.452  1.00  0.00    -0.327 N 
HETATM   19  C   UNL     1       8.943  30.088  57.934  1.00  0.00     0.226 C 
HETATM   20  O   UNL     1       9.379  30.100  56.784  1.00  0.00    -0.273 OA
HETATM   21  H   UNL     1       7.929  29.172  59.457  1.00  0.00     0.169 HD
BRANCH  19  22
HETATM   22  C   UNL     1       9.229  31.255  58.865  1.00  0.00     0.144 C 
BRANCH  22  23
HETATM   23  C   UNL     1       8.081  31.688  59.718  1.00  0.00    -0.021 A 
HETATM   24  C   UNL     1       6.761  32.030  59.284  1.00  0.00    -0.001 A 
HETATM   25  C   UNL     1       6.046  32.467  60.404  1.00  0.00     0.045 A 
HETATM   26  C   UNL     1       6.116  32.022  58.027  1.00  0.00     0.014 A 
HETATM   27  N   UNL     1       6.912  32.421  61.481  1.00  0.00    -0.351 N 
HETATM   28  C   UNL     1       4.705  32.881  60.308  1.00  0.00     0.030 A 
HETATM   29  C   UNL     1       8.120  31.904  61.079  1.00  0.00     0.100 A 
HETATM   30  C   UNL     1       4.090  32.854  59.054  1.00  0.00     0.002 A 
HETATM   31  C   UNL     1       4.785  32.433  57.926  1.00  0.00     0.001 A 
BRANCH  27  32
HETATM   32  C   UNL     1       6.631  32.904  62.834  1.00  0.00     0.081 C 
HETATM   33  C   UNL     1       6.216  34.378  62.836  1.00  0.00     0.032 C 
HETATM   34  C   UNL     1       7.806  32.653  63.778  1.00  0.00     0.032 C 
ENDBRANCH  27  32
ENDBRANCH  22  23
ENDBRANCH  19  22
ENDBRANCH   1  18
TORSDOF 4
ENDMDL
MODEL 5
REMARK VINA RESULT:     -10.0      2.257      3.606
REMARK  4 active torsions:
REMARK  status: ('A' for Active; 'I' for Inactive)
REMARK    1  A    between atoms: C_2  and  N_3 
REMARK    2  A    between atoms: C_10  and  C_11 
REMARK    3  A    between atoms: C_11  and  C_12 
REMARK       I    between atoms: C_12  and  N_13 
REMARK    4  A    between atoms: N_13  and  C_14 
ROOT
HETATM    1  C   UNL     1       4.655  29.907  55.469  1.00  0.00     0.035 A 
HETATM    2  C   UNL     1       5.231  28.643  55.602  1.00  0.00     0.049 A 
HETATM    3  C   UNL     1       5.095  27.663  54.596  1.00  0.00     0.061 A 
HETATM    4  C   UNL     1       4.366  27.955  53.436  1.00  0.00     0.050 A 
HETATM    5  N   UNL     1       4.238  27.129  52.306  1.00  0.00    -0.324 N 
HETATM    6  C   UNL     1       5.142  26.229  51.807  1.00  0.00     0.245 C 
HETATM    7  O   UNL     1       4.929  25.756  50.687  1.00  0.00    -0.271 OA
HETATM    8  C   UNL     1       6.455  26.018  52.559  1.00  0.00     0.180 C 
HETATM    9  N   UNL     1       6.195  25.565  53.916  1.00  0.00    -0.334 N 
HETATM   10  C   UNL     1       5.649  26.323  54.922  1.00  0.00     0.256 C 
HETATM   11  O   UNL     1       5.609  25.932  56.086  1.00  0.00    -0.267 OA
HETATM   12  C   UNL     1       7.318  24.909  51.945  1.00  0.00     0.037 C 
HETATM   13  C   UNL     1       7.972  24.252  53.153  1.00  0.00     0.022 C 
HETATM   14  C   UNL     1       6.873  24.312  54.199  1.00  0.00     0.127 C 
HETATM   15  C   UNL     1       3.701  29.187  53.357  1.00  0.00     0.033 A 
HETATM   16  C   UNL     1       3.854  30.157  54.354  1.00  0.00     0.032 A 
HETATM   17  H   UNL     1       3.514  27.347  51.630  1.00  0.00     0.169 HD
ENDROOT
BRANCH   1  18
HETATM   18  N   UNL     1       4.881  30.980  56.357  1.00  0.00    -0.327 N 
HETATM   19  C   UNL     1       4.200  31.251  57.532  1.00  0.00     0.226 C 
HETATM   20  O   UNL     1       3.137  30.739  57.877  1.00  0.00    -0.273 OA
HETATM   21  H   UNL     1       5.651  31.601  56.133  1.00  0.00     0.169 HD
BRANCH  19  22
HETATM   22  C   UNL     1       4.959  32.147  58.500  1.00  0.00     0.144 C 
BRANCH  22  23
HETATM   23  C   UNL     1       6.288  31.628  58.942  1.00  0.00    -0.021 A 
HETATM   24  C   UNL     1       6.958  31.902  60.176  1.00  0.00    -0.001 A 
HETATM   25  C   UNL     1       8.214  31.287  60.124  1.00  0.00     0.045 A 
HETATM   26  C   UNL     1       6.609  32.639  61.330  1.00  0.00     0.014 A 
HETATM   27  N   UNL     1       8.317  30.683  58.885  1.00  0.00    -0.351 N 
HETATM   28  C   UNL     1       9.121  31.374  61.194  1.00  0.00     0.030 A 
HETATM   29  C   UNL     1       7.140  30.842  58.193  1.00  0.00     0.100 A 
HETATM   30  C   UNL     1       8.747  32.101  62.327  1.00  0.00     0.002 A 
HETATM   31  C   UNL     1       7.509  32.728  62.395  1.00  0.00     0.001 A 
BRANCH  27  32
HETATM   32  C   UNL     1       9.508  30.024  58.344  1.00  0.00     0.081 C 
HETATM   33  C   UNL     1      10.501  31.036  57.766  1.00  0.00     0.032 C 
HETATM   34  C   UNL     1       9.143  28.951  57.320  1.00  0.00     0.032 C 
ENDBRANCH  27  32
ENDBRANCH  22  23
ENDBRANCH  19  22
ENDBRANCH   1  18
TORSDOF 4
ENDMDL
MODEL 6
REMARK VINA RESULT:      -9.8      5.347      8.785
REMARK  4 active torsions:
REMARK  status: ('A' for Active; 'I' for Inactive)
REMARK    1  A    between atoms: C_2  and  N_3 
REMARK    2  A    between atoms: C_10  and  C_11 
REMARK    3  A    between atoms: C_11  and  C_12 
REMARK       I    between atoms: C_12  and  N_13 
REMARK    4  A    between atoms: N_13  and  C_14 
ROOT
HETATM    1  C   UNL     1       5.375  26.480  55.081  1.00  0.00     0.035 A 
HETATM    2  C   UNL     1       6.159  25.616  54.315  1.00  0.00     0.049 A 
HETATM    3  C   UNL     1       7.016  24.671  54.918  1.00  0.00     0.061 A 
HETATM    4  C   UNL     1       7.088  24.591  56.315  1.00  0.00     0.050 A 
HETATM    5  N   UNL     1       7.804  23.634  57.055  1.00  0.00    -0.324 N 
HETATM    6  C   UNL     1       8.076  22.334  56.721  1.00  0.00     0.245 C 
HETATM    7  O   UNL     1       8.535  21.596  57.596  1.00  0.00    -0.271 OA
HETATM    8  C   UNL     1       7.610  21.816  55.361  1.00  0.00     0.180 C 
HETATM    9  N   UNL     1       8.198  22.602  54.289  1.00  0.00    -0.334 N 
HETATM   10  C   UNL     1       7.886  23.905  53.989  1.00  0.00     0.256 C 
HETATM   11  O   UNL     1       8.297  24.456  52.971  1.00  0.00    -0.267 OA
HETATM   12  C   UNL     1       8.076  20.381  55.082  1.00  0.00     0.037 C 
HETATM   13  C   UNL     1       8.355  20.379  53.585  1.00  0.00     0.022 C 
HETATM   14  C   UNL     1       8.928  21.766  53.352  1.00  0.00     0.127 C 
HETATM   15  C   UNL     1       6.380  25.532  57.076  1.00  0.00     0.033 A 
HETATM   16  C   UNL     1       5.523  26.456  56.468  1.00  0.00     0.032 A 
HETATM   17  H   UNL     1       7.961  23.808  58.041  1.00  0.00     0.169 HD
ENDROOT
BRANCH   1  18
HETATM   18  N   UNL     1       4.386  27.336  54.550  1.00  0.00    -0.327 N 
HETATM   19  C   UNL     1       4.584  28.446  53.745  1.00  0.00     0.226 C 
HETATM   20  O   UNL     1       5.662  29.004  53.551  1.00  0.00    -0.273 OA
HETATM   21  H   UNL     1       3.422  27.093  54.747  1.00  0.00     0.169 HD
BRANCH  19  22
HETATM   22  C   UNL     1       3.360  28.862  52.946  1.00  0.00     0.144 C 
BRANCH  22  23
HETATM   23  C   UNL     1       3.450  28.631  51.472  1.00  0.00    -0.021 A 
HETATM   24  C   UNL     1       2.629  29.209  50.454  1.00  0.00    -0.001 A 
HETATM   25  C   UNL     1       3.003  28.639  49.232  1.00  0.00     0.045 A 
HETATM   26  C   UNL     1       1.581  30.157  50.468  1.00  0.00     0.014 A 
HETATM   27  N   UNL     1       4.002  27.722  49.502  1.00  0.00    -0.351 N 
HETATM   28  C   UNL     1       2.375  29.001  48.027  1.00  0.00     0.030 A 
HETATM   29  C   UNL     1       4.307  27.754  50.842  1.00  0.00     0.100 A 
HETATM   30  C   UNL     1       1.349  29.948  48.070  1.00  0.00     0.002 A 
HETATM   31  C   UNL     1       0.954  30.519  49.274  1.00  0.00     0.001 A 
BRANCH  27  32
HETATM   32  C   UNL     1       4.609  26.802  48.539  1.00  0.00     0.081 C 
HETATM   33  C   UNL     1       5.367  27.550  47.439  1.00  0.00     0.032 C 
HETATM   34  C   UNL     1       3.578  25.839  47.952  1.00  0.00     0.032 C 
ENDBRANCH  27  32
ENDBRANCH  22  23
ENDBRANCH  19  22
ENDBRANCH   1  18
TORSDOF 4
ENDMDL
MODEL 7
REMARK VINA RESULT:      -9.8      2.877      4.005
REMARK  4 active torsions:
REMARK  status: ('A' for Active; 'I' for Inactive)
REMARK    1  A    between atoms: C_2  and  N_3 
REMARK    2  A    between atoms: C_10  and  C_11 
REMARK    3  A    between atoms: C_11  and  C_12 
REMARK       I    between atoms: C_12  and  N_13 
REMARK    4  A    between atoms: N_13  and  C_14 
ROOT
HETATM    1  C   UNL     1       8.514  30.148  58.750  1.00  0.00     0.035 A 
HETATM    2  C   UNL     1       7.348  30.295  57.999  1.00  0.00     0.049 A 
HETATM    3  C   UNL     1       7.274  29.850  56.661  1.00  0.00     0.061 A 
HETATM    4  C   UNL     1       8.390  29.248  56.067  1.00  0.00     0.050 A 
HETATM    5  N   UNL     1       8.434  28.658  54.792  1.00  0.00    -0.324 N 
HETATM    6  C   UNL     1       7.425  28.024  54.116  1.00  0.00     0.245 C 
HETATM    7  O   UNL     1       7.720  27.389  53.100  1.00  0.00    -0.271 OA
HETATM    8  C   UNL     1       6.041  27.963  54.759  1.00  0.00     0.180 C 
HETATM    9  N   UNL     1       5.534  29.304  55.003  1.00  0.00    -0.334 N 
HETATM   10  C   UNL     1       6.018  30.183  55.940  1.00  0.00     0.256 C 
HETATM   11  O   UNL     1       5.441  31.234  56.208  1.00  0.00    -0.267 OA
HETATM   12  C   UNL     1       4.990  27.319  53.844  1.00  0.00     0.037 C 
HETATM   13  C   UNL     1       3.721  28.103  54.148  1.00  0.00     0.022 C 
HETATM   14  C   UNL     1       4.244  29.511  54.370  1.00  0.00     0.127 C 
HETATM   15  C   UNL     1       9.590  29.202  56.791  1.00  0.00     0.033 A 
HETATM   16  C   UNL     1       9.648  29.633  58.121  1.00  0.00     0.032 A 
HETATM   17  H   UNL     1       9.341  28.456  54.385  1.00  0.00     0.169 HD
ENDROOT
BRANCH   1  18
HETATM   18  N   UNL     1       8.609  30.425  60.130  1.00  0.00    -0.327 N 
HETATM   19  C   UNL     1       9.094  31.581  60.721  1.00  0.00     0.226 C 
HETATM   20  O   UNL     1       9.735  32.460  60.150  1.00  0.00    -0.273 OA
HETATM   21  H   UNL     1       8.250  29.718  60.762  1.00  0.00     0.169 HD
BRANCH  19  22
HETATM   22  C   UNL     1       8.629  31.791  62.153  1.00  0.00     0.144 C 
BRANCH  22  23
HETATM   23  C   UNL     1       7.347  32.545  62.305  1.00  0.00    -0.021 A 
HETATM   24  C   UNL     1       6.824  33.130  63.500  1.00  0.00    -0.001 A 
HETATM   25  C   UNL     1       5.559  33.649  63.200  1.00  0.00     0.045 A 
HETATM   26  C   UNL     1       7.311  33.248  64.821  1.00  0.00     0.014 A 
HETATM   27  N   UNL     1       5.309  33.361  61.871  1.00  0.00    -0.351 N 
HETATM   28  C   UNL     1       4.777  34.293  64.175  1.00  0.00     0.030 A 
HETATM   29  C   UNL     1       6.404  32.744  61.318  1.00  0.00     0.100 A 
HETATM   30  C   UNL     1       5.287  34.404  65.471  1.00  0.00     0.002 A 
HETATM   31  C   UNL     1       6.537  33.887  65.793  1.00  0.00     0.001 A 
BRANCH  27  32
HETATM   32  C   UNL     1       4.053  33.608  61.159  1.00  0.00     0.081 C 
HETATM   33  C   UNL     1       3.447  32.312  60.613  1.00  0.00     0.032 C 
HETATM   34  C   UNL     1       4.228  34.652  60.056  1.00  0.00     0.032 C 
ENDBRANCH  27  32
ENDBRANCH  22  23
ENDBRANCH  19  22
ENDBRANCH   1  18
TORSDOF 4
ENDMDL
MODEL 8
REMARK VINA RESULT:      -9.7      5.868     10.162
REMARK  4 active torsions:
REMARK  status: ('A' for Active; 'I' for Inactive)
REMARK    1  A    between atoms: C_2  and  N_3 
REMARK    2  A    between atoms: C_10  and  C_11 
REMARK    3  A    between atoms: C_11  and  C_12 
REMARK       I    between atoms: C_12  and  N_13 
REMARK    4  A    between atoms: N_13  and  C_14 
ROOT
HETATM    1  C   UNL     1       5.358  28.037  51.119  1.00  0.00     0.035 A 
HETATM    2  C   UNL     1       5.375  28.395  49.770  1.00  0.00     0.049 A 
HETATM    3  C   UNL     1       4.609  29.477  49.287  1.00  0.00     0.061 A 
HETATM    4  C   UNL     1       3.811  30.213  50.172  1.00  0.00     0.050 A 
HETATM    5  N   UNL     1       3.086  31.377  49.863  1.00  0.00    -0.324 N 
HETATM    6  C   UNL     1       3.389  32.346  48.943  1.00  0.00     0.245 C 
HETATM    7  O   UNL     1       2.738  33.393  48.971  1.00  0.00    -0.271 OA
HETATM    8  C   UNL     1       4.637  32.168  48.079  1.00  0.00     0.180 C 
HETATM    9  N   UNL     1       4.548  30.941  47.305  1.00  0.00    -0.334 N 
HETATM   10  C   UNL     1       4.622  29.668  47.813  1.00  0.00     0.256 C 
HETATM   11  O   UNL     1       4.706  28.679  47.088  1.00  0.00    -0.267 OA
HETATM   12  C   UNL     1       4.790  33.273  47.026  1.00  0.00     0.037 C 
HETATM   13  C   UNL     1       5.384  32.546  45.827  1.00  0.00     0.022 C 
HETATM   14  C   UNL     1       4.694  31.195  45.883  1.00  0.00     0.127 C 
HETATM   15  C   UNL     1       3.715  29.781  51.503  1.00  0.00     0.033 A 
HETATM   16  C   UNL     1       4.490  28.716  51.974  1.00  0.00     0.032 A 
HETATM   17  H   UNL     1       2.377  31.690  50.517  1.00  0.00     0.169 HD
ENDROOT
BRANCH   1  18
HETATM   18  N   UNL     1       6.213  27.073  51.695  1.00  0.00    -0.327 N 
HETATM   19  C   UNL     1       6.033  25.700  51.715  1.00  0.00     0.226 C 
HETATM   20  O   UNL     1       4.990  25.112  51.440  1.00  0.00    -0.273 OA
HETATM   21  H   UNL     1       7.072  27.418  52.109  1.00  0.00     0.169 HD
BRANCH  19  22
HETATM   22  C   UNL     1       7.309  24.908  51.954  1.00  0.00     0.144 C 
BRANCH  22  23
HETATM   23  C   UNL     1       7.456  24.332  53.325  1.00  0.00    -0.021 A 
HETATM   24  C   UNL     1       7.638  22.956  53.670  1.00  0.00    -0.001 A 
HETATM   25  C   UNL     1       7.630  22.863  55.067  1.00  0.00     0.045 A 
HETATM   26  C   UNL     1       7.790  21.773  52.913  1.00  0.00     0.014 A 
HETATM   27  N   UNL     1       7.421  24.140  55.555  1.00  0.00    -0.351 N 
HETATM   28  C   UNL     1       7.786  21.631  55.725  1.00  0.00     0.030 A 
HETATM   29  C   UNL     1       7.368  25.031  54.510  1.00  0.00     0.100 A 
HETATM   30  C   UNL     1       7.944  20.479  54.950  1.00  0.00     0.002 A 
HETATM   31  C   UNL     1       7.945  20.546  53.562  1.00  0.00     0.001 A 
BRANCH  27  32
HETATM   32  C   UNL     1       7.218  24.502  56.959  1.00  0.00     0.081 C 
HETATM   33  C   UNL     1       5.971  25.371  57.146  1.00  0.00     0.032 C 
HETATM   34  C   UNL     1       8.457  25.168  57.554  1.00  0.00     0.032 C 
ENDBRANCH  27  32
ENDBRANCH  22  23
ENDBRANCH  19  22
ENDBRANCH   1  18
TORSDOF 4
ENDMDL
MODEL 9
REMARK VINA RESULT:      -9.7      5.440      8.482
REMARK  4 active torsions:
REMARK  status: ('A' for Active; 'I' for Inactive)
REMARK    1  A    between atoms: C_2  and  N_3 
REMARK    2  A    between atoms: C_10  and  C_11 
REMARK    3  A    between atoms: C_11  and  C_12 
REMARK       I    between atoms: C_12  and  N_13 
REMARK    4  A    between atoms: N_13  and  C_14 
ROOT
HETATM    1  C   UNL     1       5.320  26.408  54.847  1.00  0.00     0.035 A 
HETATM    2  C   UNL     1       6.133  25.511  54.153  1.00  0.00     0.049 A 
HETATM    3  C   UNL     1       6.993  24.621  54.832  1.00  0.00     0.061 A 
HETATM    4  C   UNL     1       7.038  24.632  56.233  1.00  0.00     0.050 A 
HETATM    5  N   UNL     1       7.753  23.736  57.046  1.00  0.00    -0.324 N 
HETATM    6  C   UNL     1       8.053  22.422  56.801  1.00  0.00     0.245 C 
HETATM    7  O   UNL     1       8.505  21.749  57.731  1.00  0.00    -0.271 OA
HETATM    8  C   UNL     1       7.622  21.810  55.469  1.00  0.00     0.180 C 
HETATM    9  N   UNL     1       8.219  22.537  54.360  1.00  0.00    -0.334 N 
HETATM   10  C   UNL     1       7.893  23.812  53.971  1.00  0.00     0.256 C 
HETATM   11  O   UNL     1       8.316  24.304  52.928  1.00  0.00    -0.267 OA
HETATM   12  C   UNL     1       8.116  20.369  55.292  1.00  0.00     0.037 C 
HETATM   13  C   UNL     1       8.426  20.276  53.804  1.00  0.00     0.022 C 
HETATM   14  C   UNL     1       8.981  21.655  53.493  1.00  0.00     0.127 C 
HETATM   15  C   UNL     1       6.300  25.607  56.918  1.00  0.00     0.033 A 
HETATM   16  C   UNL     1       5.441  26.476  56.235  1.00  0.00     0.032 A 
HETATM   17  H   UNL     1       7.888  23.975  58.022  1.00  0.00     0.169 HD
ENDROOT
BRANCH   1  18
HETATM   18  N   UNL     1       4.330  27.212  54.244  1.00  0.00    -0.327 N 
HETATM   19  C   UNL     1       4.527  28.294  53.402  1.00  0.00     0.226 C 
HETATM   20  O   UNL     1       5.595  28.876  53.226  1.00  0.00    -0.273 OA
HETATM   21  H   UNL     1       3.365  26.948  54.413  1.00  0.00     0.169 HD
BRANCH  19  22
HETATM   22  C   UNL     1       3.324  28.640  52.539  1.00  0.00     0.144 C 
BRANCH  22  23
HETATM   23  C   UNL     1       3.644  29.168  51.178  1.00  0.00    -0.021 A 
HETATM   24  C   UNL     1       4.081  28.420  50.040  1.00  0.00    -0.001 A 
HETATM   25  C   UNL     1       4.354  29.330  49.013  1.00  0.00     0.045 A 
HETATM   26  C   UNL     1       4.286  27.043  49.800  1.00  0.00     0.014 A 
HETATM   27  N   UNL     1       4.119  30.595  49.520  1.00  0.00    -0.351 N 
HETATM   28  C   UNL     1       4.809  28.904  47.753  1.00  0.00     0.030 A 
HETATM   29  C   UNL     1       3.643  30.496  50.805  1.00  0.00     0.100 A 
HETATM   30  C   UNL     1       4.994  27.536  47.540  1.00  0.00     0.002 A 
HETATM   31  C   UNL     1       4.739  26.615  48.550  1.00  0.00     0.001 A 
BRANCH  27  32
HETATM   32  C   UNL     1       4.391  31.861  48.836  1.00  0.00     0.081 C 
HETATM   33  C   UNL     1       5.737  32.457  49.258  1.00  0.00     0.032 C 
HETATM   34  C   UNL     1       3.251  32.861  49.028  1.00  0.00     0.032 C 
ENDBRANCH  27  32
ENDBRANCH  22  23
ENDBRANCH  19  22
ENDBRANCH   1  18
TORSDOF 4
ENDMDL
MODEL 10
REMARK VINA RESULT:      -9.6      2.043      3.249
REMARK  4 active torsions:
REMARK  status: ('A' for Active; 'I' for Inactive)
REMARK    1  A    between atoms: C_2  and  N_3 
REMARK    2  A    between atoms: C_10  and  C_11 
REMARK    3  A    between atoms: C_11  and  C_12 
REMARK       I    between atoms: C_12  and  N_13 
REMARK    4  A    between atoms: N_13  and  C_14 
ROOT
HETATM    1  C   UNL     1       4.690  29.980  55.502  1.00  0.00     0.035 A 
HETATM    2  C   UNL     1       5.263  28.781  55.929  1.00  0.00     0.049 A 
HETATM    3  C   UNL     1       5.100  27.586  55.196  1.00  0.00     0.061 A 
HETATM    4  C   UNL     1       4.349  27.594  54.014  1.00  0.00     0.050 A 
HETATM    5  N   UNL     1       4.194  26.517  53.123  1.00  0.00    -0.324 N 
HETATM    6  C   UNL     1       5.082  25.513  52.842  1.00  0.00     0.245 C 
HETATM    7  O   UNL     1       4.844  24.783  51.877  1.00  0.00    -0.271 OA
HETATM    8  C   UNL     1       6.409  25.480  53.599  1.00  0.00     0.180 C 
HETATM    9  N   UNL     1       6.175  25.375  55.030  1.00  0.00    -0.334 N 
HETATM   10  C   UNL     1       5.654  26.361  55.830  1.00  0.00     0.256 C 
HETATM   11  O   UNL     1       5.636  26.268  57.054  1.00  0.00    -0.267 OA
HETATM   12  C   UNL     1       7.254  24.245  53.258  1.00  0.00     0.037 C 
HETATM   13  C   UNL     1       7.929  23.897  54.579  1.00  0.00     0.022 C 
HETATM   14  C   UNL     1       6.852  24.223  55.598  1.00  0.00     0.127 C 
HETATM   15  C   UNL     1       3.689  28.776  53.648  1.00  0.00     0.033 A 
HETATM   16  C   UNL     1       3.868  29.958  54.375  1.00  0.00     0.032 A 
HETATM   17  H   UNL     1       3.457  26.571  52.428  1.00  0.00     0.169 HD
ENDROOT
BRANCH   1  18
HETATM   18  N   UNL     1       4.940  31.235  56.096  1.00  0.00    -0.327 N 
HETATM   19  C   UNL     1       4.549  31.658  57.356  1.00  0.00     0.226 C 
HETATM   20  O   UNL     1       3.724  31.097  58.073  1.00  0.00    -0.273 OA
HETATM   21  H   UNL     1       5.500  31.889  55.559  1.00  0.00     0.169 HD
BRANCH  19  22
HETATM   22  C   UNL     1       5.357  32.825  57.900  1.00  0.00     0.144 C 
BRANCH  22  23
HETATM   23  C   UNL     1       5.917  32.631  59.272  1.00  0.00    -0.021 A 
HETATM   24  C   UNL     1       7.079  31.880  59.634  1.00  0.00    -0.001 A 
HETATM   25  C   UNL     1       7.174  31.889  61.030  1.00  0.00     0.045 A 
HETATM   26  C   UNL     1       8.053  31.174  58.892  1.00  0.00     0.014 A 
HETATM   27  N   UNL     1       6.086  32.598  61.504  1.00  0.00    -0.351 N 
HETATM   28  C   UNL     1       8.217  31.229  61.703  1.00  0.00     0.030 A 
HETATM   29  C   UNL     1       5.358  33.089  60.447  1.00  0.00     0.100 A 
HETATM   30  C   UNL     1       9.172  30.548  60.943  1.00  0.00     0.002 A 
HETATM   31  C   UNL     1       9.092  30.517  59.556  1.00  0.00     0.001 A 
BRANCH  27  32
HETATM   32  C   UNL     1       5.710  32.761  62.910  1.00  0.00     0.081 C 
HETATM   33  C   UNL     1       4.282  33.294  63.058  1.00  0.00     0.032 C 
HETATM   34  C   UNL     1       6.713  33.632  63.664  1.00  0.00     0.032 C 
ENDBRANCH  27  32
ENDBRANCH  22  23
ENDBRANCH  19  22
ENDBRANCH   1  18
TORSDOF 4
ENDMDL
