MODEL 1
REMARK VINA RESULT:     -11.1      0.000      0.000
REMARK  7 active torsions:
REMARK  status: ('A' for Active; 'I' for Inactive)
REMARK    1  A    between atoms: C_3  and  C_4 
REMARK    2  A    between atoms: C_4  and  S_5 
REMARK    3  A    between atoms: S_5  and  C_6 
REMARK    4  A    between atoms: C_6  and  C_7 
REMARK    5  A    between atoms: C_16  and  C_17 
REMARK       I    between atoms: C_17  and  N_18 
REMARK    6  A    between atoms: N_18  and  C_19 
REMARK    7  A    between atoms: C_19  and  C_20 
ROOT
HETATM    1  C   UNL     1       6.711  27.320  55.051  1.00  0.00     0.162 C 
HETATM    2  N   UNL     1       7.918  28.151  54.803  1.00  0.00    -0.277 NA
HETATM    3  C   UNL     1       8.320  28.906  55.923  1.00  0.00     0.036 A 
HETATM    4  C   UNL     1       7.413  29.304  56.916  1.00  0.00     0.057 A 
HETATM    5  N   UNL     1       6.071  28.918  56.824  1.00  0.00    -0.324 N 
HETATM    6  C   UNL     1       5.620  28.054  55.855  1.00  0.00     0.240 C 
HETATM    7  O   UNL     1       4.418  27.818  55.742  1.00  0.00    -0.271 OA
HETATM    8  C   UNL     1       9.629  29.385  55.979  1.00  0.00     0.027 A 
HETATM    9  C   UNL     1      10.055  30.178  57.051  1.00  0.00     0.019 A 
HETATM   10  C   UNL     1       9.156  30.542  58.063  1.00  0.00     0.034 A 
HETATM   11  C   UNL     1       7.823  30.113  57.977  1.00  0.00     0.048 A 
HETATM   12  H   UNL     1       7.771  28.777  54.010  1.00  0.00     0.128 HD
HETATM   13  H   UNL     1       5.377  29.310  57.447  1.00  0.00     0.169 HD
ENDROOT
BRANCH  10  14
HETATM   14  C   UNL     1       9.547  31.332  59.271  1.00  0.00     0.252 C 
HETATM   15  N   UNL     1       9.043  30.939  60.490  1.00  0.00    -0.353 N 
HETATM   16  H   UNL     1       8.605  30.040  60.610  1.00  0.00     0.163 HD
HETATM   17  O   UNL     1      10.283  32.306  59.146  1.00  0.00    -0.268 OA
BRANCH  15  18
HETATM   18  C   UNL     1       9.342  31.686  61.694  1.00  0.00     0.161 C 
BRANCH  18  19
HETATM   19  C   UNL     1       8.081  32.184  62.358  1.00  0.00    -0.040 A 
HETATM   20  C   UNL     1       8.126  32.736  63.646  1.00  0.00     0.010 A 
HETATM   21  C   UNL     1       6.964  33.231  64.247  1.00  0.00     0.024 A 
HETATM   22  C   UNL     1       5.752  33.179  63.560  1.00  0.00     0.034 A 
HETATM   23 CL   UNL     1       4.324  33.788  64.300  1.00  0.00    -0.084 Cl
HETATM   24  C   UNL     1       5.692  32.644  62.277  1.00  0.00     0.024 A 
HETATM   25  C   UNL     1       6.854  32.155  61.675  1.00  0.00     0.010 A 
ENDBRANCH  18  19
ENDBRANCH  15  18
ENDBRANCH  10  14
BRANCH   1  26
HETATM   26  C   UNL     1       6.112  26.783  53.739  1.00  0.00     0.103 C 
BRANCH  26  27
HETATM   27  S   UNL     1       5.930  24.959  53.632  1.00  0.00    -0.162 SA
BRANCH  27  28
HETATM   28  C   UNL     1       7.685  24.476  53.620  1.00  0.00     0.112 C 
BRANCH  28  29
HETATM   29  C   UNL     1       7.873  23.020  53.983  1.00  0.00    -0.043 A 
HETATM   30  C   UNL     1       8.062  22.594  55.316  1.00  0.00    -0.055 A 
HETATM   31  C   UNL     1       8.082  23.562  56.468  1.00  0.00     0.049 C 
HETATM   32  C   UNL     1       8.205  21.221  55.583  1.00  0.00     0.007 A 
HETATM   33  C   UNL     1       8.184  20.285  54.550  1.00  0.00     0.001 A 
HETATM   34  C   UNL     1       8.021  20.704  53.235  1.00  0.00     0.001 A 
HETATM   35  C   UNL     1       7.869  22.061  52.953  1.00  0.00     0.008 A 
ENDBRANCH  28  29
ENDBRANCH  27  28
ENDBRANCH  26  27
ENDBRANCH   1  26
TORSDOF 7
ENDMDL
MODEL 2
REMARK VINA RESULT:     -10.6      3.886     11.021
REMARK  7 active torsions:
REMARK  status: ('A' for Active; 'I' for Inactive)
REMARK    1  A    between atoms: C_3  and  C_4 
REMARK    2  A    between atoms: C_4  and  S_5 
REMARK    3  A    between atoms: S_5  and  C_6 
REMARK    4  A    between atoms: C_6  and  C_7 
REMARK    5  A    between atoms: C_16  and  C_17 
REMARK       I    between atoms: C_17  and  N_18 
REMARK    6  A    between atoms: N_18  and  C_19 
REMARK    7  A    between atoms: C_19  and  C_20 
ROOT
HETATM    1  C   UNL     1       8.902  30.776  58.958  1.00  0.00     0.162 C 
HETATM    2  N   UNL     1       7.480  30.675  58.538  1.00  0.00    -0.277 NA
HETATM    3  C   UNL     1       7.248  29.667  57.580  1.00  0.00     0.036 A 
HETATM    4  C   UNL     1       8.249  29.232  56.700  1.00  0.00     0.057 A 
HETATM    5  N   UNL     1       9.533  29.782  56.786  1.00  0.00    -0.324 N 
HETATM    6  C   UNL     1       9.894  30.652  57.786  1.00  0.00     0.240 C 
HETATM    7  O   UNL     1      10.999  31.194  57.771  1.00  0.00    -0.271 OA
HETATM    8  C   UNL     1       5.950  29.182  57.412  1.00  0.00     0.027 A 
HETATM    9  C   UNL     1       5.669  28.214  56.440  1.00  0.00     0.019 A 
HETATM   10  C   UNL     1       6.681  27.752  55.588  1.00  0.00     0.034 A 
HETATM   11  C   UNL     1       7.973  28.285  55.713  1.00  0.00     0.048 A 
HETATM   12  H   UNL     1       7.144  31.567  58.174  1.00  0.00     0.128 HD
HETATM   13  H   UNL     1      10.227  29.589  56.074  1.00  0.00     0.169 HD
ENDROOT
BRANCH  10  14
HETATM   14  C   UNL     1       6.475  26.678  54.567  1.00  0.00     0.252 C 
HETATM   15  N   UNL     1       7.591  26.115  53.990  1.00  0.00    -0.353 N 
HETATM   16  H   UNL     1       8.509  26.257  54.379  1.00  0.00     0.163 HD
HETATM   17  O   UNL     1       5.336  26.341  54.263  1.00  0.00    -0.268 OA
BRANCH  15  18
HETATM   18  C   UNL     1       7.467  25.104  52.962  1.00  0.00     0.161 C 
BRANCH  18  19
HETATM   19  C   UNL     1       7.864  23.742  53.479  1.00  0.00    -0.040 A 
HETATM   20  C   UNL     1       8.381  23.596  54.774  1.00  0.00     0.010 A 
HETATM   21  C   UNL     1       8.715  22.330  55.266  1.00  0.00     0.024 A 
HETATM   22  C   UNL     1       8.530  21.205  54.466  1.00  0.00     0.034 A 
HETATM   23 CL   UNL     1       8.941  19.648  55.073  1.00  0.00    -0.084 Cl
HETATM   24  C   UNL     1       8.007  21.330  53.182  1.00  0.00     0.024 A 
HETATM   25  C   UNL     1       7.668  22.594  52.693  1.00  0.00     0.010 A 
ENDBRANCH  18  19
ENDBRANCH  15  18
ENDBRANCH  10  14
BRANCH   1  26
HETATM   26  C   UNL     1       9.174  32.079  59.730  1.00  0.00     0.103 C 
BRANCH  26  27
HETATM   27  S   UNL     1       9.526  31.887  61.522  1.00  0.00    -0.162 SA
BRANCH  27  28
HETATM   28  C   UNL     1       7.852  31.496  62.122  1.00  0.00     0.112 C 
BRANCH  28  29
HETATM   29  C   UNL     1       7.247  32.646  62.896  1.00  0.00    -0.043 A 
HETATM   30  C   UNL     1       6.224  33.459  62.361  1.00  0.00    -0.055 A 
HETATM   31  C   UNL     1       5.661  33.230  60.983  1.00  0.00     0.049 C 
HETATM   32  C   UNL     1       5.691  34.496  63.145  1.00  0.00     0.007 A 
HETATM   33  C   UNL     1       6.173  34.742  64.430  1.00  0.00     0.001 A 
HETATM   34  C   UNL     1       7.196  33.958  64.950  1.00  0.00     0.001 A 
HETATM   35  C   UNL     1       7.730  32.919  64.189  1.00  0.00     0.008 A 
ENDBRANCH  28  29
ENDBRANCH  27  28
ENDBRANCH  26  27
ENDBRANCH   1  26
TORSDOF 7
ENDMDL
MODEL 3
REMARK VINA RESULT:     -10.1      4.220     11.045
REMARK  7 active torsions:
REMARK  status: ('A' for Active; 'I' for Inactive)
REMARK    1  A    between atoms: C_3  and  C_4 
REMARK    2  A    between atoms: C_4  and  S_5 
REMARK    3  A    between atoms: S_5  and  C_6 
REMARK    4  A    between atoms: C_6  and  C_7 
REMARK    5  A    between atoms: C_16  and  C_17 
REMARK       I    between atoms: C_17  and  N_18 
REMARK    6  A    between atoms: N_18  and  C_19 
REMARK    7  A    between atoms: C_19  and  C_20 
ROOT
HETATM    1  C   UNL     1       5.098  32.335  58.848  1.00  0.00     0.162 C 
HETATM    2  N   UNL     1       5.978  31.188  59.195  1.00  0.00    -0.277 NA
HETATM    3  C   UNL     1       6.400  30.446  58.073  1.00  0.00     0.036 A 
HETATM    4  C   UNL     1       5.650  30.392  56.890  1.00  0.00     0.057 A 
HETATM    5  N   UNL     1       4.459  31.122  56.791  1.00  0.00    -0.324 N 
HETATM    6  C   UNL     1       4.050  31.995  57.770  1.00  0.00     0.240 C 
HETATM    7  O   UNL     1       2.949  32.541  57.697  1.00  0.00    -0.271 OA
HETATM    8  C   UNL     1       7.529  29.633  58.190  1.00  0.00     0.027 A 
HETATM    9  C   UNL     1       7.955  28.843  57.114  1.00  0.00     0.019 A 
HETATM   10  C   UNL     1       7.224  28.823  55.918  1.00  0.00     0.034 A 
HETATM   11  C   UNL     1       6.054  29.592  55.821  1.00  0.00     0.048 A 
HETATM   12  H   UNL     1       5.516  30.564  59.857  1.00  0.00     0.128 HD
HETATM   13  H   UNL     1       3.834  30.987  56.007  1.00  0.00     0.169 HD
ENDROOT
BRANCH  10  14
HETATM   14  C   UNL     1       7.646  28.056  54.705  1.00  0.00     0.252 C 
HETATM   15  N   UNL     1       7.064  26.828  54.484  1.00  0.00    -0.353 N 
HETATM   16  H   UNL     1       6.240  26.542  54.986  1.00  0.00     0.163 HD
HETATM   17  O   UNL     1       8.498  28.525  53.958  1.00  0.00    -0.268 OA
BRANCH  15  18
HETATM   18  C   UNL     1       7.459  26.011  53.357  1.00  0.00     0.161 C 
BRANCH  18  19
HETATM   19  C   UNL     1       7.630  24.566  53.759  1.00  0.00    -0.040 A 
HETATM   20  C   UNL     1       7.415  24.167  55.086  1.00  0.00     0.010 A 
HETATM   21  C   UNL     1       7.537  22.822  55.451  1.00  0.00     0.024 A 
HETATM   22  C   UNL     1       7.872  21.870  54.490  1.00  0.00     0.034 A 
HETATM   23 CL   UNL     1       8.022  20.217  54.941  1.00  0.00    -0.084 Cl
HETATM   24  C   UNL     1       8.078  22.247  53.166  1.00  0.00     0.024 A 
HETATM   25  C   UNL     1       7.949  23.590  52.801  1.00  0.00     0.010 A 
ENDBRANCH  18  19
ENDBRANCH  15  18
ENDBRANCH  10  14
BRANCH   1  26
HETATM   26  C   UNL     1       4.394  32.907  60.090  1.00  0.00     0.103 C 
BRANCH  26  27
HETATM   27  S   UNL     1       5.493  33.649  61.360  1.00  0.00    -0.162 SA
BRANCH  27  28
HETATM   28  C   UNL     1       5.257  32.450  62.709  1.00  0.00     0.112 C 
BRANCH  28  29
HETATM   29  C   UNL     1       5.528  33.064  64.064  1.00  0.00    -0.043 A 
HETATM   30  C   UNL     1       6.836  33.224  64.572  1.00  0.00    -0.055 A 
HETATM   31  C   UNL     1       8.052  32.800  63.792  1.00  0.00     0.049 C 
HETATM   32  C   UNL     1       7.015  33.826  65.829  1.00  0.00     0.007 A 
HETATM   33  C   UNL     1       5.920  34.244  66.585  1.00  0.00     0.001 A 
HETATM   34  C   UNL     1       4.631  34.067  66.098  1.00  0.00     0.001 A 
HETATM   35  C   UNL     1       4.436  33.479  64.848  1.00  0.00     0.008 A 
ENDBRANCH  28  29
ENDBRANCH  27  28
ENDBRANCH  26  27
ENDBRANCH   1  26
TORSDOF 7
ENDMDL
MODEL 4
REMARK VINA RESULT:      -9.8      4.141     10.600
REMARK  7 active torsions:
REMARK  status: ('A' for Active; 'I' for Inactive)
REMARK    1  A    between atoms: C_3  and  C_4 
REMARK    2  A    between atoms: C_4  and  S_5 
REMARK    3  A    between atoms: S_5  and  C_6 
REMARK    4  A    between atoms: C_6  and  C_7 
REMARK    5  A    between atoms: C_16  and  C_17 
REMARK       I    between atoms: C_17  and  N_18 
REMARK    6  A    between atoms: N_18  and  C_19 
REMARK    7  A    between atoms: C_19  and  C_20 
ROOT
HETATM    1  C   UNL     1       4.581  32.515  58.396  1.00  0.00     0.162 C 
HETATM    2  N   UNL     1       5.407  31.375  58.873  1.00  0.00    -0.277 NA
HETATM    3  C   UNL     1       5.977  30.620  57.828  1.00  0.00     0.036 A 
HETATM    4  C   UNL     1       5.393  30.550  56.555  1.00  0.00     0.057 A 
HETATM    5  N   UNL     1       4.226  31.275  56.288  1.00  0.00    -0.324 N 
HETATM    6  C   UNL     1       3.688  32.159  57.192  1.00  0.00     0.240 C 
HETATM    7  O   UNL     1       2.607  32.701  56.965  1.00  0.00    -0.271 OA
HETATM    8  C   UNL     1       7.080  29.811  58.105  1.00  0.00     0.027 A 
HETATM    9  C   UNL     1       7.648  29.009  57.107  1.00  0.00     0.019 A 
HETATM   10  C   UNL     1       7.084  28.972  55.824  1.00  0.00     0.034 A 
HETATM   11  C   UNL     1       5.938  29.737  55.561  1.00  0.00     0.048 A 
HETATM   12  H   UNL     1       4.861  30.757  59.475  1.00  0.00     0.128 HD
HETATM   13  H   UNL     1       3.712  31.129  55.429  1.00  0.00     0.169 HD
ENDROOT
BRANCH  10  14
HETATM   14  C   UNL     1       7.667  28.192  54.689  1.00  0.00     0.252 C 
HETATM   15  N   UNL     1       7.050  27.013  54.333  1.00  0.00    -0.353 N 
HETATM   16  H   UNL     1       6.129  26.783  54.669  1.00  0.00     0.163 HD
HETATM   17  O   UNL     1       8.672  28.605  54.121  1.00  0.00    -0.268 OA
BRANCH  15  18
HETATM   18  C   UNL     1       7.586  26.183  53.276  1.00  0.00     0.161 C 
BRANCH  18  19
HETATM   19  C   UNL     1       7.610  24.728  53.678  1.00  0.00    -0.040 A 
HETATM   20  C   UNL     1       7.997  23.742  52.760  1.00  0.00     0.010 A 
HETATM   21  C   UNL     1       8.055  22.398  53.144  1.00  0.00     0.024 A 
HETATM   22  C   UNL     1       7.728  22.035  54.449  1.00  0.00     0.034 A 
HETATM   23 CL   UNL     1       7.799  20.382  54.919  1.00  0.00    -0.084 Cl
HETATM   24  C   UNL     1       7.352  23.003  55.377  1.00  0.00     0.024 A 
HETATM   25  C   UNL     1       7.301  24.345  54.994  1.00  0.00     0.010 A 
ENDBRANCH  18  19
ENDBRANCH  15  18
ENDBRANCH  10  14
BRANCH   1  26
HETATM   26  C   UNL     1       3.716  33.101  59.526  1.00  0.00     0.103 C 
BRANCH  26  27
HETATM   27  S   UNL     1       3.708  32.153  61.098  1.00  0.00    -0.162 SA
BRANCH  27  28
HETATM   28  C   UNL     1       4.148  33.485  62.260  1.00  0.00     0.112 C 
BRANCH  28  29
HETATM   29  C   UNL     1       5.517  33.275  62.868  1.00  0.00    -0.043 A 
HETATM   30  C   UNL     1       5.767  33.460  64.245  1.00  0.00    -0.055 A 
HETATM   31  C   UNL     1       4.682  33.872  65.204  1.00  0.00     0.049 C 
HETATM   32  C   UNL     1       7.058  33.223  64.745  1.00  0.00     0.007 A 
HETATM   33  C   UNL     1       8.094  32.830  63.898  1.00  0.00     0.001 A 
HETATM   34  C   UNL     1       7.855  32.669  62.538  1.00  0.00     0.001 A 
HETATM   35  C   UNL     1       6.578  32.892  62.027  1.00  0.00     0.008 A 
ENDBRANCH  28  29
ENDBRANCH  27  28
ENDBRANCH  26  27
ENDBRANCH   1  26
TORSDOF 7
ENDMDL
MODEL 5
REMARK VINA RESULT:      -9.6      4.080     10.706
REMARK  7 active torsions:
REMARK  status: ('A' for Active; 'I' for Inactive)
REMARK    1  A    between atoms: C_3  and  C_4 
REMARK    2  A    between atoms: C_4  and  S_5 
REMARK    3  A    between atoms: S_5  and  C_6 
REMARK    4  A    between atoms: C_6  and  C_7 
REMARK    5  A    between atoms: C_16  and  C_17 
REMARK       I    between atoms: C_17  and  N_18 
REMARK    6  A    between atoms: N_18  and  C_19 
REMARK    7  A    between atoms: C_19  and  C_20 
ROOT
HETATM    1  C   UNL     1       5.154  32.420  57.199  1.00  0.00     0.162 C 
HETATM    2  N   UNL     1       6.181  31.400  57.537  1.00  0.00    -0.277 NA
HETATM    3  C   UNL     1       6.187  30.297  56.661  1.00  0.00     0.036 A 
HETATM    4  C   UNL     1       5.040  29.898  55.959  1.00  0.00     0.057 A 
HETATM    5  N   UNL     1       3.855  30.630  56.096  1.00  0.00    -0.324 N 
HETATM    6  C   UNL     1       3.796  31.807  56.801  1.00  0.00     0.240 C 
HETATM    7  O   UNL     1       2.717  32.369  56.986  1.00  0.00    -0.271 OA
HETATM    8  C   UNL     1       7.328  29.496  56.591  1.00  0.00     0.027 A 
HETATM    9  C   UNL     1       7.358  28.364  55.769  1.00  0.00     0.019 A 
HETATM   10  C   UNL     1       6.222  27.990  55.037  1.00  0.00     0.034 A 
HETATM   11  C   UNL     1       5.053  28.758  55.154  1.00  0.00     0.048 A 
HETATM   12  H   UNL     1       6.063  31.068  58.495  1.00  0.00     0.128 HD
HETATM   13  H   UNL     1       2.985  30.280  55.714  1.00  0.00     0.169 HD
ENDROOT
BRANCH  10  14
HETATM   14  C   UNL     1       6.193  26.833  54.090  1.00  0.00     0.252 C 
HETATM   15  N   UNL     1       7.376  26.173  53.842  1.00  0.00    -0.353 N 
HETATM   16  H   UNL     1       8.186  26.315  54.423  1.00  0.00     0.163 HD
HETATM   17  O   UNL     1       5.137  26.514  53.554  1.00  0.00    -0.268 OA
BRANCH  15  18
HETATM   18  C   UNL     1       7.431  25.075  52.901  1.00  0.00     0.161 C 
BRANCH  18  19
HETATM   19  C   UNL     1       7.615  23.754  53.608  1.00  0.00    -0.040 A 
HETATM   20  C   UNL     1       7.902  22.591  52.880  1.00  0.00     0.010 A 
HETATM   21  C   UNL     1       8.108  21.374  53.539  1.00  0.00     0.024 A 
HETATM   22  C   UNL     1       8.031  21.317  54.928  1.00  0.00     0.034 A 
HETATM   23 CL   UNL     1       8.285  19.820  55.737  1.00  0.00    -0.084 Cl
HETATM   24  C   UNL     1       7.758  22.464  55.668  1.00  0.00     0.024 A 
HETATM   25  C   UNL     1       7.559  23.680  55.010  1.00  0.00     0.010 A 
ENDBRANCH  18  19
ENDBRANCH  15  18
ENDBRANCH  10  14
BRANCH   1  26
HETATM   26  C   UNL     1       4.950  33.423  58.348  1.00  0.00     0.103 C 
BRANCH  26  27
HETATM   27  S   UNL     1       4.768  32.693  60.023  1.00  0.00    -0.162 SA
BRANCH  27  28
HETATM   28  C   UNL     1       6.518  32.638  60.524  1.00  0.00     0.112 C 
BRANCH  28  29
HETATM   29  C   UNL     1       6.707  33.073  61.960  1.00  0.00    -0.043 A 
HETATM   30  C   UNL     1       7.709  32.522  62.789  1.00  0.00    -0.055 A 
HETATM   31  C   UNL     1       8.663  31.468  62.294  1.00  0.00     0.049 C 
HETATM   32  C   UNL     1       7.844  32.991  64.107  1.00  0.00     0.007 A 
HETATM   33  C   UNL     1       6.990  33.973  64.608  1.00  0.00     0.001 A 
HETATM   34  C   UNL     1       5.988  34.500  63.802  1.00  0.00     0.001 A 
HETATM   35  C   UNL     1       5.846  34.052  62.489  1.00  0.00     0.008 A 
ENDBRANCH  28  29
ENDBRANCH  27  28
ENDBRANCH  26  27
ENDBRANCH   1  26
TORSDOF 7
ENDMDL
MODEL 6
REMARK VINA RESULT:      -9.6      1.503      2.063
REMARK  7 active torsions:
REMARK  status: ('A' for Active; 'I' for Inactive)
REMARK    1  A    between atoms: C_3  and  C_4 
REMARK    2  A    between atoms: C_4  and  S_5 
REMARK    3  A    between atoms: S_5  and  C_6 
REMARK    4  A    between atoms: C_6  and  C_7 
REMARK    5  A    between atoms: C_16  and  C_17 
REMARK       I    between atoms: C_17  and  N_18 
REMARK    6  A    between atoms: N_18  and  C_19 
REMARK    7  A    between atoms: C_19  and  C_20 
ROOT
HETATM    1  C   UNL     1       5.924  28.302  53.770  1.00  0.00     0.162 C 
HETATM    2  N   UNL     1       5.129  28.524  55.006  1.00  0.00    -0.277 NA
HETATM    3  C   UNL     1       5.846  29.188  56.023  1.00  0.00     0.036 A 
HETATM    4  C   UNL     1       7.243  29.114  56.119  1.00  0.00     0.057 A 
HETATM    5  N   UNL     1       7.965  28.392  55.161  1.00  0.00    -0.324 N 
HETATM    6  C   UNL     1       7.370  27.846  54.050  1.00  0.00     0.240 C 
HETATM    7  O   UNL     1       8.017  27.132  53.284  1.00  0.00    -0.271 OA
HETATM    8  C   UNL     1       5.136  29.825  57.042  1.00  0.00     0.027 A 
HETATM    9  C   UNL     1       5.810  30.455  58.095  1.00  0.00     0.019 A 
HETATM   10  C   UNL     1       7.209  30.414  58.166  1.00  0.00     0.034 A 
HETATM   11  C   UNL     1       7.921  29.720  57.176  1.00  0.00     0.048 A 
HETATM   12  H   UNL     1       4.769  27.642  55.370  1.00  0.00     0.128 HD
HETATM   13  H   UNL     1       8.952  28.208  55.290  1.00  0.00     0.169 HD
ENDROOT
BRANCH  10  14
HETATM   14  C   UNL     1       8.004  31.114  59.223  1.00  0.00     0.252 C 
HETATM   15  N   UNL     1       7.853  30.695  60.526  1.00  0.00    -0.353 N 
HETATM   16  H   UNL     1       7.398  29.824  60.746  1.00  0.00     0.163 HD
HETATM   17  O   UNL     1       8.746  32.038  58.911  1.00  0.00    -0.268 OA
BRANCH  15  18
HETATM   18  C   UNL     1       8.554  31.357  61.605  1.00  0.00     0.161 C 
BRANCH  18  19
HETATM   19  C   UNL     1       7.590  31.949  62.605  1.00  0.00    -0.040 A 
HETATM   20  C   UNL     1       8.061  32.717  63.680  1.00  0.00     0.010 A 
HETATM   21  C   UNL     1       7.165  33.296  64.584  1.00  0.00     0.024 A 
HETATM   22  C   UNL     1       5.794  33.112  64.417  1.00  0.00     0.034 A 
HETATM   23 CL   UNL     1       4.694  33.825  65.530  1.00  0.00    -0.084 Cl
HETATM   24  C   UNL     1       5.309  32.363  63.349  1.00  0.00     0.024 A 
HETATM   25  C   UNL     1       6.203  31.790  62.442  1.00  0.00     0.010 A 
ENDBRANCH  18  19
ENDBRANCH  15  18
ENDBRANCH  10  14
BRANCH   1  26
HETATM   26  C   UNL     1       5.240  27.297  52.828  1.00  0.00     0.103 C 
BRANCH  26  27
HETATM   27  S   UNL     1       6.279  25.890  52.270  1.00  0.00    -0.162 SA
BRANCH  27  28
HETATM   28  C   UNL     1       5.751  24.624  53.467  1.00  0.00     0.112 C 
BRANCH  28  29
HETATM   29  C   UNL     1       6.919  23.817  53.988  1.00  0.00    -0.043 A 
HETATM   30  C   UNL     1       7.400  23.953  55.308  1.00  0.00    -0.055 A 
HETATM   31  C   UNL     1       6.776  24.908  56.291  1.00  0.00     0.049 C 
HETATM   32  C   UNL     1       8.474  23.152  55.732  1.00  0.00     0.007 A 
HETATM   33  C   UNL     1       9.080  22.247  54.862  1.00  0.00     0.001 A 
HETATM   34  C   UNL     1       8.622  22.128  53.555  1.00  0.00     0.001 A 
HETATM   35  C   UNL     1       7.552  22.908  53.120  1.00  0.00     0.008 A 
ENDBRANCH  28  29
ENDBRANCH  27  28
ENDBRANCH  26  27
ENDBRANCH   1  26
TORSDOF 7
ENDMDL
MODEL 7
REMARK VINA RESULT:      -9.6      5.964     10.032
REMARK  7 active torsions:
REMARK  status: ('A' for Active; 'I' for Inactive)
REMARK    1  A    between atoms: C_3  and  C_4 
REMARK    2  A    between atoms: C_4  and  S_5 
REMARK    3  A    between atoms: S_5  and  C_6 
REMARK    4  A    between atoms: C_6  and  C_7 
REMARK    5  A    between atoms: C_16  and  C_17 
REMARK       I    between atoms: C_17  and  N_18 
REMARK    6  A    between atoms: N_18  and  C_19 
REMARK    7  A    between atoms: C_19  and  C_20 
ROOT
HETATM    1  C   UNL     1       7.278  26.693  54.941  1.00  0.00     0.162 C 
HETATM    2  N   UNL     1       6.283  25.802  54.288  1.00  0.00    -0.277 NA
HETATM    3  C   UNL     1       5.908  26.230  52.999  1.00  0.00     0.036 A 
HETATM    4  C   UNL     1       5.968  27.577  52.614  1.00  0.00     0.057 A 
HETATM    5  N   UNL     1       6.447  28.534  53.517  1.00  0.00    -0.324 N 
HETATM    6  C   UNL     1       6.982  28.192  54.735  1.00  0.00     0.240 C 
HETATM    7  O   UNL     1       7.297  29.064  55.544  1.00  0.00    -0.271 OA
HETATM    8  C   UNL     1       5.332  25.308  52.123  1.00  0.00     0.027 A 
HETATM    9  C   UNL     1       4.902  25.702  50.851  1.00  0.00     0.019 A 
HETATM   10  C   UNL     1       5.001  27.043  50.454  1.00  0.00     0.034 A 
HETATM   11  C   UNL     1       5.521  27.984  51.356  1.00  0.00     0.048 A 
HETATM   12  H   UNL     1       5.448  25.705  54.866  1.00  0.00     0.128 HD
HETATM   13  H   UNL     1       6.366  29.522  53.313  1.00  0.00     0.169 HD
ENDROOT
BRANCH  10  14
HETATM   14  C   UNL     1       4.622  27.532  49.092  1.00  0.00     0.252 C 
HETATM   15  N   UNL     1       3.404  27.143  48.583  1.00  0.00    -0.353 N 
HETATM   16  H   UNL     1       2.700  26.726  49.171  1.00  0.00     0.163 HD
HETATM   17  O   UNL     1       5.401  28.244  48.466  1.00  0.00    -0.268 OA
BRANCH  15  18
HETATM   18  C   UNL     1       2.993  27.539  47.253  1.00  0.00     0.161 C 
BRANCH  18  19
HETATM   19  C   UNL     1       1.911  28.590  47.303  1.00  0.00    -0.040 A 
HETATM   20  C   UNL     1       2.060  29.727  48.110  1.00  0.00     0.010 A 
HETATM   21  C   UNL     1       1.074  30.718  48.127  1.00  0.00     0.024 A 
HETATM   22  C   UNL     1      -0.064  30.579  47.335  1.00  0.00     0.034 A 
HETATM   23 CL   UNL     1      -1.276  31.800  47.358  1.00  0.00    -0.084 Cl
HETATM   24  C   UNL     1      -0.222  29.463  46.519  1.00  0.00     0.024 A 
HETATM   25  C   UNL     1       0.766  28.475  46.497  1.00  0.00     0.010 A 
ENDBRANCH  18  19
ENDBRANCH  15  18
ENDBRANCH  10  14
BRANCH   1  26
HETATM   26  C   UNL     1       7.407  26.395  56.445  1.00  0.00     0.103 C 
BRANCH  26  27
HETATM   27  S   UNL     1       7.196  24.637  56.930  1.00  0.00    -0.162 SA
BRANCH  27  28
HETATM   28  C   UNL     1       8.716  23.936  56.214  1.00  0.00     0.112 C 
BRANCH  28  29
HETATM   29  C   UNL     1       8.415  22.863  55.191  1.00  0.00    -0.043 A 
HETATM   30  C   UNL     1       8.282  21.502  55.543  1.00  0.00    -0.055 A 
HETATM   31  C   UNL     1       8.424  21.028  56.964  1.00  0.00     0.049 C 
HETATM   32  C   UNL     1       7.977  20.562  54.544  1.00  0.00     0.007 A 
HETATM   33  C   UNL     1       7.827  20.954  53.214  1.00  0.00     0.001 A 
HETATM   34  C   UNL     1       7.979  22.289  52.862  1.00  0.00     0.001 A 
HETATM   35  C   UNL     1       8.273  23.236  53.842  1.00  0.00     0.008 A 
ENDBRANCH  28  29
ENDBRANCH  27  28
ENDBRANCH  26  27
ENDBRANCH   1  26
TORSDOF 7
ENDMDL
MODEL 8
REMARK VINA RESULT:      -9.5      6.027      9.754
REMARK  7 active torsions:
REMARK  status: ('A' for Active; 'I' for Inactive)
REMARK    1  A    between atoms: C_3  and  C_4 
REMARK    2  A    between atoms: C_4  and  S_5 
REMARK    3  A    between atoms: S_5  and  C_6 
REMARK    4  A    between atoms: C_6  and  C_7 
REMARK    5  A    between atoms: C_16  and  C_17 
REMARK       I    between atoms: C_17  and  N_18 
REMARK    6  A    between atoms: N_18  and  C_19 
REMARK    7  A    between atoms: C_19  and  C_20 
ROOT
HETATM    1  C   UNL     1       7.257  26.964  54.808  1.00  0.00     0.162 C 
HETATM    2  N   UNL     1       6.434  26.024  54.004  1.00  0.00    -0.277 NA
HETATM    3  C   UNL     1       6.016  26.560  52.768  1.00  0.00     0.036 A 
HETATM    4  C   UNL     1       5.861  27.939  52.569  1.00  0.00     0.057 A 
HETATM    5  N   UNL     1       6.160  28.827  53.610  1.00  0.00    -0.324 N 
HETATM    6  C   UNL     1       6.722  28.410  54.792  1.00  0.00     0.240 C 
HETATM    7  O   UNL     1       6.875  29.201  55.722  1.00  0.00    -0.271 OA
HETATM    8  C   UNL     1       5.616  25.687  51.756  1.00  0.00     0.027 A 
HETATM    9  C   UNL     1       5.150  26.179  50.531  1.00  0.00     0.019 A 
HETATM   10  C   UNL     1       5.034  27.560  50.321  1.00  0.00     0.034 A 
HETATM   11  C   UNL     1       5.376  28.439  51.360  1.00  0.00     0.048 A 
HETATM   12  H   UNL     1       5.615  25.715  54.530  1.00  0.00     0.128 HD
HETATM   13  H   UNL     1       5.921  29.808  53.537  1.00  0.00     0.169 HD
ENDROOT
BRANCH  10  14
HETATM   14  C   UNL     1       4.604  28.165  49.022  1.00  0.00     0.252 C 
HETATM   15  N   UNL     1       3.854  29.319  49.065  1.00  0.00    -0.353 N 
HETATM   16  H   UNL     1       3.772  29.859  49.911  1.00  0.00     0.163 HD
HETATM   17  O   UNL     1       4.912  27.619  47.968  1.00  0.00    -0.268 OA
BRANCH  15  18
HETATM   18  C   UNL     1       3.364  29.933  47.849  1.00  0.00     0.161 C 
BRANCH  18  19
HETATM   19  C   UNL     1       4.304  31.007  47.359  1.00  0.00    -0.040 A 
HETATM   20  C   UNL     1       4.482  31.224  45.985  1.00  0.00     0.010 A 
HETATM   21  C   UNL     1       5.325  32.244  45.531  1.00  0.00     0.024 A 
HETATM   22  C   UNL     1       5.991  33.053  46.448  1.00  0.00     0.034 A 
HETATM   23 CL   UNL     1       7.027  34.307  45.888  1.00  0.00    -0.084 Cl
HETATM   24  C   UNL     1       5.817  32.859  47.816  1.00  0.00     0.024 A 
HETATM   25  C   UNL     1       4.970  31.845  48.269  1.00  0.00     0.010 A 
ENDBRANCH  18  19
ENDBRANCH  15  18
ENDBRANCH  10  14
BRANCH   1  26
HETATM   26  C   UNL     1       7.406  26.486  56.263  1.00  0.00     0.103 C 
BRANCH  26  27
HETATM   27  S   UNL     1       6.918  24.745  56.585  1.00  0.00    -0.162 SA
BRANCH  27  28
HETATM   28  C   UNL     1       8.487  23.909  56.190  1.00  0.00     0.112 C 
BRANCH  28  29
HETATM   29  C   UNL     1       8.299  22.809  55.169  1.00  0.00    -0.043 A 
HETATM   30  C   UNL     1       8.243  21.446  55.532  1.00  0.00    -0.055 A 
HETATM   31  C   UNL     1       8.361  20.995  56.963  1.00  0.00     0.049 C 
HETATM   32  C   UNL     1       8.042  20.478  54.533  1.00  0.00     0.007 A 
HETATM   33  C   UNL     1       7.918  20.846  53.194  1.00  0.00     0.001 A 
HETATM   34  C   UNL     1       7.994  22.186  52.832  1.00  0.00     0.001 A 
HETATM   35  C   UNL     1       8.185  23.160  53.812  1.00  0.00     0.008 A 
ENDBRANCH  28  29
ENDBRANCH  27  28
ENDBRANCH  26  27
ENDBRANCH   1  26
TORSDOF 7
ENDMDL
MODEL 9
REMARK VINA RESULT:      -9.1      4.141     11.610
REMARK  7 active torsions:
REMARK  status: ('A' for Active; 'I' for Inactive)
REMARK    1  A    between atoms: C_3  and  C_4 
REMARK    2  A    between atoms: C_4  and  S_5 
REMARK    3  A    between atoms: S_5  and  C_6 
REMARK    4  A    between atoms: C_6  and  C_7 
REMARK    5  A    between atoms: C_16  and  C_17 
REMARK       I    between atoms: C_17  and  N_18 
REMARK    6  A    between atoms: N_18  and  C_19 
REMARK    7  A    between atoms: C_19  and  C_20 
ROOT
HETATM    1  C   UNL     1       6.072  31.497  59.841  1.00  0.00     0.162 C 
HETATM    2  N   UNL     1       4.962  31.302  58.872  1.00  0.00    -0.277 NA
HETATM    3  C   UNL     1       5.314  30.498  57.770  1.00  0.00     0.036 A 
HETATM    4  C   UNL     1       6.637  30.393  57.316  1.00  0.00     0.057 A 
HETATM    5  N   UNL     1       7.656  31.076  57.991  1.00  0.00    -0.324 N 
HETATM    6  C   UNL     1       7.433  31.755  59.165  1.00  0.00     0.240 C 
HETATM    7  O   UNL     1       8.328  32.428  59.674  1.00  0.00    -0.271 OA
HETATM    8  C   UNL     1       4.299  29.894  57.025  1.00  0.00     0.027 A 
HETATM    9  C   UNL     1       4.604  29.125  55.895  1.00  0.00     0.019 A 
HETATM   10  C   UNL     1       5.932  28.990  55.468  1.00  0.00     0.034 A 
HETATM   11  C   UNL     1       6.947  29.648  56.179  1.00  0.00     0.048 A 
HETATM   12  H   UNL     1       4.612  32.200  58.535  1.00  0.00     0.128 HD
HETATM   13  H   UNL     1       8.588  31.130  57.600  1.00  0.00     0.169 HD
ENDROOT
BRANCH  10  14
HETATM   14  C   UNL     1       6.344  28.137  54.310  1.00  0.00     0.252 C 
HETATM   15  N   UNL     1       7.039  26.979  54.577  1.00  0.00    -0.353 N 
HETATM   16  H   UNL     1       7.089  26.602  55.510  1.00  0.00     0.163 HD
HETATM   17  O   UNL     1       6.072  28.493  53.168  1.00  0.00    -0.268 OA
BRANCH  15  18
HETATM   18  C   UNL     1       7.511  26.131  53.503  1.00  0.00     0.161 C 
BRANCH  18  19
HETATM   19  C   UNL     1       7.578  24.686  53.934  1.00  0.00    -0.040 A 
HETATM   20  C   UNL     1       7.870  23.678  53.004  1.00  0.00     0.010 A 
HETATM   21  C   UNL     1       7.968  22.344  53.410  1.00  0.00     0.024 A 
HETATM   22  C   UNL     1       7.779  22.011  54.750  1.00  0.00     0.034 A 
HETATM   23 CL   UNL     1       7.900  20.369  55.248  1.00  0.00    -0.084 Cl
HETATM   24  C   UNL     1       7.500  23.000  55.689  1.00  0.00     0.024 A 
HETATM   25  C   UNL     1       7.408  24.333  55.284  1.00  0.00     0.010 A 
ENDBRANCH  18  19
ENDBRANCH  15  18
ENDBRANCH  10  14
BRANCH   1  26
HETATM   26  C   UNL     1       5.766  32.632  60.834  1.00  0.00     0.103 C 
BRANCH  26  27
HETATM   27  S   UNL     1       5.912  32.198  62.612  1.00  0.00    -0.162 SA
BRANCH  27  28
HETATM   28  C   UNL     1       6.589  33.761  63.255  1.00  0.00     0.112 C 
BRANCH  28  29
HETATM   29  C   UNL     1       5.647  34.424  64.235  1.00  0.00    -0.043 A 
HETATM   30  C   UNL     1       5.242  35.769  64.099  1.00  0.00    -0.055 A 
HETATM   31  C   UNL     1       5.717  36.635  62.963  1.00  0.00     0.049 C 
HETATM   32  C   UNL     1       4.344  36.313  65.034  1.00  0.00     0.007 A 
HETATM   33  C   UNL     1       3.868  35.549  66.098  1.00  0.00     0.001 A 
HETATM   34  C   UNL     1       4.283  34.230  66.247  1.00  0.00     0.001 A 
HETATM   35  C   UNL     1       5.167  33.673  65.324  1.00  0.00     0.008 A 
ENDBRANCH  28  29
ENDBRANCH  27  28
ENDBRANCH  26  27
ENDBRANCH   1  26
TORSDOF 7
ENDMDL
MODEL 10
REMARK VINA RESULT:      -9.0      2.467      3.704
REMARK  7 active torsions:
REMARK  status: ('A' for Active; 'I' for Inactive)
REMARK    1  A    between atoms: C_3  and  C_4 
REMARK    2  A    between atoms: C_4  and  S_5 
REMARK    3  A    between atoms: S_5  and  C_6 
REMARK    4  A    between atoms: C_6  and  C_7 
REMARK    5  A    between atoms: C_16  and  C_17 
REMARK       I    between atoms: C_17  and  N_18 
REMARK    6  A    between atoms: N_18  and  C_19 
REMARK    7  A    between atoms: C_19  and  C_20 
ROOT
HETATM    1  C   UNL     1       7.127  28.270  55.247  1.00  0.00     0.162 C 
HETATM    2  N   UNL     1       5.653  28.215  55.426  1.00  0.00    -0.277 NA
HETATM    3  C   UNL     1       5.156  29.207  56.296  1.00  0.00     0.036 A 
HETATM    4  C   UNL     1       5.942  29.767  57.313  1.00  0.00     0.057 A 
HETATM    5  N   UNL     1       7.276  29.365  57.457  1.00  0.00    -0.324 N 
HETATM    6  C   UNL     1       7.891  28.525  56.562  1.00  0.00     0.240 C 
HETATM    7  O   UNL     1       9.030  28.112  56.776  1.00  0.00    -0.271 OA
HETATM    8  C   UNL     1       3.803  29.543  56.232  1.00  0.00     0.027 A 
HETATM    9  C   UNL     1       3.259  30.489  57.110  1.00  0.00     0.019 A 
HETATM   10  C   UNL     1       4.059  31.077  58.100  1.00  0.00     0.034 A 
HETATM   11  C   UNL     1       5.404  30.693  58.207  1.00  0.00     0.048 A 
HETATM   12  H   UNL     1       5.361  27.297  55.761  1.00  0.00     0.128 HD
HETATM   13  H   UNL     1       7.815  29.648  58.266  1.00  0.00     0.169 HD
ENDROOT
BRANCH  10  14
HETATM   14  C   UNL     1       3.570  32.138  59.034  1.00  0.00     0.252 C 
HETATM   15  N   UNL     1       3.686  31.910  60.387  1.00  0.00    -0.353 N 
HETATM   16  H   UNL     1       4.263  31.166  60.744  1.00  0.00     0.163 HD
HETATM   17  O   UNL     1       3.071  33.162  58.580  1.00  0.00    -0.268 OA
BRANCH  15  18
HETATM   18  C   UNL     1       3.191  32.872  61.349  1.00  0.00     0.161 C 
BRANCH  18  19
HETATM   19  C   UNL     1       4.195  33.116  62.448  1.00  0.00    -0.040 A 
HETATM   20  C   UNL     1       3.871  33.936  63.538  1.00  0.00     0.010 A 
HETATM   21  C   UNL     1       4.789  34.133  64.575  1.00  0.00     0.024 A 
HETATM   22  C   UNL     1       6.033  33.508  64.528  1.00  0.00     0.034 A 
HETATM   23 CL   UNL     1       7.161  33.752  65.804  1.00  0.00    -0.084 Cl
HETATM   24  C   UNL     1       6.367  32.682  63.459  1.00  0.00     0.024 A 
HETATM   25  C   UNL     1       5.448  32.480  62.427  1.00  0.00     0.010 A 
ENDBRANCH  18  19
ENDBRANCH  15  18
ENDBRANCH  10  14
BRANCH   1  26
HETATM   26  C   UNL     1       7.666  26.993  54.577  1.00  0.00     0.103 C 
BRANCH  26  27
HETATM   27  S   UNL     1       6.752  25.447  54.956  1.00  0.00    -0.162 SA
BRANCH  27  28
HETATM   28  C   UNL     1       7.854  24.237  54.158  1.00  0.00     0.112 C 
BRANCH  28  29
HETATM   29  C   UNL     1       7.987  22.971  54.975  1.00  0.00    -0.043 A 
HETATM   30  C   UNL     1       7.968  21.688  54.386  1.00  0.00    -0.055 A 
HETATM   31  C   UNL     1       7.821  21.494  52.900  1.00  0.00     0.049 C 
HETATM   32  C   UNL     1       8.122  20.555  55.203  1.00  0.00     0.007 A 
HETATM   33  C   UNL     1       8.271  20.683  56.584  1.00  0.00     0.001 A 
HETATM   34  C   UNL     1       8.267  21.944  57.169  1.00  0.00     0.001 A 
HETATM   35  C   UNL     1       8.124  23.079  56.371  1.00  0.00     0.008 A 
ENDBRANCH  28  29
ENDBRANCH  27  28
ENDBRANCH  26  27
ENDBRANCH   1  26
TORSDOF 7
ENDMDL
