MODEL 1
REMARK VINA RESULT:      -8.5      0.000      0.000
REMARK  8 active torsions:
REMARK  status: ('A' for Active; 'I' for Inactive)
REMARK    1  A    between atoms: C_2  and  N_3 
REMARK    2  A    between atoms: C_2  and  C_17 
REMARK    3  A    between atoms: N_3  and  C_6 
REMARK    4  A    between atoms: C_6  and  C_7 
REMARK    5  A    between atoms: C_7  and  O_8 
REMARK    6  A    between atoms: C_7  and  C_9 
REMARK    7  A    between atoms: C_11  and  O_12 
REMARK    8  A    between atoms: C_17  and  C_18 
ROOT
HETATM    1  N   UNL     1       5.914  27.100  56.031  1.00  0.00    -0.068 N 
HETATM    2  H   UNL     1       4.942  26.841  56.298  1.00  0.00     0.277 HD
HETATM    3  H   UNL     1       6.488  26.336  56.429  1.00  0.00     0.277 HD
ENDROOT
BRANCH   1   4
HETATM    4  C   UNL     1       5.960  27.157  54.529  1.00  0.00     0.188 C 
HETATM    5  C   UNL     1       5.641  28.574  54.065  1.00  0.00     0.040 C 
BRANCH   4   6
HETATM    6  C   UNL     1       7.354  26.722  54.025  1.00  0.00     0.099 C 
BRANCH   6   7
HETATM    7  C   UNL     1       7.494  25.228  54.014  1.00  0.00     0.078 A 
HETATM    8  S   UNL     1       7.785  24.388  52.553  1.00  0.00    -0.073 SA
HETATM    9  C   UNL     1       7.844  22.901  53.418  1.00  0.00     0.035 A 
HETATM   10  C   UNL     1       7.637  23.157  54.777  1.00  0.00     0.074 A 
HETATM   11  C   UNL     1       8.061  21.603  52.931  1.00  0.00     0.021 A 
HETATM   12  N   UNL     1       7.437  24.494  55.108  1.00  0.00    -0.245 NA
HETATM   13  C   UNL     1       7.646  22.073  55.679  1.00  0.00     0.033 A 
HETATM   14  C   UNL     1       7.861  20.775  55.203  1.00  0.00     0.002 A 
HETATM   15  C   UNL     1       8.066  20.546  53.846  1.00  0.00     0.002 A 
ENDBRANCH   6   7
ENDBRANCH   4   6
ENDBRANCH   1   4
BRANCH   1  16
HETATM   16  C   UNL     1       6.271  28.346  56.793  1.00  0.00     0.269 C 
BRANCH  16  17
HETATM   17  C   UNL     1       7.435  28.002  57.745  1.00  0.00     0.177 C 
BRANCH  17  18
HETATM   18  O   UNL     1       7.927  26.702  57.376  1.00  0.00    -0.389 OA
HETATM   19  H   UNL     1       8.860  26.663  57.673  1.00  0.00     0.210 HD
ENDBRANCH  17  18
BRANCH  17  20
HETATM   20  C   UNL     1       8.528  29.040  57.701  1.00  0.00    -0.025 A 
HETATM   21  C   UNL     1       8.454  30.215  58.476  1.00  0.00     0.046 A 
HETATM   22  C   UNL     1       9.487  31.154  58.448  1.00  0.00     0.068 A 
HETATM   23  C   UNL     1      10.611  30.909  57.659  1.00  0.00     0.037 A 
HETATM   24  C   UNL     1      10.701  29.751  56.890  1.00  0.00     0.003 A 
HETATM   25  C   UNL     1       9.664  28.820  56.910  1.00  0.00     0.010 A 
BRANCH  22  26
HETATM   26  O   UNL     1       9.526  32.325  59.149  1.00  0.00    -0.356 OA
HETATM   27  C   UNL     1       8.875  32.353  60.413  1.00  0.00     0.210 C 
ENDBRANCH  22  26
ENDBRANCH  17  20
ENDBRANCH  16  17
ENDBRANCH   1  16
TORSDOF 8
ENDMDL
MODEL 2
REMARK VINA RESULT:      -8.1      4.249      7.214
REMARK  8 active torsions:
REMARK  status: ('A' for Active; 'I' for Inactive)
REMARK    1  A    between atoms: C_2  and  N_3 
REMARK    2  A    between atoms: C_2  and  C_17 
REMARK    3  A    between atoms: N_3  and  C_6 
REMARK    4  A    between atoms: C_6  and  C_7 
REMARK    5  A    between atoms: C_7  and  O_8 
REMARK    6  A    between atoms: C_7  and  C_9 
REMARK    7  A    between atoms: C_11  and  O_12 
REMARK    8  A    between atoms: C_17  and  C_18 
ROOT
HETATM    1  N   UNL     1       5.155  26.143  54.342  1.00  0.00    -0.068 N 
HETATM    2  H   UNL     1       5.833  25.403  54.063  1.00  0.00     0.277 HD
HETATM    3  H   UNL     1       4.348  25.607  54.707  1.00  0.00     0.277 HD
ENDROOT
BRANCH   1   4
HETATM    4  C   UNL     1       5.828  26.989  55.387  1.00  0.00     0.188 C 
HETATM    5  C   UNL     1       5.091  26.839  56.713  1.00  0.00     0.040 C 
BRANCH   4   6
HETATM    6  C   UNL     1       7.306  26.566  55.538  1.00  0.00     0.099 C 
BRANCH   6   7
HETATM    7  C   UNL     1       7.496  25.108  55.238  1.00  0.00     0.078 A 
HETATM    8  S   UNL     1       7.521  23.952  56.498  1.00  0.00    -0.073 SA
HETATM    9  C   UNL     1       7.713  22.693  55.341  1.00  0.00     0.035 A 
HETATM   10  C   UNL     1       7.743  23.252  54.060  1.00  0.00     0.074 A 
HETATM   11  C   UNL     1       7.826  21.309  55.550  1.00  0.00     0.021 A 
HETATM   12  N   UNL     1       7.617  24.638  54.011  1.00  0.00    -0.245 NA
HETATM   13  C   UNL     1       7.892  22.395  52.950  1.00  0.00     0.033 A 
HETATM   14  C   UNL     1       8.006  21.015  53.149  1.00  0.00     0.002 A 
HETATM   15  C   UNL     1       7.973  20.482  54.433  1.00  0.00     0.002 A 
ENDBRANCH   6   7
ENDBRANCH   4   6
ENDBRANCH   1   4
BRANCH   1  16
HETATM   16  C   UNL     1       4.687  26.819  53.083  1.00  0.00     0.269 C 
BRANCH  16  17
HETATM   17  C   UNL     1       5.193  25.991  51.884  1.00  0.00     0.177 C 
BRANCH  17  18
HETATM   18  O   UNL     1       4.440  24.767  51.855  1.00  0.00    -0.389 OA
HETATM   19  H   UNL     1       4.930  24.124  52.408  1.00  0.00     0.210 HD
ENDBRANCH  17  18
BRANCH  17  20
HETATM   20  C   UNL     1       5.073  26.746  50.585  1.00  0.00    -0.025 A 
HETATM   21  C   UNL     1       4.584  26.124  49.419  1.00  0.00     0.046 A 
HETATM   22  C   UNL     1       4.450  26.843  48.229  1.00  0.00     0.068 A 
HETATM   23  C   UNL     1       4.784  28.197  48.209  1.00  0.00     0.037 A 
HETATM   24  C   UNL     1       5.266  28.828  49.354  1.00  0.00     0.003 A 
HETATM   25  C   UNL     1       5.410  28.106  50.537  1.00  0.00     0.010 A 
BRANCH  22  26
HETATM   26  O   UNL     1       3.992  26.351  47.040  1.00  0.00    -0.356 OA
HETATM   27  C   UNL     1       2.739  25.680  47.049  1.00  0.00     0.210 C 
ENDBRANCH  22  26
ENDBRANCH  17  20
ENDBRANCH  16  17
ENDBRANCH   1  16
TORSDOF 8
ENDMDL
MODEL 3
REMARK VINA RESULT:      -7.9      3.349      8.717
REMARK  8 active torsions:
REMARK  status: ('A' for Active; 'I' for Inactive)
REMARK    1  A    between atoms: C_2  and  N_3 
REMARK    2  A    between atoms: C_2  and  C_17 
REMARK    3  A    between atoms: N_3  and  C_6 
REMARK    4  A    between atoms: C_6  and  C_7 
REMARK    5  A    between atoms: C_7  and  O_8 
REMARK    6  A    between atoms: C_7  and  C_9 
REMARK    7  A    between atoms: C_11  and  O_12 
REMARK    8  A    between atoms: C_17  and  C_18 
ROOT
HETATM    1  N   UNL     1       5.928  27.365  56.308  1.00  0.00    -0.068 N 
HETATM    2  H   UNL     1       5.252  26.718  56.765  1.00  0.00     0.277 HD
HETATM    3  H   UNL     1       5.348  28.185  56.056  1.00  0.00     0.277 HD
ENDROOT
BRANCH   1   4
HETATM    4  C   UNL     1       6.994  27.680  57.321  1.00  0.00     0.188 C 
HETATM    5  C   UNL     1       8.044  26.575  57.313  1.00  0.00     0.040 C 
BRANCH   4   6
HETATM    6  C   UNL     1       7.641  29.046  57.001  1.00  0.00     0.099 C 
BRANCH   6   7
HETATM    7  C   UNL     1       7.698  29.927  58.214  1.00  0.00     0.078 A 
HETATM    8  S   UNL     1       6.625  31.246  58.389  1.00  0.00    -0.073 SA
HETATM    9  C   UNL     1       7.314  31.605  59.924  1.00  0.00     0.035 A 
HETATM   10  C   UNL     1       8.325  30.680  60.197  1.00  0.00     0.074 A 
HETATM   11  C   UNL     1       6.982  32.630  60.825  1.00  0.00     0.021 A 
HETATM   12  N   UNL     1       8.538  29.721  59.210  1.00  0.00    -0.245 NA
HETATM   13  C   UNL     1       9.030  30.785  61.414  1.00  0.00     0.033 A 
HETATM   14  C   UNL     1       8.706  31.803  62.317  1.00  0.00     0.002 A 
HETATM   15  C   UNL     1       7.695  32.712  62.024  1.00  0.00     0.002 A 
ENDBRANCH   6   7
ENDBRANCH   4   6
ENDBRANCH   1   4
BRANCH   1  16
HETATM   16  C   UNL     1       6.354  26.727  55.015  1.00  0.00     0.269 C 
BRANCH  16  17
HETATM   17  C   UNL     1       5.732  25.317  54.955  1.00  0.00     0.177 C 
BRANCH  17  18
HETATM   18  O   UNL     1       4.599  25.379  54.071  1.00  0.00    -0.389 OA
HETATM   19  H   UNL     1       4.602  24.547  53.555  1.00  0.00     0.210 HD
ENDBRANCH  17  18
BRANCH  17  20
HETATM   20  C   UNL     1       6.728  24.278  54.506  1.00  0.00    -0.025 A 
HETATM   21  C   UNL     1       7.321  23.387  55.422  1.00  0.00     0.046 A 
HETATM   22  C   UNL     1       8.219  22.410  54.988  1.00  0.00     0.068 A 
HETATM   23  C   UNL     1       8.511  22.307  53.628  1.00  0.00     0.037 A 
HETATM   24  C   UNL     1       7.930  23.179  52.708  1.00  0.00     0.003 A 
HETATM   25  C   UNL     1       7.043  24.160  53.145  1.00  0.00     0.010 A 
BRANCH  22  26
HETATM   26  O   UNL     1       8.856  21.497  55.778  1.00  0.00    -0.356 OA
HETATM   27  C   UNL     1       8.060  20.486  56.383  1.00  0.00     0.210 C 
ENDBRANCH  22  26
ENDBRANCH  17  20
ENDBRANCH  16  17
ENDBRANCH   1  16
TORSDOF 8
ENDMDL
MODEL 4
REMARK VINA RESULT:      -7.8      1.735      2.424
REMARK  8 active torsions:
REMARK  status: ('A' for Active; 'I' for Inactive)
REMARK    1  A    between atoms: C_2  and  N_3 
REMARK    2  A    between atoms: C_2  and  C_17 
REMARK    3  A    between atoms: N_3  and  C_6 
REMARK    4  A    between atoms: C_6  and  C_7 
REMARK    5  A    between atoms: C_7  and  O_8 
REMARK    6  A    between atoms: C_7  and  C_9 
REMARK    7  A    between atoms: C_11  and  O_12 
REMARK    8  A    between atoms: C_17  and  C_18 
ROOT
HETATM    1  N   UNL     1       4.516  26.741  54.111  1.00  0.00    -0.068 N 
HETATM    2  H   UNL     1       3.493  26.591  53.984  1.00  0.00     0.277 HD
HETATM    3  H   UNL     1       4.729  26.228  54.984  1.00  0.00     0.277 HD
ENDROOT
BRANCH   1   4
HETATM    4  C   UNL     1       5.201  26.168  52.902  1.00  0.00     0.188 C 
HETATM    5  C   UNL     1       4.923  27.054  51.693  1.00  0.00     0.040 C 
BRANCH   4   6
HETATM    6  C   UNL     1       6.721  26.059  53.157  1.00  0.00     0.099 C 
BRANCH   6   7
HETATM    7  C   UNL     1       7.102  24.691  53.641  1.00  0.00     0.078 A 
HETATM    8  S   UNL     1       7.046  24.306  55.306  1.00  0.00    -0.073 SA
HETATM    9  C   UNL     1       7.545  22.697  54.952  1.00  0.00     0.035 A 
HETATM   10  C   UNL     1       7.719  22.568  53.572  1.00  0.00     0.074 A 
HETATM   11  C   UNL     1       7.764  21.625  55.832  1.00  0.00     0.021 A 
HETATM   12  N   UNL     1       7.463  23.717  52.828  1.00  0.00    -0.245 NA
HETATM   13  C   UNL     1       8.128  21.322  53.054  1.00  0.00     0.033 A 
HETATM   14  C   UNL     1       8.350  20.248  53.923  1.00  0.00     0.002 A 
HETATM   15  C   UNL     1       8.168  20.401  55.294  1.00  0.00     0.002 A 
ENDBRANCH   6   7
ENDBRANCH   4   6
ENDBRANCH   1   4
BRANCH   1  16
HETATM   16  C   UNL     1       4.721  28.200  54.410  1.00  0.00     0.269 C 
BRANCH  16  17
HETATM   17  C   UNL     1       4.882  28.353  55.937  1.00  0.00     0.177 C 
BRANCH  17  18
HETATM   18  O   UNL     1       4.467  27.117  56.543  1.00  0.00    -0.389 OA
HETATM   19  H   UNL     1       5.253  26.752  56.999  1.00  0.00     0.210 HD
ENDBRANCH  17  18
BRANCH  17  20
HETATM   20  C   UNL     1       6.295  28.711  56.323  1.00  0.00    -0.025 A 
HETATM   21  C   UNL     1       6.641  28.990  57.660  1.00  0.00     0.046 A 
HETATM   22  C   UNL     1       7.959  29.292  58.008  1.00  0.00     0.068 A 
HETATM   23  C   UNL     1       8.943  29.292  57.019  1.00  0.00     0.037 A 
HETATM   24  C   UNL     1       8.618  29.015  55.693  1.00  0.00     0.003 A 
HETATM   25  C   UNL     1       7.300  28.726  55.345  1.00  0.00     0.010 A 
BRANCH  22  26
HETATM   26  O   UNL     1       8.412  29.580  59.264  1.00  0.00    -0.356 OA
HETATM   27  C   UNL     1       8.002  30.814  59.839  1.00  0.00     0.210 C 
ENDBRANCH  22  26
ENDBRANCH  17  20
ENDBRANCH  16  17
ENDBRANCH   1  16
TORSDOF 8
ENDMDL
MODEL 5
REMARK VINA RESULT:      -7.7      3.876      5.884
REMARK  8 active torsions:
REMARK  status: ('A' for Active; 'I' for Inactive)
REMARK    1  A    between atoms: C_2  and  N_3 
REMARK    2  A    between atoms: C_2  and  C_17 
REMARK    3  A    between atoms: N_3  and  C_6 
REMARK    4  A    between atoms: C_6  and  C_7 
REMARK    5  A    between atoms: C_7  and  O_8 
REMARK    6  A    between atoms: C_7  and  C_9 
REMARK    7  A    between atoms: C_11  and  O_12 
REMARK    8  A    between atoms: C_17  and  C_18 
ROOT
HETATM    1  N   UNL     1       6.541  26.905  55.051  1.00  0.00    -0.068 N 
HETATM    2  H   UNL     1       6.995  27.838  54.957  1.00  0.00     0.277 HD
HETATM    3  H   UNL     1       7.110  26.296  54.436  1.00  0.00     0.277 HD
ENDROOT
BRANCH   1   4
HETATM    4  C   UNL     1       6.616  26.520  56.502  1.00  0.00     0.188 C 
HETATM    5  C   UNL     1       5.448  25.602  56.844  1.00  0.00     0.040 C 
BRANCH   4   6
HETATM    6  C   UNL     1       7.960  25.819  56.795  1.00  0.00     0.099 C 
BRANCH   6   7
HETATM    7  C   UNL     1       8.058  24.498  56.090  1.00  0.00     0.078 A 
HETATM    8  S   UNL     1       8.299  23.052  56.970  1.00  0.00    -0.073 SA
HETATM    9  C   UNL     1       8.241  22.150  55.505  1.00  0.00     0.035 A 
HETATM   10  C   UNL     1       8.038  23.028  54.437  1.00  0.00     0.074 A 
HETATM   11  C   UNL     1       8.362  20.764  55.315  1.00  0.00     0.021 A 
HETATM   12  N   UNL     1       7.934  24.373  54.782  1.00  0.00    -0.245 NA
HETATM   13  C   UNL     1       7.955  22.500  53.132  1.00  0.00     0.033 A 
HETATM   14  C   UNL     1       8.076  21.121  52.933  1.00  0.00     0.002 A 
HETATM   15  C   UNL     1       8.277  20.266  54.012  1.00  0.00     0.002 A 
ENDBRANCH   6   7
ENDBRANCH   4   6
ENDBRANCH   1   4
BRANCH   1  16
HETATM   16  C   UNL     1       5.181  27.002  54.417  1.00  0.00     0.269 C 
BRANCH  16  17
HETATM   17  C   UNL     1       5.173  26.094  53.170  1.00  0.00     0.177 C 
BRANCH  17  18
HETATM   18  O   UNL     1       4.002  25.263  53.247  1.00  0.00    -0.389 OA
HETATM   19  H   UNL     1       4.253  24.475  53.771  1.00  0.00     0.210 HD
ENDBRANCH  17  18
BRANCH  17  20
HETATM   20  C   UNL     1       5.204  26.890  51.890  1.00  0.00    -0.025 A 
HETATM   21  C   UNL     1       5.568  28.251  51.883  1.00  0.00     0.046 A 
HETATM   22  C   UNL     1       5.621  28.968  50.686  1.00  0.00     0.068 A 
HETATM   23  C   UNL     1       5.331  28.318  49.486  1.00  0.00     0.037 A 
HETATM   24  C   UNL     1       4.973  26.971  49.477  1.00  0.00     0.003 A 
HETATM   25  C   UNL     1       4.909  26.260  50.673  1.00  0.00     0.010 A 
BRANCH  22  26
HETATM   26  O   UNL     1       5.956  30.286  50.554  1.00  0.00    -0.356 OA
HETATM   27  C   UNL     1       5.456  30.977  49.416  1.00  0.00     0.210 C 
ENDBRANCH  22  26
ENDBRANCH  17  20
ENDBRANCH  16  17
ENDBRANCH   1  16
TORSDOF 8
ENDMDL
MODEL 6
REMARK VINA RESULT:      -7.7      2.587      7.747
REMARK  8 active torsions:
REMARK  status: ('A' for Active; 'I' for Inactive)
REMARK    1  A    between atoms: C_2  and  N_3 
REMARK    2  A    between atoms: C_2  and  C_17 
REMARK    3  A    between atoms: N_3  and  C_6 
REMARK    4  A    between atoms: C_6  and  C_7 
REMARK    5  A    between atoms: C_7  and  O_8 
REMARK    6  A    between atoms: C_7  and  C_9 
REMARK    7  A    between atoms: C_11  and  O_12 
REMARK    8  A    between atoms: C_17  and  C_18 
ROOT
HETATM    1  N   UNL     1       4.727  26.426  55.922  1.00  0.00    -0.068 N 
HETATM    2  H   UNL     1       4.048  26.639  56.683  1.00  0.00     0.277 HD
HETATM    3  H   UNL     1       4.164  25.890  55.238  1.00  0.00     0.277 HD
ENDROOT
BRANCH   1   4
HETATM    4  C   UNL     1       5.218  27.743  55.387  1.00  0.00     0.188 C 
HETATM    5  C   UNL     1       4.399  28.128  54.160  1.00  0.00     0.040 C 
BRANCH   4   6
HETATM    6  C   UNL     1       5.107  28.831  56.477  1.00  0.00     0.099 C 
BRANCH   6   7
HETATM    7  C   UNL     1       6.456  29.365  56.862  1.00  0.00     0.078 A 
HETATM    8  S   UNL     1       6.608  30.579  58.057  1.00  0.00    -0.073 SA
HETATM    9  C   UNL     1       8.320  30.532  57.887  1.00  0.00     0.035 A 
HETATM   10  C   UNL     1       8.656  29.581  56.920  1.00  0.00     0.074 A 
HETATM   11  C   UNL     1       9.296  31.282  58.564  1.00  0.00     0.021 A 
HETATM   12  N   UNL     1       7.580  28.917  56.338  1.00  0.00    -0.245 NA
HETATM   13  C   UNL     1      10.018  29.374  56.619  1.00  0.00     0.033 A 
HETATM   14  C   UNL     1      10.998  30.116  57.287  1.00  0.00     0.002 A 
HETATM   15  C   UNL     1      10.638  31.057  58.247  1.00  0.00     0.002 A 
ENDBRANCH   6   7
ENDBRANCH   4   6
ENDBRANCH   1   4
BRANCH   1  16
HETATM   16  C   UNL     1       5.743  25.471  56.483  1.00  0.00     0.269 C 
BRANCH  16  17
HETATM   17  C   UNL     1       7.053  25.652  55.688  1.00  0.00     0.177 C 
BRANCH  17  18
HETATM   18  O   UNL     1       8.101  25.923  56.634  1.00  0.00    -0.389 OA
HETATM   19  H   UNL     1       8.728  26.529  56.190  1.00  0.00     0.210 HD
ENDBRANCH  17  18
BRANCH  17  20
HETATM   20  C   UNL     1       7.370  24.447  54.840  1.00  0.00    -0.025 A 
HETATM   21  C   UNL     1       7.363  23.146  55.383  1.00  0.00     0.046 A 
HETATM   22  C   UNL     1       7.630  22.036  54.579  1.00  0.00     0.068 A 
HETATM   23  C   UNL     1       7.884  22.223  53.220  1.00  0.00     0.037 A 
HETATM   24  C   UNL     1       7.891  23.502  52.667  1.00  0.00     0.003 A 
HETATM   25  C   UNL     1       7.636  24.609  53.473  1.00  0.00     0.010 A 
BRANCH  22  26
HETATM   26  O   UNL     1       7.654  20.734  54.990  1.00  0.00    -0.356 OA
HETATM   27  C   UNL     1       8.871  20.018  54.823  1.00  0.00     0.210 C 
ENDBRANCH  22  26
ENDBRANCH  17  20
ENDBRANCH  16  17
ENDBRANCH   1  16
TORSDOF 8
ENDMDL
MODEL 7
REMARK VINA RESULT:      -7.6      2.307      4.168
REMARK  8 active torsions:
REMARK  status: ('A' for Active; 'I' for Inactive)
REMARK    1  A    between atoms: C_2  and  N_3 
REMARK    2  A    between atoms: C_2  and  C_17 
REMARK    3  A    between atoms: N_3  and  C_6 
REMARK    4  A    between atoms: C_6  and  C_7 
REMARK    5  A    between atoms: C_7  and  O_8 
REMARK    6  A    between atoms: C_7  and  C_9 
REMARK    7  A    between atoms: C_11  and  O_12 
REMARK    8  A    between atoms: C_17  and  C_18 
ROOT
HETATM    1  N   UNL     1       7.502  29.328  58.590  1.00  0.00    -0.068 N 
HETATM    2  H   UNL     1       6.486  29.191  58.773  1.00  0.00     0.277 HD
HETATM    3  H   UNL     1       7.949  29.055  59.483  1.00  0.00     0.277 HD
ENDROOT
BRANCH   1   4
HETATM    4  C   UNL     1       7.870  28.429  57.443  1.00  0.00     0.188 C 
HETATM    5  C   UNL     1       9.334  28.647  57.076  1.00  0.00     0.040 C 
BRANCH   4   6
HETATM    6  C   UNL     1       7.621  26.953  57.826  1.00  0.00     0.099 C 
BRANCH   6   7
HETATM    7  C   UNL     1       7.665  26.056  56.625  1.00  0.00     0.078 A 
HETATM    8  S   UNL     1       7.002  26.560  55.131  1.00  0.00    -0.073 SA
HETATM    9  C   UNL     1       7.498  25.079  54.409  1.00  0.00     0.035 A 
HETATM   10  C   UNL     1       8.144  24.297  55.371  1.00  0.00     0.074 A 
HETATM   11  C   UNL     1       7.332  24.641  53.085  1.00  0.00     0.021 A 
HETATM   12  N   UNL     1       8.234  24.866  56.639  1.00  0.00    -0.245 NA
HETATM   13  C   UNL     1       8.638  23.031  54.995  1.00  0.00     0.033 A 
HETATM   14  C   UNL     1       8.476  22.586  53.679  1.00  0.00     0.002 A 
HETATM   15  C   UNL     1       7.831  23.383  52.738  1.00  0.00     0.002 A 
ENDBRANCH   6   7
ENDBRANCH   4   6
ENDBRANCH   1   4
BRANCH   1  16
HETATM   16  C   UNL     1       7.733  30.805  58.429  1.00  0.00     0.269 C 
BRANCH  16  17
HETATM   17  C   UNL     1       8.819  31.228  59.439  1.00  0.00     0.177 C 
BRANCH  17  18
HETATM   18  O   UNL     1       9.725  32.113  58.758  1.00  0.00    -0.389 OA
HETATM   19  H   UNL     1      10.616  31.716  58.839  1.00  0.00     0.210 HD
ENDBRANCH  17  18
BRANCH  17  20
HETATM   20  C   UNL     1       8.228  31.878  60.665  1.00  0.00    -0.025 A 
HETATM   21  C   UNL     1       6.988  32.546  60.615  1.00  0.00     0.046 A 
HETATM   22  C   UNL     1       6.439  33.117  61.764  1.00  0.00     0.068 A 
HETATM   23  C   UNL     1       7.120  33.003  62.976  1.00  0.00     0.037 A 
HETATM   24  C   UNL     1       8.345  32.342  63.043  1.00  0.00     0.003 A 
HETATM   25  C   UNL     1       8.898  31.782  61.893  1.00  0.00     0.010 A 
BRANCH  22  26
HETATM   26  O   UNL     1       5.252  33.789  61.839  1.00  0.00    -0.356 OA
HETATM   27  C   UNL     1       5.308  35.196  62.033  1.00  0.00     0.210 C 
ENDBRANCH  22  26
ENDBRANCH  17  20
ENDBRANCH  16  17
ENDBRANCH   1  16
TORSDOF 8
ENDMDL
MODEL 8
REMARK VINA RESULT:      -7.5      4.517      7.341
REMARK  8 active torsions:
REMARK  status: ('A' for Active; 'I' for Inactive)
REMARK    1  A    between atoms: C_2  and  N_3 
REMARK    2  A    between atoms: C_2  and  C_17 
REMARK    3  A    between atoms: N_3  and  C_6 
REMARK    4  A    between atoms: C_6  and  C_7 
REMARK    5  A    between atoms: C_7  and  O_8 
REMARK    6  A    between atoms: C_7  and  C_9 
REMARK    7  A    between atoms: C_11  and  O_12 
REMARK    8  A    between atoms: C_17  and  C_18 
ROOT
HETATM    1  N   UNL     1       6.834  26.869  52.769  1.00  0.00    -0.068 N 
HETATM    2  H   UNL     1       7.551  27.559  52.462  1.00  0.00     0.277 HD
HETATM    3  H   UNL     1       7.203  25.966  52.421  1.00  0.00     0.277 HD
ENDROOT
BRANCH   1   4
HETATM    4  C   UNL     1       6.763  26.942  54.269  1.00  0.00     0.188 C 
HETATM    5  C   UNL     1       6.187  28.291  54.684  1.00  0.00     0.040 C 
BRANCH   4   6
HETATM    6  C   UNL     1       5.890  25.790  54.814  1.00  0.00     0.099 C 
BRANCH   6   7
HETATM    7  C   UNL     1       6.605  24.473  54.736  1.00  0.00     0.078 A 
HETATM    8  S   UNL     1       7.168  23.698  56.153  1.00  0.00    -0.073 SA
HETATM    9  C   UNL     1       7.745  22.382  55.205  1.00  0.00     0.035 A 
HETATM   10  C   UNL     1       7.461  22.631  53.860  1.00  0.00     0.074 A 
HETATM   11  C   UNL     1       8.399  21.212  55.623  1.00  0.00     0.021 A 
HETATM   12  N   UNL     1       6.806  23.832  53.600  1.00  0.00    -0.245 NA
HETATM   13  C   UNL     1       7.846  21.674  52.898  1.00  0.00     0.033 A 
HETATM   14  C   UNL     1       8.499  20.506  53.304  1.00  0.00     0.002 A 
HETATM   15  C   UNL     1       8.770  20.280  54.650  1.00  0.00     0.002 A 
ENDBRANCH   6   7
ENDBRANCH   4   6
ENDBRANCH   1   4
BRANCH   1  16
HETATM   16  C   UNL     1       5.580  27.150  51.990  1.00  0.00     0.269 C 
BRANCH  16  17
HETATM   17  C   UNL     1       5.366  25.986  51.000  1.00  0.00     0.177 C 
BRANCH  17  18
HETATM   18  O   UNL     1       4.577  24.987  51.669  1.00  0.00    -0.389 OA
HETATM   19  H   UNL     1       3.779  24.847  51.119  1.00  0.00     0.210 HD
ENDBRANCH  17  18
BRANCH  17  20
HETATM   20  C   UNL     1       4.710  26.444  49.722  1.00  0.00    -0.025 A 
HETATM   21  C   UNL     1       4.976  27.716  49.177  1.00  0.00     0.046 A 
HETATM   22  C   UNL     1       4.385  28.116  47.977  1.00  0.00     0.068 A 
HETATM   23  C   UNL     1       3.541  27.232  47.304  1.00  0.00     0.037 A 
HETATM   24  C   UNL     1       3.271  25.970  47.828  1.00  0.00     0.003 A 
HETATM   25  C   UNL     1       3.852  25.577  49.031  1.00  0.00     0.010 A 
BRANCH  22  26
HETATM   26  O   UNL     1       4.563  29.319  47.355  1.00  0.00    -0.356 OA
HETATM   27  C   UNL     1       4.685  30.470  48.181  1.00  0.00     0.210 C 
ENDBRANCH  22  26
ENDBRANCH  17  20
ENDBRANCH  16  17
ENDBRANCH   1  16
TORSDOF 8
ENDMDL
MODEL 9
REMARK VINA RESULT:      -7.4      3.401      8.948
REMARK  8 active torsions:
REMARK  status: ('A' for Active; 'I' for Inactive)
REMARK    1  A    between atoms: C_2  and  N_3 
REMARK    2  A    between atoms: C_2  and  C_17 
REMARK    3  A    between atoms: N_3  and  C_6 
REMARK    4  A    between atoms: C_6  and  C_7 
REMARK    5  A    between atoms: C_7  and  O_8 
REMARK    6  A    between atoms: C_7  and  C_9 
REMARK    7  A    between atoms: C_11  and  O_12 
REMARK    8  A    between atoms: C_17  and  C_18 
ROOT
HETATM    1  N   UNL     1       6.668  27.561  57.351  1.00  0.00    -0.068 N 
HETATM    2  H   UNL     1       5.791  27.789  57.863  1.00  0.00     0.277 HD
HETATM    3  H   UNL     1       6.406  27.680  56.356  1.00  0.00     0.277 HD
ENDROOT
BRANCH   1   4
HETATM    4  C   UNL     1       7.715  28.538  57.810  1.00  0.00     0.188 C 
HETATM    5  C   UNL     1       9.006  28.300  57.036  1.00  0.00     0.040 C 
BRANCH   4   6
HETATM    6  C   UNL     1       7.216  29.985  57.601  1.00  0.00     0.099 C 
BRANCH   6   7
HETATM    7  C   UNL     1       7.257  30.773  58.877  1.00  0.00     0.078 A 
HETATM    8  S   UNL     1       6.182  32.077  59.135  1.00  0.00    -0.073 SA
HETATM    9  C   UNL     1       6.850  32.319  60.702  1.00  0.00     0.035 A 
HETATM   10  C   UNL     1       7.857  31.374  60.919  1.00  0.00     0.074 A 
HETATM   11  C   UNL     1       6.506  33.275  61.672  1.00  0.00     0.021 A 
HETATM   12  N   UNL     1       8.083  30.492  59.867  1.00  0.00    -0.245 NA
HETATM   13  C   UNL     1       8.545  31.387  62.150  1.00  0.00     0.033 A 
HETATM   14  C   UNL     1       8.210  32.336  63.122  1.00  0.00     0.002 A 
HETATM   15  C   UNL     1       7.203  33.266  62.884  1.00  0.00     0.002 A 
ENDBRANCH   6   7
ENDBRANCH   4   6
ENDBRANCH   1   4
BRANCH   1  16
HETATM   16  C   UNL     1       6.937  26.095  57.551  1.00  0.00     0.269 C 
BRANCH  16  17
HETATM   17  C   UNL     1       5.779  25.308  56.903  1.00  0.00     0.177 C 
BRANCH  17  18
HETATM   18  O   UNL     1       4.641  26.184  56.840  1.00  0.00    -0.389 OA
HETATM   19  H   UNL     1       4.488  26.375  55.892  1.00  0.00     0.210 HD
ENDBRANCH  17  18
BRANCH  17  20
HETATM   20  C   UNL     1       6.148  24.781  55.540  1.00  0.00    -0.025 A 
HETATM   21  C   UNL     1       5.538  25.280  54.372  1.00  0.00     0.046 A 
HETATM   22  C   UNL     1       5.910  24.803  53.113  1.00  0.00     0.068 A 
HETATM   23  C   UNL     1       6.914  23.838  53.018  1.00  0.00     0.037 A 
HETATM   24  C   UNL     1       7.529  23.338  54.163  1.00  0.00     0.003 A 
HETATM   25  C   UNL     1       7.148  23.806  55.419  1.00  0.00     0.010 A 
BRANCH  22  26
HETATM   26  O   UNL     1       5.391  25.206  51.916  1.00  0.00    -0.356 OA
HETATM   27  C   UNL     1       5.086  26.586  51.767  1.00  0.00     0.210 C 
ENDBRANCH  22  26
ENDBRANCH  17  20
ENDBRANCH  16  17
ENDBRANCH   1  16
TORSDOF 8
ENDMDL
MODEL 10
REMARK VINA RESULT:      -7.4      4.647      7.501
REMARK  8 active torsions:
REMARK  status: ('A' for Active; 'I' for Inactive)
REMARK    1  A    between atoms: C_2  and  N_3 
REMARK    2  A    between atoms: C_2  and  C_17 
REMARK    3  A    between atoms: N_3  and  C_6 
REMARK    4  A    between atoms: C_6  and  C_7 
REMARK    5  A    between atoms: C_7  and  O_8 
REMARK    6  A    between atoms: C_7  and  C_9 
REMARK    7  A    between atoms: C_11  and  O_12 
REMARK    8  A    between atoms: C_17  and  C_18 
ROOT
HETATM    1  N   UNL     1       4.229  27.564  54.084  1.00  0.00    -0.068 N 
HETATM    2  H   UNL     1       4.456  27.972  55.016  1.00  0.00     0.277 HD
HETATM    3  H   UNL     1       3.525  26.837  54.302  1.00  0.00     0.277 HD
ENDROOT
BRANCH   1   4
HETATM    4  C   UNL     1       3.688  28.679  53.233  1.00  0.00     0.188 C 
HETATM    5  C   UNL     1       3.665  29.970  54.044  1.00  0.00     0.040 C 
BRANCH   4   6
HETATM    6  C   UNL     1       4.558  28.849  51.968  1.00  0.00     0.099 C 
BRANCH   6   7
HETATM    7  C   UNL     1       3.882  28.283  50.754  1.00  0.00     0.078 A 
HETATM    8  S   UNL     1       2.439  28.977  50.153  1.00  0.00    -0.073 SA
HETATM    9  C   UNL     1       2.424  27.835  48.866  1.00  0.00     0.035 A 
HETATM   10  C   UNL     1       3.536  26.997  48.988  1.00  0.00     0.074 A 
HETATM   11  C   UNL     1       1.497  27.692  47.821  1.00  0.00     0.021 A 
HETATM   12  N   UNL     1       4.366  27.262  50.074  1.00  0.00    -0.245 NA
HETATM   13  C   UNL     1       3.726  25.979  48.030  1.00  0.00     0.033 A 
HETATM   14  C   UNL     1       2.807  25.829  46.986  1.00  0.00     0.002 A 
HETATM   15  C   UNL     1       1.708  26.676  46.885  1.00  0.00     0.002 A 
ENDBRANCH   6   7
ENDBRANCH   4   6
ENDBRANCH   1   4
BRANCH   1  16
HETATM   16  C   UNL     1       5.457  26.842  53.601  1.00  0.00     0.269 C 
BRANCH  16  17
HETATM   17  C   UNL     1       5.126  25.337  53.536  1.00  0.00     0.177 C 
BRANCH  17  18
HETATM   18  O   UNL     1       4.626  25.059  52.217  1.00  0.00    -0.389 OA
HETATM   19  H   UNL     1       4.713  25.889  51.705  1.00  0.00     0.210 HD
ENDBRANCH  17  18
BRANCH  17  20
HETATM   20  C   UNL     1       6.323  24.480  53.866  1.00  0.00    -0.025 A 
HETATM   21  C   UNL     1       6.752  24.303  55.197  1.00  0.00     0.046 A 
HETATM   22  C   UNL     1       7.844  23.483  55.490  1.00  0.00     0.068 A 
HETATM   23  C   UNL     1       8.497  22.818  54.452  1.00  0.00     0.037 A 
HETATM   24  C   UNL     1       8.082  22.980  53.132  1.00  0.00     0.003 A 
HETATM   25  C   UNL     1       7.000  23.808  52.840  1.00  0.00     0.010 A 
BRANCH  22  26
HETATM   26  O   UNL     1       8.352  23.238  56.734  1.00  0.00    -0.356 OA
HETATM   27  C   UNL     1       8.876  24.345  57.457  1.00  0.00     0.210 C 
ENDBRANCH  22  26
ENDBRANCH  17  20
ENDBRANCH  16  17
ENDBRANCH   1  16
TORSDOF 8
ENDMDL
