MODEL 1
REMARK VINA RESULT:     -11.0      0.000      0.000
REMARK  3 active torsions:
REMARK  status: ('A' for Active; 'I' for Inactive)
REMARK    1  A    between atoms: N_9  and  C_10 
REMARK    2  A    between atoms: C_10  and  C_11 
REMARK    3  A    between atoms: C_11  and  C_12 
REMARK       I    between atoms: C_12  and  N_13 
ROOT
HETATM    1  C   UNL     1       9.293  30.121  58.081  1.00  0.00     0.221 C 
HETATM    2  N   UNL     1       8.452  29.224  57.415  1.00  0.00    -0.352 N 
HETATM    3  C   UNL     1       7.428  28.429  58.094  1.00  0.00     0.129 C 
HETATM    4  C   UNL     1       6.261  28.090  57.175  1.00  0.00     0.068 C 
HETATM    5  C   UNL     1       6.715  27.465  55.847  1.00  0.00     0.094 C 
HETATM    6  N   UNL     1       5.558  27.329  54.987  1.00  0.00    -0.334 N 
HETATM    7  C   UNL     1       5.537  26.509  53.890  1.00  0.00     0.255 C 
HETATM    8  O   UNL     1       4.739  26.686  52.979  1.00  0.00    -0.268 OA
HETATM    9  C   UNL     1       6.506  25.399  53.889  1.00  0.00     0.053 A 
HETATM   10  C   UNL     1       7.334  25.256  55.008  1.00  0.00     0.026 A 
HETATM   11  N   UNL     1       7.232  26.121  56.106  1.00  0.00    -0.265 NA
HETATM   12  C   UNL     1       6.562  24.503  52.816  1.00  0.00     0.019 A 
HETATM   13  C   UNL     1       7.443  23.425  52.870  1.00  0.00     0.001 A 
HETATM   14  C   UNL     1       8.242  23.239  53.998  1.00  0.00     0.002 A 
HETATM   15  C   UNL     1       8.176  24.141  55.066  1.00  0.00     0.024 A 
HETATM   16  C   UNL     1       7.770  28.367  55.186  1.00  0.00     0.068 C 
HETATM   17  C   UNL     1       8.915  28.711  56.127  1.00  0.00     0.129 C 
HETATM   18  O   UNL     1      10.292  30.599  57.546  1.00  0.00    -0.273 OA
HETATM   19  H   UNL     1       4.928  28.114  54.897  1.00  0.00     0.164 HD
HETATM   20  H   UNL     1       8.065  26.094  56.688  1.00  0.00     0.130 HD
ENDROOT
BRANCH   1  21
HETATM   21  C   UNL     1       8.921  30.488  59.503  1.00  0.00     0.123 C 
BRANCH  21  22
HETATM   22  C   UNL     1       8.670  31.985  59.640  1.00  0.00     0.138 C 
BRANCH  22  23
HETATM   23  N   UNL     1       7.407  32.251  60.318  1.00  0.00    -0.349 N 
HETATM   24  C   UNL     1       7.300  32.520  61.670  1.00  0.00     0.045 A 
HETATM   25  C   UNL     1       5.942  32.699  61.944  1.00  0.00    -0.001 A 
HETATM   26  C   UNL     1       8.278  32.620  62.674  1.00  0.00     0.030 A 
HETATM   27  C   UNL     1       5.228  32.533  60.716  1.00  0.00    -0.027 A 
HETATM   28  C   UNL     1       5.553  32.990  63.270  1.00  0.00     0.014 A 
HETATM   29  C   UNL     1       3.755  32.643  60.528  1.00  0.00     0.051 C 
HETATM   30  C   UNL     1       6.160  32.252  59.727  1.00  0.00     0.015 A 
HETATM   31  C   UNL     1       5.944  32.004  58.273  1.00  0.00     0.069 C 
HETATM   32  C   UNL     1       6.521  33.094  64.274  1.00  0.00     0.001 A 
HETATM   33  C   UNL     1       7.866  32.911  63.978  1.00  0.00     0.002 A 
ENDBRANCH  22  23
ENDBRANCH  21  22
ENDBRANCH   1  21
TORSDOF 3
ENDMDL
MODEL 2
REMARK VINA RESULT:     -10.9      2.390      3.662
REMARK  3 active torsions:
REMARK  status: ('A' for Active; 'I' for Inactive)
REMARK    1  A    between atoms: N_9  and  C_10 
REMARK    2  A    between atoms: C_10  and  C_11 
REMARK    3  A    between atoms: C_11  and  C_12 
REMARK       I    between atoms: C_12  and  N_13 
ROOT
HETATM    1  C   UNL     1       6.056  28.398  57.028  1.00  0.00     0.221 C 
HETATM    2  N   UNL     1       6.724  27.175  56.915  1.00  0.00    -0.352 N 
HETATM    3  C   UNL     1       8.182  27.061  56.844  1.00  0.00     0.129 C 
HETATM    4  C   UNL     1       8.681  25.732  57.396  1.00  0.00     0.068 C 
HETATM    5  C   UNL     1       7.959  24.525  56.777  1.00  0.00     0.094 C 
HETATM    6  N   UNL     1       8.387  23.330  57.475  1.00  0.00    -0.334 N 
HETATM    7  C   UNL     1       8.214  22.069  56.969  1.00  0.00     0.255 C 
HETATM    8  O   UNL     1       8.213  21.085  57.697  1.00  0.00    -0.268 OA
HETATM    9  C   UNL     1       8.060  21.971  55.506  1.00  0.00     0.053 A 
HETATM   10  C   UNL     1       8.133  23.153  54.763  1.00  0.00     0.026 A 
HETATM   11  N   UNL     1       8.371  24.390  55.380  1.00  0.00    -0.265 NA
HETATM   12  C   UNL     1       7.881  20.728  54.891  1.00  0.00     0.019 A 
HETATM   13  C   UNL     1       7.802  20.657  53.502  1.00  0.00     0.001 A 
HETATM   14  C   UNL     1       7.921  21.820  52.741  1.00  0.00     0.002 A 
HETATM   15  C   UNL     1       8.101  23.058  53.368  1.00  0.00     0.024 A 
HETATM   16  C   UNL     1       6.439  24.708  56.911  1.00  0.00     0.068 C 
HETATM   17  C   UNL     1       5.964  26.050  56.375  1.00  0.00     0.129 C 
HETATM   18  O   UNL     1       4.843  28.498  56.851  1.00  0.00    -0.273 OA
HETATM   19  H   UNL     1       8.410  23.343  58.485  1.00  0.00     0.164 HD
HETATM   20  H   UNL     1       8.104  25.168  54.784  1.00  0.00     0.130 HD
ENDROOT
BRANCH   1  21
HETATM   21  C   UNL     1       6.892  29.610  57.385  1.00  0.00     0.123 C 
BRANCH  21  22
HETATM   22  C   UNL     1       6.050  30.881  57.390  1.00  0.00     0.138 C 
BRANCH  22  23
HETATM   23  N   UNL     1       6.073  31.526  58.697  1.00  0.00    -0.349 N 
HETATM   24  C   UNL     1       7.226  31.742  59.430  1.00  0.00     0.045 A 
HETATM   25  C   UNL     1       6.843  32.360  60.622  1.00  0.00    -0.001 A 
HETATM   26  C   UNL     1       8.571  31.446  59.147  1.00  0.00     0.030 A 
HETATM   27  C   UNL     1       5.421  32.516  60.590  1.00  0.00    -0.027 A 
HETATM   28  C   UNL     1       7.842  32.694  61.562  1.00  0.00     0.014 A 
HETATM   29  C   UNL     1       4.576  33.133  61.649  1.00  0.00     0.051 C 
HETATM   30  C   UNL     1       4.971  31.986  59.389  1.00  0.00     0.015 A 
HETATM   31  C   UNL     1       3.581  31.907  58.857  1.00  0.00     0.069 C 
HETATM   32  C   UNL     1       9.183  32.405  61.287  1.00  0.00     0.001 A 
HETATM   33  C   UNL     1       9.540  31.789  60.094  1.00  0.00     0.002 A 
ENDBRANCH  22  23
ENDBRANCH  21  22
ENDBRANCH   1  21
TORSDOF 3
ENDMDL
MODEL 3
REMARK VINA RESULT:     -10.8      1.084      2.308
REMARK  3 active torsions:
REMARK  status: ('A' for Active; 'I' for Inactive)
REMARK    1  A    between atoms: N_9  and  C_10 
REMARK    2  A    between atoms: C_10  and  C_11 
REMARK    3  A    between atoms: C_11  and  C_12 
REMARK       I    between atoms: C_12  and  N_13 
ROOT
HETATM    1  C   UNL     1       8.402  29.648  57.596  1.00  0.00     0.221 C 
HETATM    2  N   UNL     1       7.776  28.539  57.018  1.00  0.00    -0.352 N 
HETATM    3  C   UNL     1       6.892  27.640  57.760  1.00  0.00     0.129 C 
HETATM    4  C   UNL     1       5.851  26.985  56.861  1.00  0.00     0.068 C 
HETATM    5  C   UNL     1       6.472  26.320  55.623  1.00  0.00     0.094 C 
HETATM    6  N   UNL     1       5.400  25.870  54.759  1.00  0.00    -0.334 N 
HETATM    7  C   UNL     1       5.582  24.949  53.763  1.00  0.00     0.255 C 
HETATM    8  O   UNL     1       4.806  24.869  52.820  1.00  0.00    -0.268 OA
HETATM    9  C   UNL     1       6.743  24.053  53.911  1.00  0.00     0.053 A 
HETATM   10  C   UNL     1       7.533  24.193  55.056  1.00  0.00     0.026 A 
HETATM   11  N   UNL     1       7.223  25.137  56.046  1.00  0.00    -0.265 NA
HETATM   12  C   UNL     1       7.014  23.074  52.948  1.00  0.00     0.019 A 
HETATM   13  C   UNL     1       8.079  22.198  53.145  1.00  0.00     0.001 A 
HETATM   14  C   UNL     1       8.849  22.293  54.304  1.00  0.00     0.002 A 
HETATM   15  C   UNL     1       8.568  23.274  55.260  1.00  0.00     0.024 A 
HETATM   16  C   UNL     1       7.365  27.331  54.887  1.00  0.00     0.068 C 
HETATM   17  C   UNL     1       8.383  27.989  55.808  1.00  0.00     0.129 C 
HETATM   18  O   UNL     1       9.315  30.250  57.032  1.00  0.00    -0.273 OA
HETATM   19  H   UNL     1       4.638  26.505  54.566  1.00  0.00     0.164 HD
HETATM   20  H   UNL     1       8.019  25.334  56.645  1.00  0.00     0.130 HD
ENDROOT
BRANCH   1  21
HETATM   21  C   UNL     1       7.906  30.087  58.958  1.00  0.00     0.123 C 
BRANCH  21  22
HETATM   22  C   UNL     1       7.874  31.608  59.070  1.00  0.00     0.138 C 
BRANCH  22  23
HETATM   23  N   UNL     1       7.424  32.032  60.391  1.00  0.00    -0.349 N 
HETATM   24  C   UNL     1       6.115  32.364  60.689  1.00  0.00     0.045 A 
HETATM   25  C   UNL     1       6.085  32.733  62.035  1.00  0.00    -0.001 A 
HETATM   26  C   UNL     1       4.958  32.372  59.891  1.00  0.00     0.030 A 
HETATM   27  C   UNL     1       7.415  32.613  62.546  1.00  0.00    -0.027 A 
HETATM   28  C   UNL     1       4.851  33.123  62.601  1.00  0.00     0.014 A 
HETATM   29  C   UNL     1       7.855  32.897  63.941  1.00  0.00     0.051 C 
HETATM   30  C   UNL     1       8.224  32.182  61.505  1.00  0.00     0.015 A 
HETATM   31  C   UNL     1       9.686  31.891  61.507  1.00  0.00     0.069 C 
HETATM   32  C   UNL     1       3.694  33.131  61.815  1.00  0.00     0.001 A 
HETATM   33  C   UNL     1       3.749  32.759  60.478  1.00  0.00     0.002 A 
ENDBRANCH  22  23
ENDBRANCH  21  22
ENDBRANCH   1  21
TORSDOF 3
ENDMDL
MODEL 4
REMARK VINA RESULT:     -10.6      1.391      1.935
REMARK  3 active torsions:
REMARK  status: ('A' for Active; 'I' for Inactive)
REMARK    1  A    between atoms: N_9  and  C_10 
REMARK    2  A    between atoms: C_10  and  C_11 
REMARK    3  A    between atoms: C_11  and  C_12 
REMARK       I    between atoms: C_12  and  N_13 
ROOT
HETATM    1  C   UNL     1       6.989  29.982  57.504  1.00  0.00     0.221 C 
HETATM    2  N   UNL     1       6.675  28.960  56.603  1.00  0.00    -0.352 N 
HETATM    3  C   UNL     1       5.345  28.357  56.506  1.00  0.00     0.129 C 
HETATM    4  C   UNL     1       5.058  27.820  55.110  1.00  0.00     0.068 C 
HETATM    5  C   UNL     1       6.169  26.894  54.591  1.00  0.00     0.094 C 
HETATM    6  N   UNL     1       5.884  26.567  53.209  1.00  0.00    -0.334 N 
HETATM    7  C   UNL     1       6.464  25.511  52.559  1.00  0.00     0.255 C 
HETATM    8  O   UNL     1       6.527  25.473  51.337  1.00  0.00    -0.268 OA
HETATM    9  C   UNL     1       6.977  24.424  53.411  1.00  0.00     0.053 A 
HETATM   10  C   UNL     1       6.804  24.543  54.794  1.00  0.00     0.026 A 
HETATM   11  N   UNL     1       6.142  25.646  55.354  1.00  0.00    -0.265 NA
HETATM   12  C   UNL     1       7.585  23.299  52.843  1.00  0.00     0.019 A 
HETATM   13  C   UNL     1       8.003  22.257  53.668  1.00  0.00     0.001 A 
HETATM   14  C   UNL     1       7.795  22.338  55.045  1.00  0.00     0.002 A 
HETATM   15  C   UNL     1       7.185  23.467  55.601  1.00  0.00     0.024 A 
HETATM   16  C   UNL     1       7.527  27.605  54.705  1.00  0.00     0.068 C 
HETATM   17  C   UNL     1       7.784  28.153  56.101  1.00  0.00     0.129 C 
HETATM   18  O   UNL     1       8.151  30.312  57.738  1.00  0.00    -0.273 OA
HETATM   19  H   UNL     1       5.622  27.314  52.581  1.00  0.00     0.164 HD
HETATM   20  H   UNL     1       6.350  25.750  56.343  1.00  0.00     0.130 HD
ENDROOT
BRANCH   1  21
HETATM   21  C   UNL     1       5.830  30.679  58.188  1.00  0.00     0.123 C 
BRANCH  21  22
HETATM   22  C   UNL     1       6.147  32.146  58.455  1.00  0.00     0.138 C 
BRANCH  22  23
HETATM   23  N   UNL     1       5.859  32.507  59.838  1.00  0.00    -0.349 N 
HETATM   24  C   UNL     1       6.776  32.403  60.869  1.00  0.00     0.045 A 
HETATM   25  C   UNL     1       6.129  32.819  62.033  1.00  0.00    -0.001 A 
HETATM   26  C   UNL     1       8.116  31.979  60.875  1.00  0.00     0.030 A 
HETATM   27  C   UNL     1       4.791  33.181  61.679  1.00  0.00    -0.027 A 
HETATM   28  C   UNL     1       6.850  32.811  63.247  1.00  0.00     0.014 A 
HETATM   29  C   UNL     1       3.739  33.690  62.602  1.00  0.00     0.051 C 
HETATM   30  C   UNL     1       4.651  32.973  60.314  1.00  0.00     0.015 A 
HETATM   31  C   UNL     1       3.463  33.202  59.444  1.00  0.00     0.069 C 
HETATM   32  C   UNL     1       8.185  32.393  63.262  1.00  0.00     0.001 A 
HETATM   33  C   UNL     1       8.808  31.983  62.090  1.00  0.00     0.002 A 
ENDBRANCH  22  23
ENDBRANCH  21  22
ENDBRANCH   1  21
TORSDOF 3
ENDMDL
MODEL 5
REMARK VINA RESULT:     -10.4      1.994      3.204
REMARK  3 active torsions:
REMARK  status: ('A' for Active; 'I' for Inactive)
REMARK    1  A    between atoms: N_9  and  C_10 
REMARK    2  A    between atoms: C_10  and  C_11 
REMARK    3  A    between atoms: C_11  and  C_12 
REMARK       I    between atoms: C_12  and  N_13 
ROOT
HETATM    1  C   UNL     1       5.405  29.988  57.442  1.00  0.00     0.221 C 
HETATM    2  N   UNL     1       6.172  28.850  57.175  1.00  0.00    -0.352 N 
HETATM    3  C   UNL     1       7.621  28.888  56.969  1.00  0.00     0.129 C 
HETATM    4  C   UNL     1       8.293  27.582  57.369  1.00  0.00     0.068 C 
HETATM    5  C   UNL     1       7.634  26.354  56.723  1.00  0.00     0.094 C 
HETATM    6  N   UNL     1       8.237  25.163  57.284  1.00  0.00    -0.334 N 
HETATM    7  C   UNL     1       8.136  23.930  56.698  1.00  0.00     0.255 C 
HETATM    8  O   UNL     1       8.297  22.902  57.344  1.00  0.00    -0.268 OA
HETATM    9  C   UNL     1       7.854  23.918  55.252  1.00  0.00     0.053 A 
HETATM   10  C   UNL     1       7.745  25.151  54.599  1.00  0.00     0.026 A 
HETATM   11  N   UNL     1       7.922  26.359  55.288  1.00  0.00    -0.265 NA
HETATM   12  C   UNL     1       7.736  22.709  54.558  1.00  0.00     0.019 A 
HETATM   13  C   UNL     1       7.533  22.727  53.180  1.00  0.00     0.001 A 
HETATM   14  C   UNL     1       7.470  23.946  52.506  1.00  0.00     0.002 A 
HETATM   15  C   UNL     1       7.590  25.149  53.209  1.00  0.00     0.024 A 
HETATM   16  C   UNL     1       6.123  26.373  57.003  1.00  0.00     0.068 C 
HETATM   17  C   UNL     1       5.474  27.694  56.617  1.00  0.00     0.129 C 
HETATM   18  O   UNL     1       4.176  29.976  57.380  1.00  0.00    -0.273 OA
HETATM   19  H   UNL     1       8.354  25.108  58.287  1.00  0.00     0.164 HD
HETATM   20  H   UNL     1       7.527  27.145  54.781  1.00  0.00     0.130 HD
ENDROOT
BRANCH   1  21
HETATM   21  C   UNL     1       6.153  31.251  57.818  1.00  0.00     0.123 C 
BRANCH  21  22
HETATM   22  C   UNL     1       5.289  32.170  58.674  1.00  0.00     0.138 C 
BRANCH  22  23
HETATM   23  N   UNL     1       5.789  32.245  60.041  1.00  0.00    -0.349 N 
HETATM   24  C   UNL     1       7.124  32.120  60.382  1.00  0.00     0.045 A 
HETATM   25  C   UNL     1       7.201  32.226  61.772  1.00  0.00    -0.001 A 
HETATM   26  C   UNL     1       8.267  31.921  59.588  1.00  0.00     0.030 A 
HETATM   27  C   UNL     1       5.873  32.422  62.265  1.00  0.00    -0.027 A 
HETATM   28  C   UNL     1       8.469  32.132  62.387  1.00  0.00     0.014 A 
HETATM   29  C   UNL     1       5.476  32.594  63.691  1.00  0.00     0.051 C 
HETATM   30  C   UNL     1       5.019  32.425  61.172  1.00  0.00     0.015 A 
HETATM   31  C   UNL     1       3.540  32.602  61.134  1.00  0.00     0.069 C 
HETATM   32  C   UNL     1       9.612  31.937  61.605  1.00  0.00     0.001 A 
HETATM   33  C   UNL     1       9.510  31.834  60.223  1.00  0.00     0.002 A 
ENDBRANCH  22  23
ENDBRANCH  21  22
ENDBRANCH   1  21
TORSDOF 3
ENDMDL
MODEL 6
REMARK VINA RESULT:     -10.4      2.377      4.789
REMARK  3 active torsions:
REMARK  status: ('A' for Active; 'I' for Inactive)
REMARK    1  A    between atoms: N_9  and  C_10 
REMARK    2  A    between atoms: C_10  and  C_11 
REMARK    3  A    between atoms: C_11  and  C_12 
REMARK       I    between atoms: C_12  and  N_13 
ROOT
HETATM    1  C   UNL     1       5.456  28.245  56.151  1.00  0.00     0.221 C 
HETATM    2  N   UNL     1       6.238  27.087  56.214  1.00  0.00    -0.352 N 
HETATM    3  C   UNL     1       7.700  27.103  56.151  1.00  0.00     0.129 C 
HETATM    4  C   UNL     1       8.320  25.922  56.888  1.00  0.00     0.068 C 
HETATM    5  C   UNL     1       7.720  24.575  56.458  1.00  0.00     0.094 C 
HETATM    6  N   UNL     1       8.255  23.541  57.320  1.00  0.00    -0.334 N 
HETATM    7  C   UNL     1       8.206  22.209  57.005  1.00  0.00     0.255 C 
HETATM    8  O   UNL     1       8.293  21.347  57.870  1.00  0.00    -0.268 OA
HETATM    9  C   UNL     1       8.072  21.884  55.574  1.00  0.00     0.053 A 
HETATM   10  C   UNL     1       8.038  22.946  54.664  1.00  0.00     0.026 A 
HETATM   11  N   UNL     1       8.153  24.277  55.092  1.00  0.00    -0.265 NA
HETATM   12  C   UNL     1       8.016  20.552  55.148  1.00  0.00     0.019 A 
HETATM   13  C   UNL     1       7.955  20.272  53.785  1.00  0.00     0.001 A 
HETATM   14  C   UNL     1       7.969  21.317  52.861  1.00  0.00     0.002 A 
HETATM   15  C   UNL     1       8.026  22.644  53.299  1.00  0.00     0.024 A 
HETATM   16  C   UNL     1       6.189  24.631  56.573  1.00  0.00     0.068 C 
HETATM   17  C   UNL     1       5.593  25.829  55.849  1.00  0.00     0.129 C 
HETATM   18  O   UNL     1       4.240  28.202  55.969  1.00  0.00    -0.273 OA
HETATM   19  H   UNL     1       8.269  23.704  58.317  1.00  0.00     0.164 HD
HETATM   20  H   UNL     1       7.817  24.930  54.391  1.00  0.00     0.130 HD
ENDROOT
BRANCH   1  21
HETATM   21  C   UNL     1       6.171  29.570  56.320  1.00  0.00     0.123 C 
BRANCH  21  22
HETATM   22  C   UNL     1       5.861  30.196  57.676  1.00  0.00     0.138 C 
BRANCH  22  23
HETATM   23  N   UNL     1       7.061  30.751  58.290  1.00  0.00    -0.349 N 
HETATM   24  C   UNL     1       8.345  30.501  57.838  1.00  0.00     0.045 A 
HETATM   25  C   UNL     1       9.216  31.187  58.686  1.00  0.00    -0.001 A 
HETATM   26  C   UNL     1       8.812  29.732  56.758  1.00  0.00     0.030 A 
HETATM   27  C   UNL     1       8.423  31.863  59.666  1.00  0.00    -0.027 A 
HETATM   28  C   UNL     1      10.604  31.098  58.443  1.00  0.00     0.014 A 
HETATM   29  C   UNL     1       8.929  32.724  60.771  1.00  0.00     0.051 C 
HETATM   30  C   UNL     1       7.093  31.571  59.399  1.00  0.00     0.015 A 
HETATM   31  C   UNL     1       5.868  32.031  60.112  1.00  0.00     0.069 C 
HETATM   32  C   UNL     1      11.077  30.337  57.369  1.00  0.00     0.001 A 
HETATM   33  C   UNL     1      10.191  29.663  56.539  1.00  0.00     0.002 A 
ENDBRANCH  22  23
ENDBRANCH  21  22
ENDBRANCH   1  21
TORSDOF 3
ENDMDL
MODEL 7
REMARK VINA RESULT:     -10.4      2.364      3.809
REMARK  3 active torsions:
REMARK  status: ('A' for Active; 'I' for Inactive)
REMARK    1  A    between atoms: N_9  and  C_10 
REMARK    2  A    between atoms: C_10  and  C_11 
REMARK    3  A    between atoms: C_11  and  C_12 
REMARK       I    between atoms: C_12  and  N_13 
ROOT
HETATM    1  C   UNL     1       6.071  28.470  57.022  1.00  0.00     0.221 C 
HETATM    2  N   UNL     1       6.736  27.244  56.920  1.00  0.00    -0.352 N 
HETATM    3  C   UNL     1       8.192  27.126  56.835  1.00  0.00     0.129 C 
HETATM    4  C   UNL     1       8.696  25.805  57.402  1.00  0.00     0.068 C 
HETATM    5  C   UNL     1       7.966  24.590  56.810  1.00  0.00     0.094 C 
HETATM    6  N   UNL     1       8.400  23.405  57.521  1.00  0.00    -0.334 N 
HETATM    7  C   UNL     1       8.219  22.137  57.035  1.00  0.00     0.255 C 
HETATM    8  O   UNL     1       8.224  21.164  57.779  1.00  0.00    -0.268 OA
HETATM    9  C   UNL     1       8.049  22.017  55.577  1.00  0.00     0.053 A 
HETATM   10  C   UNL     1       8.116  23.188  54.814  1.00  0.00     0.026 A 
HETATM   11  N   UNL     1       8.362  24.433  55.410  1.00  0.00    -0.265 NA
HETATM   12  C   UNL     1       7.861  20.765  54.982  1.00  0.00     0.019 A 
HETATM   13  C   UNL     1       7.768  20.673  53.595  1.00  0.00     0.001 A 
HETATM   14  C   UNL     1       7.880  21.824  52.816  1.00  0.00     0.002 A 
HETATM   15  C   UNL     1       8.069  23.071  53.421  1.00  0.00     0.024 A 
HETATM   16  C   UNL     1       6.448  24.778  56.957  1.00  0.00     0.068 C 
HETATM   17  C   UNL     1       5.969  26.112  56.405  1.00  0.00     0.129 C 
HETATM   18  O   UNL     1       4.856  28.569  56.856  1.00  0.00    -0.273 OA
HETATM   19  H   UNL     1       8.433  23.433  58.530  1.00  0.00     0.164 HD
HETATM   20  H   UNL     1       8.089  25.203  54.805  1.00  0.00     0.130 HD
ENDROOT
BRANCH   1  21
HETATM   21  C   UNL     1       6.913  29.686  57.351  1.00  0.00     0.123 C 
BRANCH  21  22
HETATM   22  C   UNL     1       6.076  30.774  58.015  1.00  0.00     0.138 C 
BRANCH  22  23
HETATM   23  N   UNL     1       6.780  31.366  59.146  1.00  0.00    -0.349 N 
HETATM   24  C   UNL     1       6.202  32.256  60.033  1.00  0.00     0.045 A 
HETATM   25  C   UNL     1       7.188  32.611  60.956  1.00  0.00    -0.001 A 
HETATM   26  C   UNL     1       4.899  32.779  60.102  1.00  0.00     0.030 A 
HETATM   27  C   UNL     1       8.383  31.907  60.604  1.00  0.00    -0.027 A 
HETATM   28  C   UNL     1       6.856  33.520  61.984  1.00  0.00     0.014 A 
HETATM   29  C   UNL     1       9.690  31.973  61.315  1.00  0.00     0.051 C 
HETATM   30  C   UNL     1       8.102  31.148  59.477  1.00  0.00     0.015 A 
HETATM   31  C   UNL     1       8.994  30.228  58.715  1.00  0.00     0.069 C 
HETATM   32  C   UNL     1       5.561  34.043  62.061  1.00  0.00     0.001 A 
HETATM   33  C   UNL     1       4.597  33.676  61.131  1.00  0.00     0.002 A 
ENDBRANCH  22  23
ENDBRANCH  21  22
ENDBRANCH   1  21
TORSDOF 3
ENDMDL
MODEL 8
REMARK VINA RESULT:     -10.3      6.375      9.340
REMARK  3 active torsions:
REMARK  status: ('A' for Active; 'I' for Inactive)
REMARK    1  A    between atoms: N_9  and  C_10 
REMARK    2  A    between atoms: C_10  and  C_11 
REMARK    3  A    between atoms: C_11  and  C_12 
REMARK       I    between atoms: C_12  and  N_13 
ROOT
HETATM    1  C   UNL     1       4.473  28.042  52.954  1.00  0.00     0.221 C 
HETATM    2  N   UNL     1       5.430  27.175  53.491  1.00  0.00    -0.352 N 
HETATM    3  C   UNL     1       6.871  27.359  53.311  1.00  0.00     0.129 C 
HETATM    4  C   UNL     1       7.674  26.772  54.465  1.00  0.00     0.068 C 
HETATM    5  C   UNL     1       7.294  25.315  54.769  1.00  0.00     0.094 C 
HETATM    6  N   UNL     1       7.991  24.903  55.970  1.00  0.00    -0.334 N 
HETATM    7  C   UNL     1       8.153  23.590  56.324  1.00  0.00     0.255 C 
HETATM    8  O   UNL     1       8.380  23.266  57.483  1.00  0.00    -0.268 OA
HETATM    9  C   UNL     1       8.065  22.606  55.231  1.00  0.00     0.053 A 
HETATM   10  C   UNL     1       7.858  23.089  53.935  1.00  0.00     0.026 A 
HETATM   11  N   UNL     1       7.762  24.463  53.675  1.00  0.00    -0.265 NA
HETATM   12  C   UNL     1       8.220  21.239  55.488  1.00  0.00     0.019 A 
HETATM   13  C   UNL     1       8.197  20.337  54.427  1.00  0.00     0.001 A 
HETATM   14  C   UNL     1       8.040  20.804  53.123  1.00  0.00     0.002 A 
HETATM   15  C   UNL     1       7.887  22.173  52.878  1.00  0.00     0.024 A 
HETATM   16  C   UNL     1       5.774  25.208  54.967  1.00  0.00     0.068 C 
HETATM   17  C   UNL     1       4.991  25.820  53.815  1.00  0.00     0.129 C 
HETATM   18  O   UNL     1       3.279  27.751  52.912  1.00  0.00    -0.273 OA
HETATM   19  H   UNL     1       7.984  25.522  56.769  1.00  0.00     0.164 HD
HETATM   20  H   UNL     1       7.323  24.649  52.778  1.00  0.00     0.130 HD
ENDROOT
BRANCH   1  21
HETATM   21  C   UNL     1       4.969  29.371  52.422  1.00  0.00     0.123 C 
BRANCH  21  22
HETATM   22  C   UNL     1       5.312  29.279  50.939  1.00  0.00     0.138 C 
BRANCH  22  23
HETATM   23  N   UNL     1       4.111  29.136  50.125  1.00  0.00    -0.349 N 
HETATM   24  C   UNL     1       3.764  27.973  49.460  1.00  0.00     0.045 A 
HETATM   25  C   UNL     1       2.571  28.232  48.782  1.00  0.00    -0.001 A 
HETATM   26  C   UNL     1       4.397  26.720  49.396  1.00  0.00     0.030 A 
HETATM   27  C   UNL     1       2.202  29.587  49.058  1.00  0.00    -0.027 A 
HETATM   28  C   UNL     1       1.993  27.198  48.014  1.00  0.00     0.014 A 
HETATM   29  C   UNL     1       0.994  30.294  48.549  1.00  0.00     0.051 C 
HETATM   30  C   UNL     1       3.176  30.123  49.888  1.00  0.00     0.015 A 
HETATM   31  C   UNL     1       3.264  31.490  50.475  1.00  0.00     0.069 C 
HETATM   32  C   UNL     1       2.614  25.947  47.948  1.00  0.00     0.001 A 
HETATM   33  C   UNL     1       3.801  25.713  48.631  1.00  0.00     0.002 A 
ENDBRANCH  22  23
ENDBRANCH  21  22
ENDBRANCH   1  21
TORSDOF 3
ENDMDL
MODEL 9
REMARK VINA RESULT:      -9.9      6.133     10.364
REMARK  3 active torsions:
REMARK  status: ('A' for Active; 'I' for Inactive)
REMARK    1  A    between atoms: N_9  and  C_10 
REMARK    2  A    between atoms: C_10  and  C_11 
REMARK    3  A    between atoms: C_11  and  C_12 
REMARK       I    between atoms: C_12  and  N_13 
ROOT
HETATM    1  C   UNL     1       5.083  26.735  51.999  1.00  0.00     0.221 C 
HETATM    2  N   UNL     1       4.496  27.077  50.777  1.00  0.00    -0.352 N 
HETATM    3  C   UNL     1       4.754  26.351  49.533  1.00  0.00     0.129 C 
HETATM    4  C   UNL     1       3.578  26.430  48.567  1.00  0.00     0.068 C 
HETATM    5  C   UNL     1       3.105  27.872  48.327  1.00  0.00     0.094 C 
HETATM    6  N   UNL     1       1.897  27.830  47.530  1.00  0.00    -0.334 N 
HETATM    7  C   UNL     1       1.412  28.917  46.853  1.00  0.00     0.255 C 
HETATM    8  O   UNL     1       0.236  28.988  46.521  1.00  0.00    -0.268 OA
HETATM    9  C   UNL     1       2.390  29.970  46.529  1.00  0.00     0.053 A 
HETATM   10  C   UNL     1       3.721  29.762  46.906  1.00  0.00     0.026 A 
HETATM   11  N   UNL     1       4.121  28.582  47.549  1.00  0.00    -0.265 NA
HETATM   12  C   UNL     1       1.996  31.120  45.837  1.00  0.00     0.019 A 
HETATM   13  C   UNL     1       2.953  32.070  45.487  1.00  0.00     0.001 A 
HETATM   14  C   UNL     1       4.292  31.857  45.813  1.00  0.00     0.002 A 
HETATM   15  C   UNL     1       4.675  30.702  46.504  1.00  0.00     0.024 A 
HETATM   16  C   UNL     1       2.835  28.558  49.675  1.00  0.00     0.068 C 
HETATM   17  C   UNL     1       4.013  28.448  50.633  1.00  0.00     0.129 C 
HETATM   18  O   UNL     1       5.044  27.485  52.974  1.00  0.00    -0.273 OA
HETATM   19  H   UNL     1       1.169  27.179  47.792  1.00  0.00     0.164 HD
HETATM   20  H   UNL     1       5.014  28.691  48.021  1.00  0.00     0.130 HD
ENDROOT
BRANCH   1  21
HETATM   21  C   UNL     1       5.773  25.389  52.080  1.00  0.00     0.123 C 
BRANCH  21  22
HETATM   22  C   UNL     1       7.239  25.542  52.469  1.00  0.00     0.138 C 
BRANCH  22  23
HETATM   23  N   UNL     1       7.530  24.851  53.720  1.00  0.00    -0.349 N 
HETATM   24  C   UNL     1       7.736  23.487  53.817  1.00  0.00     0.045 A 
HETATM   25  C   UNL     1       7.965  23.204  55.165  1.00  0.00    -0.001 A 
HETATM   26  C   UNL     1       7.739  22.480  52.836  1.00  0.00     0.030 A 
HETATM   27  C   UNL     1       7.895  24.439  55.883  1.00  0.00    -0.027 A 
HETATM   28  C   UNL     1       8.207  21.865  55.542  1.00  0.00     0.014 A 
HETATM   29  C   UNL     1       8.084  24.619  57.350  1.00  0.00     0.051 C 
HETATM   30  C   UNL     1       7.620  25.441  54.964  1.00  0.00     0.015 A 
HETATM   31  C   UNL     1       7.456  26.905  55.189  1.00  0.00     0.069 C 
HETATM   32  C   UNL     1       8.214  20.857  54.572  1.00  0.00     0.001 A 
HETATM   33  C   UNL     1       7.983  21.163  53.237  1.00  0.00     0.002 A 
ENDBRANCH  22  23
ENDBRANCH  21  22
ENDBRANCH   1  21
TORSDOF 3
ENDMDL
MODEL 10
REMARK VINA RESULT:      -9.8      2.233      9.614
REMARK  3 active torsions:
REMARK  status: ('A' for Active; 'I' for Inactive)
REMARK    1  A    between atoms: N_9  and  C_10 
REMARK    2  A    between atoms: C_10  and  C_11 
REMARK    3  A    between atoms: C_11  and  C_12 
REMARK       I    between atoms: C_12  and  N_13 
ROOT
HETATM    1  C   UNL     1       5.806  25.910  55.562  1.00  0.00     0.221 C 
HETATM    2  N   UNL     1       6.013  27.235  55.956  1.00  0.00    -0.352 N 
HETATM    3  C   UNL     1       7.016  28.107  55.343  1.00  0.00     0.129 C 
HETATM    4  C   UNL     1       6.623  29.577  55.419  1.00  0.00     0.068 C 
HETATM    5  C   UNL     1       6.243  30.016  56.841  1.00  0.00     0.094 C 
HETATM    6  N   UNL     1       5.737  31.372  56.781  1.00  0.00    -0.334 N 
HETATM    7  C   UNL     1       5.637  32.179  57.882  1.00  0.00     0.255 C 
HETATM    8  O   UNL     1       4.875  33.137  57.901  1.00  0.00    -0.268 OA
HETATM    9  C   UNL     1       6.513  31.842  59.018  1.00  0.00     0.053 A 
HETATM   10  C   UNL     1       7.386  30.760  58.868  1.00  0.00     0.026 A 
HETATM   11  N   UNL     1       7.448  30.032  57.671  1.00  0.00    -0.265 NA
HETATM   12  C   UNL     1       6.488  32.608  60.188  1.00  0.00     0.019 A 
HETATM   13  C   UNL     1       7.373  32.306  61.222  1.00  0.00     0.001 A 
HETATM   14  C   UNL     1       8.283  31.261  61.071  1.00  0.00     0.002 A 
HETATM   15  C   UNL     1       8.300  30.503  59.896  1.00  0.00     0.024 A 
HETATM   16  C   UNL     1       5.173  29.069  57.405  1.00  0.00     0.068 C 
HETATM   17  C   UNL     1       5.575  27.605  57.300  1.00  0.00     0.129 C 
HETATM   18  O   UNL     1       5.134  25.127  56.232  1.00  0.00    -0.273 OA
HETATM   19  H   UNL     1       5.060  31.603  56.066  1.00  0.00     0.164 HD
HETATM   20  H   UNL     1       7.883  29.123  57.802  1.00  0.00     0.130 HD
ENDROOT
BRANCH   1  21
HETATM   21  C   UNL     1       6.445  25.470  54.260  1.00  0.00     0.123 C 
BRANCH  21  22
HETATM   22  C   UNL     1       7.922  25.143  54.453  1.00  0.00     0.138 C 
BRANCH  22  23
HETATM   23  N   UNL     1       8.099  23.828  55.057  1.00  0.00    -0.349 N 
HETATM   24  C   UNL     1       8.085  22.643  54.342  1.00  0.00     0.045 A 
HETATM   25  C   UNL     1       8.266  21.609  55.263  1.00  0.00    -0.001 A 
HETATM   26  C   UNL     1       7.929  22.394  52.967  1.00  0.00     0.030 A 
HETATM   27  C   UNL     1       8.392  22.202  56.558  1.00  0.00    -0.027 A 
HETATM   28  C   UNL     1       8.292  20.280  54.788  1.00  0.00     0.014 A 
HETATM   29  C   UNL     1       8.607  21.479  57.843  1.00  0.00     0.051 C 
HETATM   30  C   UNL     1       8.280  23.576  56.401  1.00  0.00     0.015 A 
HETATM   31  C   UNL     1       8.351  24.650  57.432  1.00  0.00     0.069 C 
HETATM   32  C   UNL     1       8.140  20.023  53.422  1.00  0.00     0.001 A 
HETATM   33  C   UNL     1       7.960  21.069  52.524  1.00  0.00     0.002 A 
ENDBRANCH  22  23
ENDBRANCH  21  22
ENDBRANCH   1  21
TORSDOF 3
ENDMDL
