MODEL 1
REMARK VINA RESULT:     -10.1      0.000      0.000
REMARK  6 active torsions:
REMARK  status: ('A' for Active; 'I' for Inactive)
REMARK    1  A    between atoms: C_2  and  C_3 
REMARK    2  A    between atoms: C_3  and  C_4 
REMARK    3  A    between atoms: C_3  and  C_11 
REMARK    4  A    between atoms: C_11  and  C_12 
REMARK       I    between atoms: C_12  and  N_13 
REMARK    5  A    between atoms: N_13  and  C_14 
REMARK    6  A    between atoms: C_21  and  C_22 
REMARK       I    between atoms: C_22  and  N_23 
ROOT
HETATM    1  C   UNL     1       8.384  28.608  57.336  1.00  0.00     0.035 A 
HETATM    2  C   UNL     1       7.852  29.424  58.344  1.00  0.00     0.046 A 
HETATM    3  C   UNL     1       8.569  30.567  58.766  1.00  0.00     0.030 A 
HETATM    4  C   UNL     1       9.799  30.841  58.178  1.00  0.00     0.063 A 
HETATM    5  N   UNL     1      10.245  31.981  58.784  1.00  0.00    -0.277 N 
HETATM    6  H   UNL     1      11.115  32.470  58.607  1.00  0.00     0.189 HD
HETATM    7  N   UNL     1       9.407  32.489  59.701  1.00  0.00    -0.168 NA
HETATM    8  C   UNL     1       8.364  31.627  59.699  1.00  0.00     0.156 A 
HETATM    9  C   UNL     1      10.361  30.046  57.179  1.00  0.00     0.034 A 
HETATM   10  C   UNL     1       9.623  28.931  56.765  1.00  0.00     0.032 A 
ENDROOT
BRANCH   1  11
HETATM   11  N   UNL     1       7.720  27.479  56.808  1.00  0.00    -0.327 N 
HETATM   12  C   UNL     1       7.470  26.276  57.441  1.00  0.00     0.222 C 
HETATM   13  O   UNL     1       7.884  25.951  58.551  1.00  0.00    -0.273 OA
HETATM   14  H   UNL     1       7.466  27.549  55.835  1.00  0.00     0.169 HD
BRANCH  12  15
HETATM   15  C   UNL     1       6.499  25.356  56.704  1.00  0.00     0.112 C 
BRANCH  15  16
HETATM   16  C   UNL     1       6.630  25.281  55.171  1.00  0.00     0.027 C 
BRANCH  16  17
HETATM   17  C   UNL     1       5.319  25.686  54.455  1.00  0.00     0.005 C 
HETATM   18  C   UNL     1       5.299  27.069  53.816  1.00  0.00     0.006 C 
ENDBRANCH  16  17
BRANCH  16  19
HETATM   19  C   UNL     1       7.176  23.966  54.638  1.00  0.00    -0.053 A 
HETATM   20  C   UNL     1       7.404  22.855  55.460  1.00  0.00     0.008 A 
HETATM   21  C   UNL     1       7.881  21.654  54.925  1.00  0.00     0.007 A 
HETATM   22  C   UNL     1       8.137  21.536  53.556  1.00  0.00    -0.062 A 
HETATM   23  C   UNL     1       8.675  20.252  52.997  1.00  0.00     0.048 C 
HETATM   24  C   UNL     1       7.930  22.644  52.732  1.00  0.00     0.007 A 
HETATM   25  C   UNL     1       7.446  23.842  53.265  1.00  0.00     0.008 A 
ENDBRANCH  16  19
ENDBRANCH  15  16
ENDBRANCH  12  15
ENDBRANCH   1  11
BRANCH   8  26
HETATM   26  C   UNL     1       7.202  31.845  60.573  1.00  0.00     0.270 C 
HETATM   27  N   UNL     1       7.238  31.130  61.738  1.00  0.00    -0.365 N 
HETATM   28  H   UNL     1       8.038  30.535  61.916  1.00  0.00     0.159 HD
HETATM   29  H   UNL     1       6.494  31.232  62.409  1.00  0.00     0.159 HD
HETATM   30  O   UNL     1       6.269  32.601  60.322  1.00  0.00    -0.266 OA
ENDBRANCH   8  26
TORSDOF 6
ENDMDL
MODEL 2
REMARK VINA RESULT:      -9.4      1.903      3.437
REMARK  6 active torsions:
REMARK  status: ('A' for Active; 'I' for Inactive)
REMARK    1  A    between atoms: C_2  and  C_3 
REMARK    2  A    between atoms: C_3  and  C_4 
REMARK    3  A    between atoms: C_3  and  C_11 
REMARK    4  A    between atoms: C_11  and  C_12 
REMARK       I    between atoms: C_12  and  N_13 
REMARK    5  A    between atoms: N_13  and  C_14 
REMARK    6  A    between atoms: C_21  and  C_22 
REMARK       I    between atoms: C_22  and  N_23 
ROOT
HETATM    1  C   UNL     1       7.483  28.098  56.962  1.00  0.00     0.035 A 
HETATM    2  C   UNL     1       8.250  29.101  57.573  1.00  0.00     0.046 A 
HETATM    3  C   UNL     1       7.610  30.256  58.077  1.00  0.00     0.030 A 
HETATM    4  C   UNL     1       6.232  30.375  57.935  1.00  0.00     0.063 A 
HETATM    5  N   UNL     1       5.911  31.576  58.502  1.00  0.00    -0.277 N 
HETATM    6  H   UNL     1       4.990  31.994  58.575  1.00  0.00     0.189 HD
HETATM    7  N   UNL     1       6.953  32.244  59.020  1.00  0.00    -0.168 NA
HETATM    8  C   UNL     1       8.012  31.439  58.769  1.00  0.00     0.156 A 
HETATM    9  C   UNL     1       5.441  29.401  57.327  1.00  0.00     0.034 A 
HETATM   10  C   UNL     1       6.094  28.258  56.852  1.00  0.00     0.032 A 
ENDROOT
BRANCH   1  11
HETATM   11  N   UNL     1       8.020  26.885  56.478  1.00  0.00    -0.327 N 
HETATM   12  C   UNL     1       8.194  25.704  57.173  1.00  0.00     0.222 C 
HETATM   13  O   UNL     1       8.004  25.546  58.377  1.00  0.00    -0.273 OA
HETATM   14  H   UNL     1       8.373  26.921  55.535  1.00  0.00     0.169 HD
BRANCH  12  15
HETATM   15  C   UNL     1       8.545  24.497  56.305  1.00  0.00     0.112 C 
BRANCH  15  16
HETATM   16  C   UNL     1       7.374  23.729  55.665  1.00  0.00     0.027 C 
BRANCH  16  17
HETATM   17  C   UNL     1       7.700  22.228  55.474  1.00  0.00     0.005 C 
HETATM   18  C   UNL     1       8.412  21.539  56.631  1.00  0.00     0.006 C 
ENDBRANCH  16  17
BRANCH  16  19
HETATM   19  C   UNL     1       6.820  24.349  54.392  1.00  0.00    -0.053 A 
HETATM   20  C   UNL     1       5.535  24.901  54.319  1.00  0.00     0.008 A 
HETATM   21  C   UNL     1       5.074  25.488  53.137  1.00  0.00     0.007 A 
HETATM   22  C   UNL     1       5.888  25.538  52.001  1.00  0.00    -0.062 A 
HETATM   23  C   UNL     1       5.373  26.143  50.729  1.00  0.00     0.048 C 
HETATM   24  C   UNL     1       7.164  24.972  52.059  1.00  0.00     0.007 A 
HETATM   25  C   UNL     1       7.628  24.393  53.244  1.00  0.00     0.008 A 
ENDBRANCH  16  19
ENDBRANCH  15  16
ENDBRANCH  12  15
ENDBRANCH   1  11
BRANCH   8  26
HETATM   26  C   UNL     1       9.365  31.811  59.203  1.00  0.00     0.270 C 
HETATM   27  N   UNL     1       9.552  31.756  60.557  1.00  0.00    -0.365 N 
HETATM   28  H   UNL     1       8.778  31.462  61.141  1.00  0.00     0.159 HD
HETATM   29  H   UNL     1      10.455  31.974  60.945  1.00  0.00     0.159 HD
HETATM   30  O   UNL     1      10.278  32.136  58.451  1.00  0.00    -0.266 OA
ENDBRANCH   8  26
TORSDOF 6
ENDMDL
MODEL 3
REMARK VINA RESULT:      -9.1      2.332      3.100
REMARK  6 active torsions:
REMARK  status: ('A' for Active; 'I' for Inactive)
REMARK    1  A    between atoms: C_2  and  C_3 
REMARK    2  A    between atoms: C_3  and  C_4 
REMARK    3  A    between atoms: C_3  and  C_11 
REMARK    4  A    between atoms: C_11  and  C_12 
REMARK       I    between atoms: C_12  and  N_13 
REMARK    5  A    between atoms: N_13  and  C_14 
REMARK    6  A    between atoms: C_21  and  C_22 
REMARK       I    between atoms: C_22  and  N_23 
ROOT
HETATM    1  C   UNL     1       6.601  28.416  56.090  1.00  0.00     0.035 A 
HETATM    2  C   UNL     1       7.454  29.190  56.890  1.00  0.00     0.046 A 
HETATM    3  C   UNL     1       6.903  30.157  57.761  1.00  0.00     0.030 A 
HETATM    4  C   UNL     1       5.524  30.328  57.787  1.00  0.00     0.063 A 
HETATM    5  N   UNL     1       5.298  31.317  58.702  1.00  0.00    -0.277 N 
HETATM    6  H   UNL     1       4.402  31.706  58.977  1.00  0.00     0.189 HD
HETATM    7  N   UNL     1       6.404  31.794  59.292  1.00  0.00    -0.168 NA
HETATM    8  C   UNL     1       7.406  31.084  58.723  1.00  0.00     0.156 A 
HETATM    9  C   UNL     1       4.647  29.581  56.999  1.00  0.00     0.034 A 
HETATM   10  C   UNL     1       5.215  28.617  56.159  1.00  0.00     0.032 A 
ENDROOT
BRANCH   1  11
HETATM   11  N   UNL     1       7.048  27.389  55.230  1.00  0.00    -0.327 N 
HETATM   12  C   UNL     1       7.122  27.417  53.851  1.00  0.00     0.222 C 
HETATM   13  O   UNL     1       6.703  28.319  53.129  1.00  0.00    -0.273 OA
HETATM   14  H   UNL     1       7.273  26.518  55.686  1.00  0.00     0.169 HD
BRANCH  12  15
HETATM   15  C   UNL     1       7.899  26.259  53.228  1.00  0.00     0.112 C 
BRANCH  15  16
HETATM   16  C   UNL     1       7.094  25.006  52.833  1.00  0.00     0.027 C 
BRANCH  16  17
HETATM   17  C   UNL     1       5.573  25.288  52.771  1.00  0.00     0.005 C 
HETATM   18  C   UNL     1       4.984  25.506  51.384  1.00  0.00     0.006 C 
ENDBRANCH  16  17
BRANCH  16  19
HETATM   19  C   UNL     1       7.401  23.762  53.651  1.00  0.00    -0.053 A 
HETATM   20  C   UNL     1       7.271  23.725  55.045  1.00  0.00     0.008 A 
HETATM   21  C   UNL     1       7.536  22.551  55.758  1.00  0.00     0.007 A 
HETATM   22  C   UNL     1       7.932  21.388  55.093  1.00  0.00    -0.062 A 
HETATM   23  C   UNL     1       8.242  20.143  55.870  1.00  0.00     0.048 C 
HETATM   24  C   UNL     1       8.082  21.421  53.705  1.00  0.00     0.007 A 
HETATM   25  C   UNL     1       7.809  22.591  52.991  1.00  0.00     0.008 A 
ENDBRANCH  16  19
ENDBRANCH  15  16
ENDBRANCH  12  15
ENDBRANCH   1  11
BRANCH   8  26
HETATM   26  C   UNL     1       8.805  31.300  59.119  1.00  0.00     0.270 C 
HETATM   27  N   UNL     1       9.210  30.531  60.176  1.00  0.00    -0.365 N 
HETATM   28  H   UNL     1       8.547  29.884  60.586  1.00  0.00     0.159 HD
HETATM   29  H   UNL     1      10.160  30.595  60.504  1.00  0.00     0.159 HD
HETATM   30  O   UNL     1       9.577  32.079  58.570  1.00  0.00    -0.266 OA
ENDBRANCH   8  26
TORSDOF 6
ENDMDL
MODEL 4
REMARK VINA RESULT:      -8.7      4.892      8.063
REMARK  6 active torsions:
REMARK  status: ('A' for Active; 'I' for Inactive)
REMARK    1  A    between atoms: C_2  and  C_3 
REMARK    2  A    between atoms: C_3  and  C_4 
REMARK    3  A    between atoms: C_3  and  C_11 
REMARK    4  A    between atoms: C_11  and  C_12 
REMARK       I    between atoms: C_12  and  N_13 
REMARK    5  A    between atoms: N_13  and  C_14 
REMARK    6  A    between atoms: C_21  and  C_22 
REMARK       I    between atoms: C_22  and  N_23 
ROOT
HETATM    1  C   UNL     1       5.281  28.261  52.045  1.00  0.00     0.035 A 
HETATM    2  C   UNL     1       4.899  27.520  50.918  1.00  0.00     0.046 A 
HETATM    3  C   UNL     1       3.960  28.065  50.012  1.00  0.00     0.030 A 
HETATM    4  C   UNL     1       3.425  29.320  50.276  1.00  0.00     0.063 A 
HETATM    5  N   UNL     1       2.562  29.569  49.247  1.00  0.00    -0.277 N 
HETATM    6  H   UNL     1       1.988  30.395  49.114  1.00  0.00     0.189 HD
HETATM    7  N   UNL     1       2.499  28.598  48.324  1.00  0.00    -0.168 NA
HETATM    8  C   UNL     1       3.362  27.661  48.781  1.00  0.00     0.156 A 
HETATM    9  C   UNL     1       3.777  30.080  51.391  1.00  0.00     0.034 A 
HETATM   10  C   UNL     1       4.722  29.528  52.263  1.00  0.00     0.032 A 
ENDROOT
BRANCH   1  11
HETATM   11  N   UNL     1       6.250  27.829  52.977  1.00  0.00    -0.327 N 
HETATM   12  C   UNL     1       6.035  27.175  54.175  1.00  0.00     0.222 C 
HETATM   13  O   UNL     1       4.939  26.951  54.682  1.00  0.00    -0.273 OA
HETATM   14  H   UNL     1       7.198  28.097  52.762  1.00  0.00     0.169 HD
BRANCH  12  15
HETATM   15  C   UNL     1       7.292  26.603  54.826  1.00  0.00     0.112 C 
BRANCH  15  16
HETATM   16  C   UNL     1       7.123  25.339  55.689  1.00  0.00     0.027 C 
BRANCH  16  17
HETATM   17  C   UNL     1       7.880  25.449  57.035  1.00  0.00     0.005 C 
HETATM   18  C   UNL     1       8.047  26.853  57.602  1.00  0.00     0.006 C 
ENDBRANCH  16  17
BRANCH  16  19
HETATM   19  C   UNL     1       7.431  24.031  54.978  1.00  0.00    -0.053 A 
HETATM   20  C   UNL     1       7.563  22.815  55.660  1.00  0.00     0.008 A 
HETATM   21  C   UNL     1       7.818  21.628  54.965  1.00  0.00     0.007 A 
HETATM   22  C   UNL     1       7.944  21.631  53.573  1.00  0.00    -0.062 A 
HETATM   23  C   UNL     1       8.247  20.358  52.840  1.00  0.00     0.048 C 
HETATM   24  C   UNL     1       7.832  22.842  52.887  1.00  0.00     0.007 A 
HETATM   25  C   UNL     1       7.569  24.027  53.580  1.00  0.00     0.008 A 
ENDBRANCH  16  19
ENDBRANCH  15  16
ENDBRANCH  12  15
ENDBRANCH   1  11
BRANCH   8  26
HETATM   26  C   UNL     1       3.599  26.420  48.028  1.00  0.00     0.270 C 
HETATM   27  N   UNL     1       2.709  25.420  48.306  1.00  0.00    -0.365 N 
HETATM   28  H   UNL     1       1.970  25.602  48.974  1.00  0.00     0.159 HD
HETATM   29  H   UNL     1       2.781  24.540  47.822  1.00  0.00     0.159 HD
HETATM   30  O   UNL     1       4.496  26.260  47.207  1.00  0.00    -0.266 OA
ENDBRANCH   8  26
TORSDOF 6
ENDMDL
MODEL 5
REMARK VINA RESULT:      -8.7      2.908      9.031
REMARK  6 active torsions:
REMARK  status: ('A' for Active; 'I' for Inactive)
REMARK    1  A    between atoms: C_2  and  C_3 
REMARK    2  A    between atoms: C_3  and  C_4 
REMARK    3  A    between atoms: C_3  and  C_11 
REMARK    4  A    between atoms: C_11  and  C_12 
REMARK       I    between atoms: C_12  and  N_13 
REMARK    5  A    between atoms: N_13  and  C_14 
REMARK    6  A    between atoms: C_21  and  C_22 
REMARK       I    between atoms: C_22  and  N_23 
ROOT
HETATM    1  C   UNL     1       7.711  27.213  56.932  1.00  0.00     0.035 A 
HETATM    2  C   UNL     1       6.981  27.250  55.736  1.00  0.00     0.046 A 
HETATM    3  C   UNL     1       6.726  26.047  55.038  1.00  0.00     0.030 A 
HETATM    4  C   UNL     1       7.226  24.856  55.552  1.00  0.00     0.063 A 
HETATM    5  N   UNL     1       6.830  23.888  54.673  1.00  0.00    -0.277 N 
HETATM    6  H   UNL     1       7.022  22.893  54.728  1.00  0.00     0.189 HD
HETATM    7  N   UNL     1       6.099  24.336  53.641  1.00  0.00    -0.168 NA
HETATM    8  C   UNL     1       6.023  25.670  53.854  1.00  0.00     0.156 A 
HETATM    9  C   UNL     1       7.962  24.784  56.734  1.00  0.00     0.034 A 
HETATM   10  C   UNL     1       8.185  25.986  57.416  1.00  0.00     0.032 A 
ENDROOT
BRANCH   1  11
HETATM   11  N   UNL     1       7.970  28.350  57.729  1.00  0.00    -0.327 N 
HETATM   12  C   UNL     1       9.000  29.260  57.590  1.00  0.00     0.222 C 
HETATM   13  O   UNL     1       9.936  29.167  56.799  1.00  0.00    -0.273 OA
HETATM   14  H   UNL     1       7.364  28.458  58.528  1.00  0.00     0.169 HD
BRANCH  12  15
HETATM   15  C   UNL     1       8.855  30.523  58.434  1.00  0.00     0.112 C 
BRANCH  15  16
HETATM   16  C   UNL     1       7.481  30.783  59.079  1.00  0.00     0.027 C 
BRANCH  16  17
HETATM   17  C   UNL     1       6.508  31.496  58.109  1.00  0.00     0.005 C 
HETATM   18  C   UNL     1       5.244  30.732  57.738  1.00  0.00     0.006 C 
ENDBRANCH  16  17
BRANCH  16  19
HETATM   19  C   UNL     1       7.528  31.473  60.433  1.00  0.00    -0.053 A 
HETATM   20  C   UNL     1       6.703  32.558  60.756  1.00  0.00     0.008 A 
HETATM   21  C   UNL     1       6.758  33.146  62.024  1.00  0.00     0.007 A 
HETATM   22  C   UNL     1       7.636  32.662  62.997  1.00  0.00    -0.062 A 
HETATM   23  C   UNL     1       7.707  33.319  64.344  1.00  0.00     0.048 C 
HETATM   24  C   UNL     1       8.475  31.592  62.678  1.00  0.00     0.007 A 
HETATM   25  C   UNL     1       8.415  30.999  61.414  1.00  0.00     0.008 A 
ENDBRANCH  16  19
ENDBRANCH  15  16
ENDBRANCH  12  15
ENDBRANCH   1  11
BRANCH   8  26
HETATM   26  C   UNL     1       5.275  26.541  52.936  1.00  0.00     0.270 C 
HETATM   27  N   UNL     1       3.927  26.573  53.170  1.00  0.00    -0.365 N 
HETATM   28  H   UNL     1       3.557  26.026  53.938  1.00  0.00     0.159 HD
HETATM   29  H   UNL     1       3.336  27.160  52.604  1.00  0.00     0.159 HD
HETATM   30  O   UNL     1       5.777  27.207  52.037  1.00  0.00    -0.266 OA
ENDBRANCH   8  26
TORSDOF 6
ENDMDL
MODEL 6
REMARK VINA RESULT:      -8.7      2.918      9.034
REMARK  6 active torsions:
REMARK  status: ('A' for Active; 'I' for Inactive)
REMARK    1  A    between atoms: C_2  and  C_3 
REMARK    2  A    between atoms: C_3  and  C_4 
REMARK    3  A    between atoms: C_3  and  C_11 
REMARK    4  A    between atoms: C_11  and  C_12 
REMARK       I    between atoms: C_12  and  N_13 
REMARK    5  A    between atoms: N_13  and  C_14 
REMARK    6  A    between atoms: C_21  and  C_22 
REMARK       I    between atoms: C_22  and  N_23 
ROOT
HETATM    1  C   UNL     1       7.193  26.191  55.147  1.00  0.00     0.035 A 
HETATM    2  C   UNL     1       7.366  24.900  55.666  1.00  0.00     0.046 A 
HETATM    3  C   UNL     1       7.779  23.855  54.809  1.00  0.00     0.030 A 
HETATM    4  C   UNL     1       7.986  24.135  53.463  1.00  0.00     0.063 A 
HETATM    5  N   UNL     1       8.366  22.949  52.900  1.00  0.00    -0.277 N 
HETATM    6  H   UNL     1       8.595  22.777  51.927  1.00  0.00     0.189 HD
HETATM    7  N   UNL     1       8.445  21.923  53.762  1.00  0.00    -0.168 NA
HETATM    8  C   UNL     1       8.089  22.468  54.948  1.00  0.00     0.156 A 
HETATM    9  C   UNL     1       7.816  25.405  52.913  1.00  0.00     0.034 A 
HETATM   10  C   UNL     1       7.424  26.427  53.785  1.00  0.00     0.032 A 
ENDROOT
BRANCH   1  11
HETATM   11  N   UNL     1       6.836  27.311  55.931  1.00  0.00    -0.327 N 
HETATM   12  C   UNL     1       7.283  27.628  57.199  1.00  0.00     0.222 C 
HETATM   13  O   UNL     1       7.995  26.920  57.906  1.00  0.00    -0.273 OA
HETATM   14  H   UNL     1       6.123  27.901  55.532  1.00  0.00     0.169 HD
BRANCH  12  15
HETATM   15  C   UNL     1       6.925  29.037  57.669  1.00  0.00     0.112 C 
BRANCH  15  16
HETATM   16  C   UNL     1       8.089  30.021  57.886  1.00  0.00     0.027 C 
BRANCH  16  17
HETATM   17  C   UNL     1       9.461  29.378  57.571  1.00  0.00     0.005 C 
HETATM   18  C   UNL     1      10.177  29.891  56.329  1.00  0.00     0.006 C 
ENDBRANCH  16  17
BRANCH  16  19
HETATM   19  C   UNL     1       8.095  30.721  59.236  1.00  0.00    -0.053 A 
HETATM   20  C   UNL     1       7.087  31.610  59.629  1.00  0.00     0.008 A 
HETATM   21  C   UNL     1       7.115  32.210  60.892  1.00  0.00     0.007 A 
HETATM   22  C   UNL     1       8.148  31.932  61.790  1.00  0.00    -0.062 A 
HETATM   23  C   UNL     1       8.183  32.604  63.131  1.00  0.00     0.048 C 
HETATM   24  C   UNL     1       9.167  31.060  61.400  1.00  0.00     0.007 A 
HETATM   25  C   UNL     1       9.135  30.454  60.141  1.00  0.00     0.008 A 
ENDBRANCH  16  19
ENDBRANCH  15  16
ENDBRANCH  12  15
ENDBRANCH   1  11
BRANCH   8  26
HETATM   26  C   UNL     1       8.066  21.660  56.175  1.00  0.00     0.270 C 
HETATM   27  N   UNL     1       7.637  20.374  55.988  1.00  0.00    -0.365 N 
HETATM   28  H   UNL     1       7.388  20.078  55.052  1.00  0.00     0.159 HD
HETATM   29  H   UNL     1       7.608  19.740  56.770  1.00  0.00     0.159 HD
HETATM   30  O   UNL     1       8.405  22.060  57.284  1.00  0.00    -0.266 OA
ENDBRANCH   8  26
TORSDOF 6
ENDMDL
MODEL 7
REMARK VINA RESULT:      -8.5      2.339      3.806
REMARK  6 active torsions:
REMARK  status: ('A' for Active; 'I' for Inactive)
REMARK    1  A    between atoms: C_2  and  C_3 
REMARK    2  A    between atoms: C_3  and  C_4 
REMARK    3  A    between atoms: C_3  and  C_11 
REMARK    4  A    between atoms: C_11  and  C_12 
REMARK       I    between atoms: C_12  and  N_13 
REMARK    5  A    between atoms: N_13  and  C_14 
REMARK    6  A    between atoms: C_21  and  C_22 
REMARK       I    between atoms: C_22  and  N_23 
ROOT
HETATM    1  C   UNL     1       6.783  28.010  56.204  1.00  0.00     0.035 A 
HETATM    2  C   UNL     1       7.009  29.026  57.145  1.00  0.00     0.046 A 
HETATM    3  C   UNL     1       6.249  30.216  57.080  1.00  0.00     0.030 A 
HETATM    4  C   UNL     1       5.306  30.355  56.068  1.00  0.00     0.063 A 
HETATM    5  N   UNL     1       4.748  31.587  56.259  1.00  0.00    -0.277 N 
HETATM    6  H   UNL     1       4.023  32.026  55.702  1.00  0.00     0.189 HD
HETATM    7  N   UNL     1       5.228  32.259  57.317  1.00  0.00    -0.168 NA
HETATM    8  C   UNL     1       6.155  31.422  57.838  1.00  0.00     0.156 A 
HETATM    9  C   UNL     1       5.061  29.369  55.113  1.00  0.00     0.034 A 
HETATM   10  C   UNL     1       5.813  28.192  55.208  1.00  0.00     0.032 A 
ENDROOT
BRANCH   1  11
HETATM   11  N   UNL     1       7.449  26.765  56.218  1.00  0.00    -0.327 N 
HETATM   12  C   UNL     1       6.965  25.555  56.676  1.00  0.00     0.222 C 
HETATM   13  O   UNL     1       5.894  25.385  57.254  1.00  0.00    -0.273 OA
HETATM   14  H   UNL     1       8.411  26.793  55.917  1.00  0.00     0.169 HD
BRANCH  12  15
HETATM   15  C   UNL     1       7.820  24.344  56.309  1.00  0.00     0.112 C 
BRANCH  15  16
HETATM   16  C   UNL     1       7.312  23.448  55.164  1.00  0.00     0.027 C 
BRANCH  16  17
HETATM   17  C   UNL     1       8.364  22.396  54.739  1.00  0.00     0.005 C 
HETATM   18  C   UNL     1       7.907  20.943  54.751  1.00  0.00     0.006 C 
ENDBRANCH  16  17
BRANCH  16  19
HETATM   19  C   UNL     1       6.751  24.196  53.964  1.00  0.00    -0.053 A 
HETATM   20  C   UNL     1       5.403  24.560  53.865  1.00  0.00     0.008 A 
HETATM   21  C   UNL     1       4.934  25.273  52.757  1.00  0.00     0.007 A 
HETATM   22  C   UNL     1       5.803  25.640  51.726  1.00  0.00    -0.062 A 
HETATM   23  C   UNL     1       5.283  26.379  50.529  1.00  0.00     0.048 C 
HETATM   24  C   UNL     1       7.145  25.265  51.808  1.00  0.00     0.007 A 
HETATM   25  C   UNL     1       7.617  24.560  52.919  1.00  0.00     0.008 A 
ENDBRANCH  16  19
ENDBRANCH  15  16
ENDBRANCH  12  15
ENDBRANCH   1  11
BRANCH   8  26
HETATM   26  C   UNL     1       6.911  31.788  59.044  1.00  0.00     0.270 C 
HETATM   27  N   UNL     1       6.175  31.751  60.197  1.00  0.00    -0.365 N 
HETATM   28  H   UNL     1       5.203  31.472  60.142  1.00  0.00     0.159 HD
HETATM   29  H   UNL     1       6.616  31.966  61.077  1.00  0.00     0.159 HD
HETATM   30  O   UNL     1       8.099  32.093  59.061  1.00  0.00    -0.266 OA
ENDBRANCH   8  26
TORSDOF 6
ENDMDL
MODEL 8
REMARK VINA RESULT:      -8.5      6.405      9.411
REMARK  6 active torsions:
REMARK  status: ('A' for Active; 'I' for Inactive)
REMARK    1  A    between atoms: C_2  and  C_3 
REMARK    2  A    between atoms: C_3  and  C_4 
REMARK    3  A    between atoms: C_3  and  C_11 
REMARK    4  A    between atoms: C_11  and  C_12 
REMARK       I    between atoms: C_12  and  N_13 
REMARK    5  A    between atoms: N_13  and  C_14 
REMARK    6  A    between atoms: C_21  and  C_22 
REMARK       I    between atoms: C_22  and  N_23 
ROOT
HETATM    1  C   UNL     1       4.619  26.740  49.125  1.00  0.00     0.035 A 
HETATM    2  C   UNL     1       4.281  28.027  48.681  1.00  0.00     0.046 A 
HETATM    3  C   UNL     1       3.174  28.197  47.818  1.00  0.00     0.030 A 
HETATM    4  C   UNL     1       2.460  27.074  47.416  1.00  0.00     0.063 A 
HETATM    5  N   UNL     1       1.473  27.547  46.597  1.00  0.00    -0.277 N 
HETATM    6  H   UNL     1       0.762  27.006  46.117  1.00  0.00     0.189 HD
HETATM    7  N   UNL     1       1.466  28.880  46.444  1.00  0.00    -0.168 NA
HETATM    8  C   UNL     1       2.511  29.297  47.196  1.00  0.00     0.156 A 
HETATM    9  C   UNL     1       2.773  25.780  47.831  1.00  0.00     0.034 A 
HETATM   10  C   UNL     1       3.861  25.640  48.700  1.00  0.00     0.032 A 
ENDROOT
BRANCH   1  11
HETATM   11  N   UNL     1       5.670  26.473  50.030  1.00  0.00    -0.327 N 
HETATM   12  C   UNL     1       5.590  26.361  51.404  1.00  0.00     0.222 C 
HETATM   13  O   UNL     1       4.591  26.584  52.085  1.00  0.00    -0.273 OA
HETATM   14  H   UNL     1       6.588  26.428  49.616  1.00  0.00     0.169 HD
BRANCH  12  15
HETATM   15  C   UNL     1       6.843  25.802  52.074  1.00  0.00     0.112 C 
BRANCH  15  16
HETATM   16  C   UNL     1       6.723  25.387  53.553  1.00  0.00     0.027 C 
BRANCH  16  17
HETATM   17  C   UNL     1       7.378  26.420  54.501  1.00  0.00     0.005 C 
HETATM   18  C   UNL     1       7.718  27.774  53.892  1.00  0.00     0.006 C 
ENDBRANCH  16  17
BRANCH  16  19
HETATM   19  C   UNL     1       7.185  23.971  53.861  1.00  0.00    -0.053 A 
HETATM   20  C   UNL     1       7.640  23.094  52.869  1.00  0.00     0.008 A 
HETATM   21  C   UNL     1       8.083  21.809  53.199  1.00  0.00     0.007 A 
HETATM   22  C   UNL     1       8.085  21.375  54.527  1.00  0.00    -0.062 A 
HETATM   23  C   UNL     1       8.536  19.985  54.867  1.00  0.00     0.048 C 
HETATM   24  C   UNL     1       7.617  22.237  55.521  1.00  0.00     0.007 A 
HETATM   25  C   UNL     1       7.181  23.524  55.193  1.00  0.00     0.008 A 
ENDBRANCH  16  19
ENDBRANCH  15  16
ENDBRANCH  12  15
ENDBRANCH   1  11
BRANCH   8  26
HETATM   26  C   UNL     1       2.837  30.726  47.311  1.00  0.00     0.270 C 
HETATM   27  N   UNL     1       2.139  31.381  48.288  1.00  0.00    -0.365 N 
HETATM   28  H   UNL     1       1.482  30.853  48.850  1.00  0.00     0.159 HD
HETATM   29  H   UNL     1       2.312  32.359  48.454  1.00  0.00     0.159 HD
HETATM   30  O   UNL     1       3.664  31.313  46.621  1.00  0.00    -0.266 OA
ENDBRANCH   8  26
TORSDOF 6
ENDMDL
MODEL 9
REMARK VINA RESULT:      -8.5      3.308      6.212
REMARK  6 active torsions:
REMARK  status: ('A' for Active; 'I' for Inactive)
REMARK    1  A    between atoms: C_2  and  C_3 
REMARK    2  A    between atoms: C_3  and  C_4 
REMARK    3  A    between atoms: C_3  and  C_11 
REMARK    4  A    between atoms: C_11  and  C_12 
REMARK       I    between atoms: C_12  and  N_13 
REMARK    5  A    between atoms: N_13  and  C_14 
REMARK    6  A    between atoms: C_21  and  C_22 
REMARK       I    between atoms: C_22  and  N_23 
ROOT
HETATM    1  C   UNL     1       6.926  31.988  62.173  1.00  0.00     0.035 A 
HETATM    2  C   UNL     1       5.693  32.605  62.430  1.00  0.00     0.046 A 
HETATM    3  C   UNL     1       5.567  33.475  63.537  1.00  0.00     0.030 A 
HETATM    4  C   UNL     1       6.671  33.681  64.356  1.00  0.00     0.063 A 
HETATM    5  N   UNL     1       6.248  34.548  65.324  1.00  0.00    -0.277 N 
HETATM    6  H   UNL     1       6.790  34.917  66.097  1.00  0.00     0.189 HD
HETATM    7  N   UNL     1       4.971  34.942  65.199  1.00  0.00    -0.168 NA
HETATM    8  C   UNL     1       4.537  34.289  64.096  1.00  0.00     0.156 A 
HETATM    9  C   UNL     1       7.909  33.078  64.134  1.00  0.00     0.034 A 
HETATM   10  C   UNL     1       8.014  32.236  63.022  1.00  0.00     0.032 A 
ENDROOT
BRANCH   1  11
HETATM   11  N   UNL     1       7.168  31.148  61.064  1.00  0.00    -0.327 N 
HETATM   12  C   UNL     1       7.868  31.453  59.913  1.00  0.00     0.222 C 
HETATM   13  O   UNL     1       8.313  32.559  59.617  1.00  0.00    -0.273 OA
HETATM   14  H   UNL     1       6.714  30.248  61.103  1.00  0.00     0.169 HD
BRANCH  12  15
HETATM   15  C   UNL     1       8.186  30.255  59.022  1.00  0.00     0.112 C 
BRANCH  15  16
HETATM   16  C   UNL     1       7.248  30.000  57.827  1.00  0.00     0.027 C 
BRANCH  16  17
HETATM   17  C   UNL     1       5.879  30.699  58.004  1.00  0.00     0.005 C 
HETATM   18  C   UNL     1       5.418  31.581  56.850  1.00  0.00     0.006 C 
ENDBRANCH  16  17
BRANCH  16  19
HETATM   19  C   UNL     1       7.085  28.538  57.440  1.00  0.00    -0.053 A 
HETATM   20  C   UNL     1       5.844  27.979  57.111  1.00  0.00     0.008 A 
HETATM   21  C   UNL     1       5.741  26.637  56.733  1.00  0.00     0.007 A 
HETATM   22  C   UNL     1       6.877  25.825  56.672  1.00  0.00    -0.062 A 
HETATM   23  C   UNL     1       6.752  24.379  56.292  1.00  0.00     0.048 C 
HETATM   24  C   UNL     1       8.116  26.369  57.016  1.00  0.00     0.007 A 
HETATM   25  C   UNL     1       8.221  27.713  57.386  1.00  0.00     0.008 A 
ENDBRANCH  16  19
ENDBRANCH  15  16
ENDBRANCH  12  15
ENDBRANCH   1  11
BRANCH   8  26
HETATM   26  C   UNL     1       3.165  34.470  63.602  1.00  0.00     0.270 C 
HETATM   27  N   UNL     1       2.884  35.744  63.188  1.00  0.00    -0.365 N 
HETATM   28  H   UNL     1       3.616  36.441  63.237  1.00  0.00     0.159 HD
HETATM   29  H   UNL     1       1.973  35.957  62.813  1.00  0.00     0.159 HD
HETATM   30  O   UNL     1       2.320  33.583  63.537  1.00  0.00    -0.266 OA
ENDBRANCH   8  26
TORSDOF 6
ENDMDL
MODEL 10
REMARK VINA RESULT:      -8.4      2.278      3.126
REMARK  6 active torsions:
REMARK  status: ('A' for Active; 'I' for Inactive)
REMARK    1  A    between atoms: C_2  and  C_3 
REMARK    2  A    between atoms: C_3  and  C_4 
REMARK    3  A    between atoms: C_3  and  C_11 
REMARK    4  A    between atoms: C_11  and  C_12 
REMARK       I    between atoms: C_12  and  N_13 
REMARK    5  A    between atoms: N_13  and  C_14 
REMARK    6  A    between atoms: C_21  and  C_22 
REMARK       I    between atoms: C_22  and  N_23 
ROOT
HETATM    1  C   UNL     1       5.440  29.405  56.612  1.00  0.00     0.035 A 
HETATM    2  C   UNL     1       6.406  29.976  57.453  1.00  0.00     0.046 A 
HETATM    3  C   UNL     1       6.033  31.012  58.339  1.00  0.00     0.030 A 
HETATM    4  C   UNL     1       4.714  31.452  58.338  1.00  0.00     0.063 A 
HETATM    5  N   UNL     1       4.662  32.444  59.276  1.00  0.00    -0.277 N 
HETATM    6  H   UNL     1       3.854  32.996  59.542  1.00  0.00     0.189 HD
HETATM    7  N   UNL     1       5.825  32.679  59.904  1.00  0.00    -0.168 NA
HETATM    8  C   UNL     1       6.682  31.799  59.337  1.00  0.00     0.156 A 
HETATM    9  C   UNL     1       3.730  30.911  57.511  1.00  0.00     0.034 A 
HETATM   10  C   UNL     1       4.119  29.874  56.656  1.00  0.00     0.032 A 
ENDROOT
BRANCH   1  11
HETATM   11  N   UNL     1       5.700  28.330  55.734  1.00  0.00    -0.327 N 
HETATM   12  C   UNL     1       6.920  27.944  55.213  1.00  0.00     0.222 C 
HETATM   13  O   UNL     1       7.981  28.548  55.349  1.00  0.00    -0.273 OA
HETATM   14  H   UNL     1       4.882  27.840  55.405  1.00  0.00     0.169 HD
BRANCH  12  15
HETATM   15  C   UNL     1       6.915  26.586  54.513  1.00  0.00     0.112 C 
BRANCH  15  16
HETATM   16  C   UNL     1       6.688  25.343  55.393  1.00  0.00     0.027 C 
BRANCH  16  17
HETATM   17  C   UNL     1       7.216  25.547  56.834  1.00  0.00     0.005 C 
HETATM   18  C   UNL     1       8.705  25.306  57.046  1.00  0.00     0.006 C 
ENDBRANCH  16  17
BRANCH  16  19
HETATM   19  C   UNL     1       7.181  24.035  54.795  1.00  0.00    -0.053 A 
HETATM   20  C   UNL     1       7.309  22.862  55.549  1.00  0.00     0.008 A 
HETATM   21  C   UNL     1       7.739  21.672  54.953  1.00  0.00     0.007 A 
HETATM   22  C   UNL     1       8.048  21.628  53.591  1.00  0.00    -0.062 A 
HETATM   23  C   UNL     1       8.536  20.353  52.968  1.00  0.00     0.048 C 
HETATM   24  C   UNL     1       7.940  22.797  52.835  1.00  0.00     0.007 A 
HETATM   25  C   UNL     1       7.502  23.985  53.428  1.00  0.00     0.008 A 
ENDBRANCH  16  19
ENDBRANCH  15  16
ENDBRANCH  12  15
ENDBRANCH   1  11
BRANCH   8  26
HETATM   26  C   UNL     1       8.085  31.724  59.771  1.00  0.00     0.270 C 
HETATM   27  N   UNL     1       8.370  30.637  60.552  1.00  0.00    -0.365 N 
HETATM   28  H   UNL     1       7.627  29.980  60.757  1.00  0.00     0.159 HD
HETATM   29  H   UNL     1       9.312  30.491  60.878  1.00  0.00     0.159 HD
HETATM   30  O   UNL     1       8.955  32.534  59.471  1.00  0.00    -0.266 OA
ENDBRANCH   8  26
TORSDOF 6
ENDMDL
