MODEL 1
REMARK VINA RESULT:     -10.6      0.000      0.000
REMARK  10 active torsions:
REMARK  status: ('A' for Active; 'I' for Inactive)
REMARK    1  A    between atoms: N_2  and  C_4 
REMARK    2  A    between atoms: C_4  and  C_5 
REMARK    3  A    between atoms: N_6  and  C_7 
REMARK    4  A    between atoms: C_11  and  N_12 
REMARK    5  A    between atoms: C_15  and  C_16 
REMARK       I    between atoms: C_16  and  N_17 
REMARK    6  A    between atoms: N_17  and  N_18 
REMARK    7  A    between atoms: C_19  and  C_20 
REMARK    8  A    between atoms: C_22  and  O_23 
REMARK    9  A    between atoms: O_23  and  C_24 
REMARK   10  A    between atoms: C_24  and  C_25 
ROOT
HETATM    1  C   UNL     1       5.163  31.762  58.373  1.00  0.00     0.293 C 
HETATM    2  N   UNL     1       5.062  30.392  58.228  1.00  0.00    -0.242 N 
HETATM    3  O   UNL     1       5.742  32.528  57.602  1.00  0.00    -0.264 OA
HETATM    4  H   UNL     1       4.575  29.829  58.922  1.00  0.00     0.192 HD
ENDROOT
BRANCH   1   5
HETATM    5  C   UNL     1       4.529  32.300  59.569  1.00  0.00     0.170 A 
HETATM    6  C   UNL     1       5.168  32.599  60.766  1.00  0.00     0.096 A 
HETATM    7  N   UNL     1       4.135  32.980  61.622  1.00  0.00    -0.215 N 
HETATM    8  N   UNL     1       2.977  33.015  60.905  1.00  0.00     0.012 NA
HETATM    9  N   UNL     1       3.203  32.580  59.676  1.00  0.00    -0.152 NA
BRANCH   6  10
HETATM   10  C   UNL     1       6.621  32.610  61.072  1.00  0.00     0.295 C 
BRANCH  10  11
HETATM   11  N   UNL     1       7.221  31.239  61.265  1.00  0.00    -0.073 N 
HETATM   12  C   UNL     1       7.906  31.055  62.584  1.00  0.00     0.269 C 
HETATM   13  H   UNL     1       6.422  30.573  61.214  1.00  0.00     0.279 HD
HETATM   14  C   UNL     1       8.109  30.848  60.120  1.00  0.00     0.269 C 
ENDBRANCH  10  11
ENDBRANCH   6  10
BRANCH   7  15
HETATM   15  C   UNL     1       4.166  33.249  63.012  1.00  0.00     0.225 A 
HETATM   16  N   UNL     1       4.822  32.432  63.840  1.00  0.00    -0.081 NA
HETATM   17  O   UNL     1       4.609  32.993  65.101  1.00  0.00    -0.103 OA
HETATM   18  N   UNL     1       3.811  34.124  65.018  1.00  0.00    -0.083 NA
HETATM   19  C   UNL     1       3.534  34.281  63.725  1.00  0.00     0.201 A 
BRANCH  19  20
HETATM   20  N   UNL     1       2.778  35.272  63.225  1.00  0.00    -0.379 N 
HETATM   21  H   UNL     1       2.422  35.211  62.276  1.00  0.00     0.158 HD
HETATM   22  H   UNL     1       2.698  36.193  63.653  1.00  0.00     0.158 HD
ENDBRANCH  19  20
ENDBRANCH   7  15
ENDBRANCH   1   5
BRANCH   2  23
HETATM   23  N   UNL     1       5.575  29.811  57.110  1.00  0.00    -0.184 NA
HETATM   24  C   UNL     1       5.914  28.564  57.206  1.00  0.00     0.150 C 
BRANCH  24  25
HETATM   25  C   UNL     1       6.455  27.831  56.041  1.00  0.00    -0.014 A 
HETATM   26  C   UNL     1       7.036  26.575  56.229  1.00  0.00     0.049 A 
HETATM   27  C   UNL     1       7.523  25.859  55.131  1.00  0.00     0.070 A 
HETATM   28  C   UNL     1       7.449  26.419  53.853  1.00  0.00     0.037 A 
HETATM   29  C   UNL     1       6.874  27.678  53.669  1.00  0.00     0.004 A 
HETATM   30  C   UNL     1       6.374  28.384  54.760  1.00  0.00     0.013 A 
BRANCH  27  31
HETATM   31  O   UNL     1       8.072  24.640  55.428  1.00  0.00    -0.346 OA
BRANCH  31  32
HETATM   32  C   UNL     1       7.151  23.552  55.546  1.00  0.00     0.219 C 
BRANCH  32  33
HETATM   33  C   UNL     1       7.705  22.339  54.845  1.00  0.00     0.026 A 
HETATM   34  C   UNL     1       8.251  21.244  55.529  1.00  0.00     0.045 A 
HETATM   35 CL   UNL     1       8.337  21.197  57.256  1.00  0.00    -0.084 Cl
HETATM   36  C   UNL     1       8.730  20.129  54.829  1.00  0.00     0.024 A 
HETATM   37  C   UNL     1       8.664  20.089  53.436  1.00  0.00     0.005 A 
HETATM   38  C   UNL     1       8.119  21.165  52.744  1.00  0.00     0.043 A 
HETATM   39  C   UNL     1       7.649  22.271  53.449  1.00  0.00     0.126 A 
HETATM   40  F   UNL     1       7.115  23.285  52.751  1.00  0.00    -0.205 F 
ENDBRANCH  32  33
ENDBRANCH  31  32
ENDBRANCH  27  31
ENDBRANCH  24  25
ENDBRANCH   2  23
TORSDOF 10
ENDMDL
MODEL 2
REMARK VINA RESULT:     -10.3      1.231      1.466
REMARK  10 active torsions:
REMARK  status: ('A' for Active; 'I' for Inactive)
REMARK    1  A    between atoms: N_2  and  C_4 
REMARK    2  A    between atoms: C_4  and  C_5 
REMARK    3  A    between atoms: N_6  and  C_7 
REMARK    4  A    between atoms: C_11  and  N_12 
REMARK    5  A    between atoms: C_15  and  C_16 
REMARK       I    between atoms: C_16  and  N_17 
REMARK    6  A    between atoms: N_17  and  N_18 
REMARK    7  A    between atoms: C_19  and  C_20 
REMARK    8  A    between atoms: C_22  and  O_23 
REMARK    9  A    between atoms: O_23  and  C_24 
REMARK   10  A    between atoms: C_24  and  C_25 
ROOT
HETATM    1  C   UNL     1       5.115  31.785  58.425  1.00  0.00     0.293 C 
HETATM    2  N   UNL     1       4.940  30.427  58.247  1.00  0.00    -0.242 N 
HETATM    3  O   UNL     1       5.741  32.537  57.676  1.00  0.00    -0.264 OA
HETATM    4  H   UNL     1       4.419  29.875  58.923  1.00  0.00     0.192 HD
ENDROOT
BRANCH   1   5
HETATM    5  C   UNL     1       4.502  32.329  59.629  1.00  0.00     0.170 A 
HETATM    6  C   UNL     1       5.161  32.625  60.817  1.00  0.00     0.096 A 
HETATM    7  N   UNL     1       4.142  33.014  61.687  1.00  0.00    -0.215 N 
HETATM    8  N   UNL     1       2.974  33.056  60.986  1.00  0.00     0.012 NA
HETATM    9  N   UNL     1       3.180  32.619  59.755  1.00  0.00    -0.152 NA
BRANCH   6  10
HETATM   10  C   UNL     1       6.618  32.625  61.102  1.00  0.00     0.295 C 
BRANCH  10  11
HETATM   11  N   UNL     1       7.210  31.251  61.291  1.00  0.00    -0.073 N 
HETATM   12  C   UNL     1       7.942  31.076  62.586  1.00  0.00     0.269 C 
HETATM   13  H   UNL     1       6.402  30.593  61.279  1.00  0.00     0.279 HD
HETATM   14  C   UNL     1       8.050  30.835  60.119  1.00  0.00     0.269 C 
ENDBRANCH  10  11
ENDBRANCH   6  10
BRANCH   7  15
HETATM   15  C   UNL     1       4.195  33.283  63.075  1.00  0.00     0.225 A 
HETATM   16  N   UNL     1       4.866  32.470  63.893  1.00  0.00    -0.081 NA
HETATM   17  O   UNL     1       4.672  33.031  65.158  1.00  0.00    -0.103 OA
HETATM   18  N   UNL     1       3.869  34.159  65.086  1.00  0.00    -0.083 NA
HETATM   19  C   UNL     1       3.571  34.315  63.798  1.00  0.00     0.201 A 
BRANCH  19  20
HETATM   20  N   UNL     1       2.804  35.303  63.310  1.00  0.00    -0.379 N 
HETATM   21  H   UNL     1       2.234  35.144  62.484  1.00  0.00     0.158 HD
HETATM   22  H   UNL     1       2.902  36.280  63.579  1.00  0.00     0.158 HD
ENDBRANCH  19  20
ENDBRANCH   7  15
ENDBRANCH   1   5
BRANCH   2  23
HETATM   23  N   UNL     1       5.430  29.845  57.118  1.00  0.00    -0.184 NA
HETATM   24  C   UNL     1       5.999  28.690  57.260  1.00  0.00     0.150 C 
BRANCH  24  25
HETATM   25  C   UNL     1       6.539  27.960  56.093  1.00  0.00    -0.014 A 
HETATM   26  C   UNL     1       7.110  26.698  56.275  1.00  0.00     0.049 A 
HETATM   27  C   UNL     1       7.596  25.985  55.175  1.00  0.00     0.070 A 
HETATM   28  C   UNL     1       7.530  26.553  53.900  1.00  0.00     0.037 A 
HETATM   29  C   UNL     1       6.966  27.817  53.721  1.00  0.00     0.004 A 
HETATM   30  C   UNL     1       6.467  28.521  54.814  1.00  0.00     0.013 A 
BRANCH  27  31
HETATM   31  O   UNL     1       8.134  24.760  55.466  1.00  0.00    -0.346 OA
BRANCH  31  32
HETATM   32  C   UNL     1       7.196  23.711  55.728  1.00  0.00     0.219 C 
BRANCH  32  33
HETATM   33  C   UNL     1       7.708  22.417  55.150  1.00  0.00     0.026 A 
HETATM   34  C   UNL     1       7.749  22.158  53.773  1.00  0.00     0.045 A 
HETATM   35 CL   UNL     1       7.205  23.316  52.610  1.00  0.00    -0.084 Cl
HETATM   36  C   UNL     1       8.258  20.947  53.288  1.00  0.00     0.024 A 
HETATM   37  C   UNL     1       8.741  19.979  54.170  1.00  0.00     0.005 A 
HETATM   38  C   UNL     1       8.713  20.226  55.539  1.00  0.00     0.043 A 
HETATM   39  C   UNL     1       8.201  21.432  56.012  1.00  0.00     0.126 A 
HETATM   40  F   UNL     1       8.203  21.643  57.337  1.00  0.00    -0.205 F 
ENDBRANCH  32  33
ENDBRANCH  31  32
ENDBRANCH  27  31
ENDBRANCH  24  25
ENDBRANCH   2  23
TORSDOF 10
ENDMDL
MODEL 3
REMARK VINA RESULT:     -10.1      1.496      2.501
REMARK  10 active torsions:
REMARK  status: ('A' for Active; 'I' for Inactive)
REMARK    1  A    between atoms: N_2  and  C_4 
REMARK    2  A    between atoms: C_4  and  C_5 
REMARK    3  A    between atoms: N_6  and  C_7 
REMARK    4  A    between atoms: C_11  and  N_12 
REMARK    5  A    between atoms: C_15  and  C_16 
REMARK       I    between atoms: C_16  and  N_17 
REMARK    6  A    between atoms: N_17  and  N_18 
REMARK    7  A    between atoms: C_19  and  C_20 
REMARK    8  A    between atoms: C_22  and  O_23 
REMARK    9  A    between atoms: O_23  and  C_24 
REMARK   10  A    between atoms: C_24  and  C_25 
ROOT
HETATM    1  C   UNL     1       7.707  31.385  59.928  1.00  0.00     0.293 C 
HETATM    2  N   UNL     1       8.050  30.048  59.892  1.00  0.00    -0.242 N 
HETATM    3  O   UNL     1       7.642  32.140  58.957  1.00  0.00    -0.264 OA
HETATM    4  H   UNL     1       8.093  29.497  60.747  1.00  0.00     0.192 HD
ENDROOT
BRANCH   1   5
HETATM    5  C   UNL     1       7.422  31.908  61.257  1.00  0.00     0.170 A 
HETATM    6  C   UNL     1       6.179  32.322  61.722  1.00  0.00     0.096 A 
HETATM    7  N   UNL     1       6.438  32.830  62.994  1.00  0.00    -0.215 N 
HETATM    8  N   UNL     1       7.749  32.599  63.288  1.00  0.00     0.012 NA
HETATM    9  N   UNL     1       8.352  32.070  62.236  1.00  0.00    -0.152 NA
BRANCH   6  10
HETATM   10  C   UNL     1       4.849  32.188  61.075  1.00  0.00     0.295 C 
BRANCH  10  11
HETATM   11  N   UNL     1       4.670  33.044  59.846  1.00  0.00    -0.073 N 
HETATM   12  C   UNL     1       4.155  34.420  60.133  1.00  0.00     0.269 C 
HETATM   13  H   UNL     1       5.618  33.130  59.423  1.00  0.00     0.279 HD
HETATM   14  C   UNL     1       3.851  32.353  58.795  1.00  0.00     0.269 C 
ENDBRANCH  10  11
ENDBRANCH   6  10
BRANCH   7  15
HETATM   15  C   UNL     1       5.582  33.526  63.880  1.00  0.00     0.225 A 
HETATM   16  N   UNL     1       4.834  32.856  64.760  1.00  0.00    -0.081 NA
HETATM   17  O   UNL     1       4.119  33.856  65.423  1.00  0.00    -0.103 OA
HETATM   18  N   UNL     1       4.429  35.110  64.919  1.00  0.00    -0.083 NA
HETATM   19  C   UNL     1       5.331  34.907  63.962  1.00  0.00     0.201 A 
BRANCH  19  20
HETATM   20  N   UNL     1       5.888  35.881  63.224  1.00  0.00    -0.379 N 
HETATM   21  H   UNL     1       6.142  35.704  62.256  1.00  0.00     0.158 HD
HETATM   22  H   UNL     1       6.274  36.737  63.617  1.00  0.00     0.158 HD
ENDBRANCH  19  20
ENDBRANCH   7  15
ENDBRANCH   1   5
BRANCH   2  23
HETATM   23  N   UNL     1       8.277  29.461  58.686  1.00  0.00    -0.184 NA
HETATM   24  C   UNL     1       7.300  28.780  58.177  1.00  0.00     0.150 C 
BRANCH  24  25
HETATM   25  C   UNL     1       7.433  28.127  56.858  1.00  0.00    -0.014 A 
HETATM   26  C   UNL     1       7.307  26.739  56.761  1.00  0.00     0.049 A 
HETATM   27  C   UNL     1       7.401  26.113  55.514  1.00  0.00     0.070 A 
HETATM   28  C   UNL     1       7.647  26.881  54.373  1.00  0.00     0.037 A 
HETATM   29  C   UNL     1       7.780  28.267  54.473  1.00  0.00     0.004 A 
HETATM   30  C   UNL     1       7.670  28.893  55.712  1.00  0.00     0.013 A 
BRANCH  27  31
HETATM   31  O   UNL     1       7.262  24.751  55.535  1.00  0.00    -0.346 OA
BRANCH  31  32
HETATM   32  C   UNL     1       8.475  24.001  55.653  1.00  0.00     0.219 C 
BRANCH  32  33
HETATM   33  C   UNL     1       8.367  22.731  54.850  1.00  0.00     0.026 A 
HETATM   34  C   UNL     1       8.292  21.460  55.436  1.00  0.00     0.045 A 
HETATM   35 CL   UNL     1       8.321  21.243  57.152  1.00  0.00    -0.084 Cl
HETATM   36  C   UNL     1       8.168  20.312  54.643  1.00  0.00     0.024 A 
HETATM   37  C   UNL     1       8.108  20.417  53.253  1.00  0.00     0.005 A 
HETATM   38  C   UNL     1       8.174  21.673  52.657  1.00  0.00     0.043 A 
HETATM   39  C   UNL     1       8.302  22.808  53.454  1.00  0.00     0.126 A 
HETATM   40  F   UNL     1       8.347  24.004  52.848  1.00  0.00    -0.205 F 
ENDBRANCH  32  33
ENDBRANCH  31  32
ENDBRANCH  27  31
ENDBRANCH  24  25
ENDBRANCH   2  23
TORSDOF 10
ENDMDL
MODEL 4
REMARK VINA RESULT:      -9.7      1.830      2.332
REMARK  10 active torsions:
REMARK  status: ('A' for Active; 'I' for Inactive)
REMARK    1  A    between atoms: N_2  and  C_4 
REMARK    2  A    between atoms: C_4  and  C_5 
REMARK    3  A    between atoms: N_6  and  C_7 
REMARK    4  A    between atoms: C_11  and  N_12 
REMARK    5  A    between atoms: C_15  and  C_16 
REMARK       I    between atoms: C_16  and  N_17 
REMARK    6  A    between atoms: N_17  and  N_18 
REMARK    7  A    between atoms: C_19  and  C_20 
REMARK    8  A    between atoms: C_22  and  O_23 
REMARK    9  A    between atoms: O_23  and  C_24 
REMARK   10  A    between atoms: C_24  and  C_25 
ROOT
HETATM    1  C   UNL     1       5.135  30.551  57.304  1.00  0.00     0.293 C 
HETATM    2  N   UNL     1       5.089  29.177  57.424  1.00  0.00    -0.242 N 
HETATM    3  O   UNL     1       5.641  31.178  56.371  1.00  0.00    -0.264 OA
HETATM    4  H   UNL     1       4.663  28.738  58.237  1.00  0.00     0.192 HD
ENDROOT
BRANCH   1   5
HETATM    5  C   UNL     1       4.536  31.284  58.411  1.00  0.00     0.170 A 
HETATM    6  C   UNL     1       5.224  31.886  59.457  1.00  0.00     0.096 A 
HETATM    7  N   UNL     1       4.220  32.360  60.302  1.00  0.00    -0.215 N 
HETATM    8  N   UNL     1       3.017  32.145  59.698  1.00  0.00     0.012 NA
HETATM    9  N   UNL     1       3.199  31.474  58.573  1.00  0.00    -0.152 NA
BRANCH   6  10
HETATM   10  C   UNL     1       6.687  32.078  59.625  1.00  0.00     0.295 C 
BRANCH  10  11
HETATM   11  N   UNL     1       7.396  30.904  60.253  1.00  0.00    -0.073 N 
HETATM   12  C   UNL     1       8.119  31.237  61.521  1.00  0.00     0.269 C 
HETATM   13  H   UNL     1       6.651  30.211  60.472  1.00  0.00     0.279 HD
HETATM   14  C   UNL     1       8.289  30.199  59.273  1.00  0.00     0.269 C 
ENDBRANCH  10  11
ENDBRANCH   6  10
BRANCH   7  15
HETATM   15  C   UNL     1       4.320  32.925  61.596  1.00  0.00     0.225 A 
HETATM   16  N   UNL     1       4.193  34.243  61.766  1.00  0.00    -0.081 NA
HETATM   17  O   UNL     1       4.376  34.423  63.139  1.00  0.00    -0.103 OA
HETATM   18  N   UNL     1       4.633  33.216  63.771  1.00  0.00    -0.083 NA
HETATM   19  C   UNL     1       4.602  32.288  62.817  1.00  0.00     0.201 A 
BRANCH  19  20
HETATM   20  N   UNL     1       4.806  30.978  63.024  1.00  0.00    -0.379 N 
HETATM   21  H   UNL     1       4.348  30.507  63.799  1.00  0.00     0.158 HD
HETATM   22  H   UNL     1       5.557  30.447  62.587  1.00  0.00     0.158 HD
ENDBRANCH  19  20
ENDBRANCH   7  15
ENDBRANCH   1   5
BRANCH   2  23
HETATM   23  N   UNL     1       5.574  28.412  56.408  1.00  0.00    -0.184 NA
HETATM   24  C   UNL     1       4.737  28.087  55.474  1.00  0.00     0.150 C 
BRANCH  24  25
HETATM   25  C   UNL     1       5.170  27.283  54.311  1.00  0.00    -0.014 A 
HETATM   26  C   UNL     1       5.498  25.937  54.490  1.00  0.00     0.049 A 
HETATM   27  C   UNL     1       5.880  25.159  53.392  1.00  0.00     0.070 A 
HETATM   28  C   UNL     1       5.955  25.742  52.124  1.00  0.00     0.037 A 
HETATM   29  C   UNL     1       5.633  27.089  51.950  1.00  0.00     0.004 A 
HETATM   30  C   UNL     1       5.238  27.861  53.040  1.00  0.00     0.013 A 
BRANCH  27  31
HETATM   31  O   UNL     1       6.179  23.854  53.680  1.00  0.00    -0.346 OA
BRANCH  31  32
HETATM   32  C   UNL     1       7.553  23.482  53.537  1.00  0.00     0.219 C 
BRANCH  32  33
HETATM   33  C   UNL     1       7.913  22.458  54.581  1.00  0.00     0.026 A 
HETATM   34  C   UNL     1       8.174  21.114  54.275  1.00  0.00     0.045 A 
HETATM   35 CL   UNL     1       8.099  20.516  52.655  1.00  0.00    -0.084 Cl
HETATM   36  C   UNL     1       8.529  20.207  55.282  1.00  0.00     0.024 A 
HETATM   37  C   UNL     1       8.637  20.630  56.608  1.00  0.00     0.005 A 
HETATM   38  C   UNL     1       8.389  21.962  56.925  1.00  0.00     0.043 A 
HETATM   39  C   UNL     1       8.032  22.855  55.917  1.00  0.00     0.126 A 
HETATM   40  F   UNL     1       7.814  24.135  56.255  1.00  0.00    -0.205 F 
ENDBRANCH  32  33
ENDBRANCH  31  32
ENDBRANCH  27  31
ENDBRANCH  24  25
ENDBRANCH   2  23
TORSDOF 10
ENDMDL
MODEL 5
REMARK VINA RESULT:      -9.7      1.703      2.102
REMARK  10 active torsions:
REMARK  status: ('A' for Active; 'I' for Inactive)
REMARK    1  A    between atoms: N_2  and  C_4 
REMARK    2  A    between atoms: C_4  and  C_5 
REMARK    3  A    between atoms: N_6  and  C_7 
REMARK    4  A    between atoms: C_11  and  N_12 
REMARK    5  A    between atoms: C_15  and  C_16 
REMARK       I    between atoms: C_16  and  N_17 
REMARK    6  A    between atoms: N_17  and  N_18 
REMARK    7  A    between atoms: C_19  and  C_20 
REMARK    8  A    between atoms: C_22  and  O_23 
REMARK    9  A    between atoms: O_23  and  C_24 
REMARK   10  A    between atoms: C_24  and  C_25 
ROOT
HETATM    1  C   UNL     1       5.597  32.412  59.098  1.00  0.00     0.293 C 
HETATM    2  N   UNL     1       6.146  31.153  59.238  1.00  0.00    -0.242 N 
HETATM    3  O   UNL     1       5.706  33.141  58.110  1.00  0.00    -0.264 OA
HETATM    4  H   UNL     1       6.020  30.621  60.096  1.00  0.00     0.192 HD
ENDROOT
BRANCH   1   5
HETATM    5  C   UNL     1       4.847  32.885  60.253  1.00  0.00     0.170 A 
HETATM    6  C   UNL     1       5.384  33.237  61.486  1.00  0.00     0.096 A 
HETATM    7  N   UNL     1       4.271  33.519  62.278  1.00  0.00    -0.215 N 
HETATM    8  N   UNL     1       3.159  33.451  61.493  1.00  0.00     0.012 NA
HETATM    9  N   UNL     1       3.497  33.044  60.280  1.00  0.00    -0.152 NA
BRANCH   6  10
HETATM   10  C   UNL     1       6.809  33.378  61.878  1.00  0.00     0.295 C 
BRANCH  10  11
HETATM   11  N   UNL     1       7.269  32.373  62.904  1.00  0.00    -0.073 N 
HETATM   12  C   UNL     1       7.971  32.980  64.079  1.00  0.00     0.269 C 
HETATM   13  H   UNL     1       6.404  31.903  63.245  1.00  0.00     0.279 HD
HETATM   14  C   UNL     1       8.077  31.269  62.286  1.00  0.00     0.269 C 
ENDBRANCH  10  11
ENDBRANCH   6  10
BRANCH   7  15
HETATM   15  C   UNL     1       4.194  33.783  63.666  1.00  0.00     0.225 A 
HETATM   16  N   UNL     1       4.596  32.866  64.549  1.00  0.00    -0.081 NA
HETATM   17  O   UNL     1       4.348  33.461  65.788  1.00  0.00    -0.103 OA
HETATM   18  N   UNL     1       3.780  34.717  65.634  1.00  0.00    -0.083 NA
HETATM   19  C   UNL     1       3.681  34.916  64.322  1.00  0.00     0.201 A 
BRANCH  19  20
HETATM   20  N   UNL     1       3.175  36.025  63.757  1.00  0.00    -0.379 N 
HETATM   21  H   UNL     1       2.174  36.196  63.781  1.00  0.00     0.158 HD
HETATM   22  H   UNL     1       3.695  36.619  63.116  1.00  0.00     0.158 HD
ENDBRANCH  19  20
ENDBRANCH   7  15
ENDBRANCH   1   5
BRANCH   2  23
HETATM   23  N   UNL     1       6.815  30.608  58.186  1.00  0.00    -0.184 NA
HETATM   24  C   UNL     1       6.162  29.758  57.459  1.00  0.00     0.150 C 
BRANCH  24  25
HETATM   25  C   UNL     1       6.788  29.130  56.275  1.00  0.00    -0.014 A 
HETATM   26  C   UNL     1       6.002  28.373  55.403  1.00  0.00     0.049 A 
HETATM   27  C   UNL     1       6.577  27.800  54.264  1.00  0.00     0.070 A 
HETATM   28  C   UNL     1       7.943  27.967  54.020  1.00  0.00     0.037 A 
HETATM   29  C   UNL     1       8.727  28.719  54.898  1.00  0.00     0.004 A 
HETATM   30  C   UNL     1       8.152  29.303  56.023  1.00  0.00     0.013 A 
BRANCH  27  31
HETATM   31  O   UNL     1       5.718  27.078  53.478  1.00  0.00    -0.346 OA
BRANCH  31  32
HETATM   32  C   UNL     1       5.180  25.891  54.068  1.00  0.00     0.219 C 
BRANCH  32  33
HETATM   33  C   UNL     1       6.239  24.821  54.109  1.00  0.00     0.026 A 
HETATM   34  C   UNL     1       6.781  24.328  55.304  1.00  0.00     0.045 A 
HETATM   35 CL   UNL     1       6.275  24.919  56.848  1.00  0.00    -0.084 Cl
HETATM   36  C   UNL     1       7.746  23.313  55.287  1.00  0.00     0.024 A 
HETATM   37  C   UNL     1       8.178  22.769  54.077  1.00  0.00     0.005 A 
HETATM   38  C   UNL     1       7.644  23.243  52.884  1.00  0.00     0.043 A 
HETATM   39  C   UNL     1       6.688  24.256  52.910  1.00  0.00     0.126 A 
HETATM   40  F   UNL     1       6.182  24.679  51.742  1.00  0.00    -0.205 F 
ENDBRANCH  32  33
ENDBRANCH  31  32
ENDBRANCH  27  31
ENDBRANCH  24  25
ENDBRANCH   2  23
TORSDOF 10
ENDMDL
MODEL 6
REMARK VINA RESULT:      -9.5      5.256     11.911
REMARK  10 active torsions:
REMARK  status: ('A' for Active; 'I' for Inactive)
REMARK    1  A    between atoms: N_2  and  C_4 
REMARK    2  A    between atoms: C_4  and  C_5 
REMARK    3  A    between atoms: N_6  and  C_7 
REMARK    4  A    between atoms: C_11  and  N_12 
REMARK    5  A    between atoms: C_15  and  C_16 
REMARK       I    between atoms: C_16  and  N_17 
REMARK    6  A    between atoms: N_17  and  N_18 
REMARK    7  A    between atoms: C_19  and  C_20 
REMARK    8  A    between atoms: C_22  and  O_23 
REMARK    9  A    between atoms: O_23  and  C_24 
REMARK   10  A    between atoms: C_24  and  C_25 
ROOT
HETATM    1  C   UNL     1       7.176  25.848  57.051  1.00  0.00     0.293 C 
HETATM    2  N   UNL     1       7.940  26.987  57.206  1.00  0.00    -0.242 N 
HETATM    3  O   UNL     1       5.999  25.716  57.390  1.00  0.00    -0.264 OA
HETATM    4  H   UNL     1       8.913  27.008  56.911  1.00  0.00     0.192 HD
ENDROOT
BRANCH   1   5
HETATM    5  C   UNL     1       7.873  24.722  56.444  1.00  0.00     0.170 A 
HETATM    6  C   UNL     1       7.463  24.022  55.315  1.00  0.00     0.096 A 
HETATM    7  N   UNL     1       8.391  22.987  55.195  1.00  0.00    -0.215 N 
HETATM    8  N   UNL     1       9.355  23.167  56.141  1.00  0.00     0.012 NA
HETATM    9  N   UNL     1       9.035  24.193  56.912  1.00  0.00    -0.152 NA
BRANCH   6  10
HETATM   10  C   UNL     1       6.352  24.329  54.378  1.00  0.00     0.295 C 
BRANCH  10  11
HETATM   11  N   UNL     1       6.803  24.852  53.037  1.00  0.00    -0.073 N 
HETATM   12  C   UNL     1       7.735  26.021  53.122  1.00  0.00     0.269 C 
HETATM   13  H   UNL     1       7.307  24.062  52.582  1.00  0.00     0.279 HD
HETATM   14  C   UNL     1       5.643  25.132  52.125  1.00  0.00     0.269 C 
ENDBRANCH  10  11
ENDBRANCH   6  10
BRANCH   7  15
HETATM   15  C   UNL     1       8.393  21.873  54.323  1.00  0.00     0.225 A 
HETATM   16  N   UNL     1       8.004  22.011  53.054  1.00  0.00    -0.081 NA
HETATM   17  O   UNL     1       8.112  20.722  52.528  1.00  0.00    -0.103 OA
HETATM   18  N   UNL     1       8.542  19.823  53.492  1.00  0.00    -0.083 NA
HETATM   19  C   UNL     1       8.713  20.533  54.605  1.00  0.00     0.201 A 
BRANCH  19  20
HETATM   20  N   UNL     1       9.125  20.023  55.776  1.00  0.00    -0.379 N 
HETATM   21  H   UNL     1       9.101  20.593  56.616  1.00  0.00     0.158 HD
HETATM   22  H   UNL     1       9.664  19.163  55.859  1.00  0.00     0.158 HD
ENDBRANCH  19  20
ENDBRANCH   7  15
ENDBRANCH   1   5
BRANCH   2  23
HETATM   23  N   UNL     1       7.354  28.107  57.713  1.00  0.00    -0.184 NA
HETATM   24  C   UNL     1       7.117  29.067  56.877  1.00  0.00     0.150 C 
BRANCH  24  25
HETATM   25  C   UNL     1       6.457  30.314  57.319  1.00  0.00    -0.014 A 
HETATM   26  C   UNL     1       6.869  30.927  58.505  1.00  0.00     0.049 A 
HETATM   27  C   UNL     1       6.273  32.123  58.918  1.00  0.00     0.070 A 
HETATM   28  C   UNL     1       5.248  32.685  58.152  1.00  0.00     0.037 A 
HETATM   29  C   UNL     1       4.833  32.067  56.971  1.00  0.00     0.004 A 
HETATM   30  C   UNL     1       5.437  30.884  56.551  1.00  0.00     0.013 A 
BRANCH  27  31
HETATM   31  O   UNL     1       6.753  32.637  60.093  1.00  0.00    -0.346 OA
BRANCH  31  32
HETATM   32  C   UNL     1       6.964  31.693  61.148  1.00  0.00     0.219 C 
BRANCH  32  33
HETATM   33  C   UNL     1       6.690  32.348  62.477  1.00  0.00     0.026 A 
HETATM   34  C   UNL     1       5.395  32.587  62.958  1.00  0.00     0.045 A 
HETATM   35 CL   UNL     1       3.989  32.148  62.053  1.00  0.00    -0.084 Cl
HETATM   36  C   UNL     1       5.196  33.176  64.213  1.00  0.00     0.024 A 
HETATM   37  C   UNL     1       6.287  33.528  65.009  1.00  0.00     0.005 A 
HETATM   38  C   UNL     1       7.577  33.290  64.548  1.00  0.00     0.043 A 
HETATM   39  C   UNL     1       7.765  32.708  63.296  1.00  0.00     0.126 A 
HETATM   40  F   UNL     1       9.022  32.478  62.888  1.00  0.00    -0.205 F 
ENDBRANCH  32  33
ENDBRANCH  31  32
ENDBRANCH  27  31
ENDBRANCH  24  25
ENDBRANCH   2  23
TORSDOF 10
ENDMDL
MODEL 7
REMARK VINA RESULT:      -9.3      2.496      3.935
REMARK  10 active torsions:
REMARK  status: ('A' for Active; 'I' for Inactive)
REMARK    1  A    between atoms: N_2  and  C_4 
REMARK    2  A    between atoms: C_4  and  C_5 
REMARK    3  A    between atoms: N_6  and  C_7 
REMARK    4  A    between atoms: C_11  and  N_12 
REMARK    5  A    between atoms: C_15  and  C_16 
REMARK       I    between atoms: C_16  and  N_17 
REMARK    6  A    between atoms: N_17  and  N_18 
REMARK    7  A    between atoms: C_19  and  C_20 
REMARK    8  A    between atoms: C_22  and  O_23 
REMARK    9  A    between atoms: O_23  and  C_24 
REMARK   10  A    between atoms: C_24  and  C_25 
ROOT
HETATM    1  C   UNL     1       6.564  32.336  60.973  1.00  0.00     0.293 C 
HETATM    2  N   UNL     1       7.309  31.223  60.640  1.00  0.00    -0.242 N 
HETATM    3  O   UNL     1       5.984  33.080  60.180  1.00  0.00    -0.264 OA
HETATM    4  H   UNL     1       7.769  30.668  61.359  1.00  0.00     0.192 HD
ENDROOT
BRANCH   1   5
HETATM    5  C   UNL     1       6.501  32.627  62.399  1.00  0.00     0.170 A 
HETATM    6  C   UNL     1       5.361  32.986  63.109  1.00  0.00     0.096 A 
HETATM    7  N   UNL     1       5.827  33.256  64.395  1.00  0.00    -0.215 N 
HETATM    8  N   UNL     1       7.152  32.944  64.444  1.00  0.00     0.012 NA
HETATM    9  N   UNL     1       7.569  32.591  63.239  1.00  0.00    -0.152 NA
BRANCH   6  10
HETATM   10  C   UNL     1       3.946  33.001  62.657  1.00  0.00     0.295 C 
BRANCH  10  11
HETATM   11  N   UNL     1       3.577  34.202  61.823  1.00  0.00    -0.073 N 
HETATM   12  C   UNL     1       4.335  35.444  62.175  1.00  0.00     0.269 C 
HETATM   13  H   UNL     1       3.809  33.943  60.841  1.00  0.00     0.279 HD
HETATM   14  C   UNL     1       2.095  34.442  61.808  1.00  0.00     0.269 C 
ENDBRANCH  10  11
ENDBRANCH   6  10
BRANCH   7  15
HETATM   15  C   UNL     1       5.145  33.810  65.505  1.00  0.00     0.225 A 
HETATM   16  N   UNL     1       3.828  34.023  65.447  1.00  0.00    -0.081 NA
HETATM   17  O   UNL     1       3.526  34.590  66.687  1.00  0.00    -0.103 OA
HETATM   18  N   UNL     1       4.666  34.731  67.464  1.00  0.00    -0.083 NA
HETATM   19  C   UNL     1       5.669  34.251  66.732  1.00  0.00     0.201 A 
BRANCH  19  20
HETATM   20  N   UNL     1       6.950  34.209  67.133  1.00  0.00    -0.379 N 
HETATM   21  H   UNL     1       7.172  34.163  68.124  1.00  0.00     0.158 HD
HETATM   22  H   UNL     1       7.738  34.430  66.529  1.00  0.00     0.158 HD
ENDBRANCH  19  20
ENDBRANCH   7  15
ENDBRANCH   1   5
BRANCH   2  23
HETATM   23  N   UNL     1       7.374  30.843  59.335  1.00  0.00    -0.184 NA
HETATM   24  C   UNL     1       8.327  30.027  59.013  1.00  0.00     0.150 C 
BRANCH  24  25
HETATM   25  C   UNL     1       8.469  29.531  57.628  1.00  0.00    -0.014 A 
HETATM   26  C   UNL     1       7.438  28.779  57.058  1.00  0.00     0.049 A 
HETATM   27  C   UNL     1       7.548  28.331  55.738  1.00  0.00     0.070 A 
HETATM   28  C   UNL     1       8.703  28.617  55.004  1.00  0.00     0.037 A 
HETATM   29  C   UNL     1       9.734  29.362  55.578  1.00  0.00     0.004 A 
HETATM   30  C   UNL     1       9.619  29.823  56.888  1.00  0.00     0.013 A 
BRANCH  27  31
HETATM   31  O   UNL     1       6.482  27.603  55.280  1.00  0.00    -0.346 OA
BRANCH  31  32
HETATM   32  C   UNL     1       6.120  26.464  56.064  1.00  0.00     0.219 C 
BRANCH  32  33
HETATM   33  C   UNL     1       6.862  25.250  55.569  1.00  0.00     0.026 A 
HETATM   34  C   UNL     1       6.473  24.527  54.432  1.00  0.00     0.045 A 
HETATM   35 CL   UNL     1       5.089  24.974  53.496  1.00  0.00    -0.084 Cl
HETATM   36  C   UNL     1       7.214  23.420  54.000  1.00  0.00     0.024 A 
HETATM   37  C   UNL     1       8.359  23.022  54.692  1.00  0.00     0.005 A 
HETATM   38  C   UNL     1       8.761  23.734  55.817  1.00  0.00     0.043 A 
HETATM   39  C   UNL     1       8.015  24.832  56.242  1.00  0.00     0.126 A 
HETATM   40  F   UNL     1       8.440  25.505  57.322  1.00  0.00    -0.205 F 
ENDBRANCH  32  33
ENDBRANCH  31  32
ENDBRANCH  27  31
ENDBRANCH  24  25
ENDBRANCH   2  23
TORSDOF 10
ENDMDL
MODEL 8
REMARK VINA RESULT:      -9.1      5.039     11.209
REMARK  10 active torsions:
REMARK  status: ('A' for Active; 'I' for Inactive)
REMARK    1  A    between atoms: N_2  and  C_4 
REMARK    2  A    between atoms: C_4  and  C_5 
REMARK    3  A    between atoms: N_6  and  C_7 
REMARK    4  A    between atoms: C_11  and  N_12 
REMARK    5  A    between atoms: C_15  and  C_16 
REMARK       I    between atoms: C_16  and  N_17 
REMARK    6  A    between atoms: N_17  and  N_18 
REMARK    7  A    between atoms: C_19  and  C_20 
REMARK    8  A    between atoms: C_22  and  O_23 
REMARK    9  A    between atoms: O_23  and  C_24 
REMARK   10  A    between atoms: C_24  and  C_25 
ROOT
HETATM    1  C   UNL     1       7.532  26.058  56.783  1.00  0.00     0.293 C 
HETATM    2  N   UNL     1       6.177  26.316  56.823  1.00  0.00    -0.242 N 
HETATM    3  O   UNL     1       8.430  26.877  56.986  1.00  0.00    -0.264 OA
HETATM    4  H   UNL     1       5.500  25.582  56.628  1.00  0.00     0.192 HD
ENDROOT
BRANCH   1   5
HETATM    5  C   UNL     1       7.885  24.684  56.450  1.00  0.00     0.170 A 
HETATM    6  C   UNL     1       8.009  24.162  55.168  1.00  0.00     0.096 A 
HETATM    7  N   UNL     1       8.253  22.804  55.371  1.00  0.00    -0.215 N 
HETATM    8  N   UNL     1       8.386  22.590  56.710  1.00  0.00     0.012 NA
HETATM    9  N   UNL     1       8.139  23.712  57.366  1.00  0.00    -0.152 NA
BRANCH   6  10
HETATM   10  C   UNL     1       7.982  24.872  53.864  1.00  0.00     0.295 C 
BRANCH  10  11
HETATM   11  N   UNL     1       6.745  24.609  53.042  1.00  0.00    -0.073 N 
HETATM   12  C   UNL     1       6.700  25.364  51.750  1.00  0.00     0.269 C 
HETATM   13  H   UNL     1       6.762  23.590  52.827  1.00  0.00     0.279 HD
HETATM   14  C   UNL     1       5.489  24.802  53.841  1.00  0.00     0.269 C 
ENDBRANCH  10  11
ENDBRANCH   6  10
BRANCH   7  15
HETATM   15  C   UNL     1       8.314  21.747  54.432  1.00  0.00     0.225 A 
HETATM   16  N   UNL     1       7.796  21.901  53.212  1.00  0.00    -0.081 NA
HETATM   17  O   UNL     1       8.015  20.666  52.596  1.00  0.00    -0.103 OA
HETATM   18  N   UNL     1       8.642  19.781  53.460  1.00  0.00    -0.083 NA
HETATM   19  C   UNL     1       8.824  20.448  54.598  1.00  0.00     0.201 A 
BRANCH  19  20
HETATM   20  N   UNL     1       9.404  19.934  55.695  1.00  0.00    -0.379 N 
HETATM   21  H   UNL     1       8.853  19.394  56.356  1.00  0.00     0.158 HD
HETATM   22  H   UNL     1      10.321  20.217  56.034  1.00  0.00     0.158 HD
ENDBRANCH  19  20
ENDBRANCH   7  15
ENDBRANCH   1   5
BRANCH   2  23
HETATM   23  N   UNL     1       5.756  27.559  57.183  1.00  0.00    -0.184 NA
HETATM   24  C   UNL     1       5.023  28.196  56.325  1.00  0.00     0.150 C 
BRANCH  24  25
HETATM   25  C   UNL     1       4.490  29.541  56.630  1.00  0.00    -0.014 A 
HETATM   26  C   UNL     1       4.820  30.152  57.843  1.00  0.00     0.049 A 
HETATM   27  C   UNL     1       4.348  31.437  58.129  1.00  0.00     0.070 A 
HETATM   28  C   UNL     1       3.524  32.091  57.209  1.00  0.00     0.037 A 
HETATM   29  C   UNL     1       3.190  31.476  56.001  1.00  0.00     0.004 A 
HETATM   30  C   UNL     1       3.674  30.203  55.708  1.00  0.00     0.013 A 
BRANCH  27  31
HETATM   31  O   UNL     1       4.731  31.941  59.344  1.00  0.00    -0.346 OA
BRANCH  31  32
HETATM   32  C   UNL     1       5.921  32.735  59.343  1.00  0.00     0.219 C 
BRANCH  32  33
HETATM   33  C   UNL     1       6.951  32.106  60.245  1.00  0.00     0.026 A 
HETATM   34  C   UNL     1       6.977  32.307  61.632  1.00  0.00     0.045 A 
HETATM   35 CL   UNL     1       5.816  33.310  62.431  1.00  0.00    -0.084 Cl
HETATM   36  C   UNL     1       7.943  31.678  62.428  1.00  0.00     0.024 A 
HETATM   37  C   UNL     1       8.891  30.832  61.852  1.00  0.00     0.005 A 
HETATM   38  C   UNL     1       8.873  30.617  60.478  1.00  0.00     0.043 A 
HETATM   39  C   UNL     1       7.911  31.251  59.694  1.00  0.00     0.126 A 
HETATM   40  F   UNL     1       7.913  31.009  58.374  1.00  0.00    -0.205 F 
ENDBRANCH  32  33
ENDBRANCH  31  32
ENDBRANCH  27  31
ENDBRANCH  24  25
ENDBRANCH   2  23
TORSDOF 10
ENDMDL
MODEL 9
REMARK VINA RESULT:      -9.0      3.034      4.776
REMARK  10 active torsions:
REMARK  status: ('A' for Active; 'I' for Inactive)
REMARK    1  A    between atoms: N_2  and  C_4 
REMARK    2  A    between atoms: C_4  and  C_5 
REMARK    3  A    between atoms: N_6  and  C_7 
REMARK    4  A    between atoms: C_11  and  N_12 
REMARK    5  A    between atoms: C_15  and  C_16 
REMARK       I    between atoms: C_16  and  N_17 
REMARK    6  A    between atoms: N_17  and  N_18 
REMARK    7  A    between atoms: C_19  and  C_20 
REMARK    8  A    between atoms: C_22  and  O_23 
REMARK    9  A    between atoms: O_23  and  C_24 
REMARK   10  A    between atoms: C_24  and  C_25 
ROOT
HETATM    1  C   UNL     1       4.932  30.448  57.298  1.00  0.00     0.293 C 
HETATM    2  N   UNL     1       4.902  29.088  57.536  1.00  0.00    -0.242 N 
HETATM    3  O   UNL     1       5.325  30.992  56.265  1.00  0.00    -0.264 OA
HETATM    4  H   UNL     1       4.574  28.721  58.426  1.00  0.00     0.192 HD
ENDROOT
BRANCH   1   5
HETATM    5  C   UNL     1       4.464  31.273  58.404  1.00  0.00     0.170 A 
HETATM    6  C   UNL     1       5.265  31.881  59.363  1.00  0.00     0.096 A 
HETATM    7  N   UNL     1       4.359  32.462  60.251  1.00  0.00    -0.215 N 
HETATM    8  N   UNL     1       3.103  32.296  59.748  1.00  0.00     0.012 NA
HETATM    9  N   UNL     1       3.158  31.558  58.652  1.00  0.00    -0.152 NA
BRANCH   6  10
HETATM   10  C   UNL     1       6.746  31.986  59.413  1.00  0.00     0.295 C 
BRANCH  10  11
HETATM   11  N   UNL     1       7.426  30.813  60.074  1.00  0.00    -0.073 N 
HETATM   12  C   UNL     1       8.181  31.168  61.316  1.00  0.00     0.269 C 
HETATM   13  H   UNL     1       6.661  30.154  60.331  1.00  0.00     0.279 HD
HETATM   14  C   UNL     1       8.277  30.041  59.108  1.00  0.00     0.269 C 
ENDBRANCH  10  11
ENDBRANCH   6  10
BRANCH   7  15
HETATM   15  C   UNL     1       4.592  33.084  61.500  1.00  0.00     0.225 A 
HETATM   16  N   UNL     1       4.667  34.414  61.586  1.00  0.00    -0.081 NA
HETATM   17  O   UNL     1       4.927  34.648  62.938  1.00  0.00    -0.103 OA
HETATM   18  N   UNL     1       5.028  33.457  63.642  1.00  0.00    -0.083 NA
HETATM   19  C   UNL     1       4.824  32.488  62.752  1.00  0.00     0.201 A 
BRANCH  19  20
HETATM   20  N   UNL     1       4.842  31.177  63.040  1.00  0.00    -0.379 N 
HETATM   21  H   UNL     1       4.991  30.496  62.302  1.00  0.00     0.158 HD
HETATM   22  H   UNL     1       4.507  30.787  63.919  1.00  0.00     0.158 HD
ENDBRANCH  19  20
ENDBRANCH   7  15
ENDBRANCH   1   5
BRANCH   2  23
HETATM   23  N   UNL     1       5.266  28.239  56.536  1.00  0.00    -0.184 NA
HETATM   24  C   UNL     1       5.412  26.993  56.855  1.00  0.00     0.150 C 
BRANCH  24  25
HETATM   25  C   UNL     1       5.778  25.984  55.838  1.00  0.00    -0.014 A 
HETATM   26  C   UNL     1       5.228  26.069  54.557  1.00  0.00     0.049 A 
HETATM   27  C   UNL     1       5.590  25.140  53.577  1.00  0.00     0.070 A 
HETATM   28  C   UNL     1       6.483  24.113  53.896  1.00  0.00     0.037 A 
HETATM   29  C   UNL     1       7.027  24.026  55.179  1.00  0.00     0.004 A 
HETATM   30  C   UNL     1       6.679  24.961  56.150  1.00  0.00     0.013 A 
BRANCH  27  31
HETATM   31  O   UNL     1       4.992  25.315  52.358  1.00  0.00    -0.346 OA
BRANCH  31  32
HETATM   32  C   UNL     1       5.827  25.840  51.322  1.00  0.00     0.219 C 
BRANCH  32  33
HETATM   33  C   UNL     1       5.282  27.164  50.853  1.00  0.00     0.026 A 
HETATM   34  C   UNL     1       4.408  27.289  49.765  1.00  0.00     0.045 A 
HETATM   35 CL   UNL     1       3.878  25.915  48.858  1.00  0.00    -0.084 Cl
HETATM   36  C   UNL     1       3.911  28.542  49.386  1.00  0.00     0.024 A 
HETATM   37  C   UNL     1       4.274  29.689  50.093  1.00  0.00     0.005 A 
HETATM   38  C   UNL     1       5.135  29.580  51.179  1.00  0.00     0.043 A 
HETATM   39  C   UNL     1       5.628  28.330  51.546  1.00  0.00     0.126 A 
HETATM   40  F   UNL     1       6.444  28.258  52.608  1.00  0.00    -0.205 F 
ENDBRANCH  32  33
ENDBRANCH  31  32
ENDBRANCH  27  31
ENDBRANCH  24  25
ENDBRANCH   2  23
TORSDOF 10
ENDMDL
MODEL 10
REMARK VINA RESULT:      -9.0      1.690      2.723
REMARK  10 active torsions:
REMARK  status: ('A' for Active; 'I' for Inactive)
REMARK    1  A    between atoms: N_2  and  C_4 
REMARK    2  A    between atoms: C_4  and  C_5 
REMARK    3  A    between atoms: N_6  and  C_7 
REMARK    4  A    between atoms: C_11  and  N_12 
REMARK    5  A    between atoms: C_15  and  C_16 
REMARK       I    between atoms: C_16  and  N_17 
REMARK    6  A    between atoms: N_17  and  N_18 
REMARK    7  A    between atoms: C_19  and  C_20 
REMARK    8  A    between atoms: C_22  and  O_23 
REMARK    9  A    between atoms: O_23  and  C_24 
REMARK   10  A    between atoms: C_24  and  C_25 
ROOT
HETATM    1  C   UNL     1       5.898  31.966  58.594  1.00  0.00     0.293 C 
HETATM    2  N   UNL     1       6.101  30.600  58.601  1.00  0.00    -0.242 N 
HETATM    3  O   UNL     1       5.775  32.672  57.591  1.00  0.00    -0.264 OA
HETATM    4  H   UNL     1       6.206  30.093  59.477  1.00  0.00     0.192 HD
ENDROOT
BRANCH   1   5
HETATM    5  C   UNL     1       5.850  32.585  59.911  1.00  0.00     0.170 A 
HETATM    6  C   UNL     1       4.743  33.200  60.484  1.00  0.00     0.096 A 
HETATM    7  N   UNL     1       5.221  33.720  61.686  1.00  0.00    -0.215 N 
HETATM    8  N   UNL     1       6.511  33.310  61.846  1.00  0.00     0.012 NA
HETATM    9  N   UNL     1       6.904  32.651  60.769  1.00  0.00    -0.152 NA
BRANCH   6  10
HETATM   10  C   UNL     1       3.340  33.235  59.999  1.00  0.00     0.295 C 
BRANCH  10  11
HETATM   11  N   UNL     1       2.878  34.598  59.545  1.00  0.00    -0.073 N 
HETATM   12  C   UNL     1       1.544  35.001  60.093  1.00  0.00     0.269 C 
HETATM   13  H   UNL     1       3.593  35.268  59.897  1.00  0.00     0.279 HD
HETATM   14  C   UNL     1       2.930  34.741  58.052  1.00  0.00     0.269 C 
ENDBRANCH  10  11
ENDBRANCH   6  10
BRANCH   7  15
HETATM   15  C   UNL     1       4.584  34.575  62.617  1.00  0.00     0.225 A 
HETATM   16  N   UNL     1       4.224  35.810  62.259  1.00  0.00    -0.081 NA
HETATM   17  O   UNL     1       3.666  36.347  63.421  1.00  0.00    -0.103 OA
HETATM   18  N   UNL     1       3.719  35.438  64.467  1.00  0.00    -0.083 NA
HETATM   19  C   UNL     1       4.290  34.342  63.971  1.00  0.00     0.201 A 
BRANCH  19  20
HETATM   20  N   UNL     1       4.524  33.223  64.675  1.00  0.00    -0.379 N 
HETATM   21  H   UNL     1       4.179  32.328  64.339  1.00  0.00     0.158 HD
HETATM   22  H   UNL     1       4.848  33.220  65.640  1.00  0.00     0.158 HD
ENDBRANCH  19  20
ENDBRANCH   7  15
ENDBRANCH   1   5
BRANCH   2  23
HETATM   23  N   UNL     1       6.101  29.930  57.416  1.00  0.00    -0.184 NA
HETATM   24  C   UNL     1       5.320  28.901  57.330  1.00  0.00     0.150 C 
BRANCH  24  25
HETATM   25  C   UNL     1       5.225  28.121  56.077  1.00  0.00    -0.014 A 
HETATM   26  C   UNL     1       5.682  26.801  56.052  1.00  0.00     0.049 A 
HETATM   27  C   UNL     1       5.570  26.044  54.882  1.00  0.00     0.070 A 
HETATM   28  C   UNL     1       5.022  26.625  53.734  1.00  0.00     0.037 A 
HETATM   29  C   UNL     1       4.572  27.946  53.760  1.00  0.00     0.004 A 
HETATM   30  C   UNL     1       4.669  28.695  54.930  1.00  0.00     0.013 A 
BRANCH  27  31
HETATM   31  O   UNL     1       6.049  24.764  54.968  1.00  0.00    -0.346 OA
BRANCH  31  32
HETATM   32  C   UNL     1       7.467  24.619  54.849  1.00  0.00     0.219 C 
BRANCH  32  33
HETATM   33  C   UNL     1       7.808  23.175  54.587  1.00  0.00     0.026 A 
HETATM   34  C   UNL     1       8.204  22.288  55.598  1.00  0.00     0.045 A 
HETATM   35 CL   UNL     1       8.337  22.785  57.249  1.00  0.00    -0.084 Cl
HETATM   36  C   UNL     1       8.487  20.948  55.303  1.00  0.00     0.024 A 
HETATM   37  C   UNL     1       8.371  20.472  53.996  1.00  0.00     0.005 A 
HETATM   38  C   UNL     1       7.972  21.339  52.985  1.00  0.00     0.043 A 
HETATM   39  C   UNL     1       7.698  22.672  53.287  1.00  0.00     0.126 A 
HETATM   40  F   UNL     1       7.301  23.477  52.290  1.00  0.00    -0.205 F 
ENDBRANCH  32  33
ENDBRANCH  31  32
ENDBRANCH  27  31
ENDBRANCH  24  25
ENDBRANCH   2  23
TORSDOF 10
ENDMDL
