MODEL 1
REMARK VINA RESULT:      -8.4      0.000      0.000
REMARK  4 active torsions:
REMARK  status: ('A' for Active; 'I' for Inactive)
REMARK    1  A    between atoms: C_5  and  C_6 
REMARK       I    between atoms: C_6  and  N_7 
REMARK    2  A    between atoms: N_7  and  C_8 
REMARK    3  A    between atoms: C_8  and  N_9 
REMARK    4  A    between atoms: N_9  and  C_10 
ROOT
HETATM    1  C   UNL     1       7.892  25.225  56.573  1.00  0.00     0.257 C 
HETATM    2  N   UNL     1       7.001  26.210  56.159  1.00  0.00    -0.299 N 
HETATM    3  O   UNL     1       8.591  25.245  57.579  1.00  0.00    -0.267 OA
HETATM    4  H   UNL     1       6.594  26.083  55.236  1.00  0.00     0.171 HD
ENDROOT
BRANCH   2   5
HETATM    5  C   UNL     1       6.605  27.400  56.737  1.00  0.00     0.180 C 
HETATM    6  S   UNL     1       5.259  28.313  56.354  1.00  0.00    -0.040 SA
BRANCH   5   7
HETATM    7  N   UNL     1       7.409  27.876  57.747  1.00  0.00    -0.318 N 
HETATM    8  H   UNL     1       7.199  27.483  58.655  1.00  0.00     0.170 HD
BRANCH   7   9
HETATM    9  C   UNL     1       8.460  28.802  57.672  1.00  0.00     0.129 A 
HETATM   10  N   UNL     1       9.410  28.655  56.721  1.00  0.00    -0.243 NA
HETATM   11  C   UNL     1      10.405  29.571  56.691  1.00  0.00     0.119 A 
HETATM   12  C   UNL     1      10.502  30.633  57.572  1.00  0.00     0.026 A 
HETATM   13  C   UNL     1       9.516  30.780  58.546  1.00  0.00    -0.057 A 
HETATM   14  C   UNL     1       9.584  31.888  59.553  1.00  0.00     0.048 C 
HETATM   15  C   UNL     1       8.479  29.842  58.594  1.00  0.00     0.057 A 
ENDBRANCH   7   9
ENDBRANCH   5   7
ENDBRANCH   2   5
BRANCH   1  16
HETATM   16  C   UNL     1       8.025  24.085  55.623  1.00  0.00     0.032 A 
HETATM   17  C   UNL     1       7.421  24.191  54.368  1.00  0.00     0.017 A 
HETATM   18  C   UNL     1       7.474  23.120  53.472  1.00  0.00     0.007 A 
HETATM   19  C   UNL     1       8.144  21.940  53.818  1.00  0.00    -0.062 A 
HETATM   20  C   UNL     1       8.189  20.775  52.873  1.00  0.00     0.048 C 
HETATM   21  C   UNL     1       8.777  21.852  55.064  1.00  0.00     0.007 A 
HETATM   22  C   UNL     1       8.724  22.920  55.963  1.00  0.00     0.017 A 
ENDBRANCH   1  16
TORSDOF 4
ENDMDL
MODEL 2
REMARK VINA RESULT:      -8.4      2.239      2.970
REMARK  4 active torsions:
REMARK  status: ('A' for Active; 'I' for Inactive)
REMARK    1  A    between atoms: C_5  and  C_6 
REMARK       I    between atoms: C_6  and  N_7 
REMARK    2  A    between atoms: N_7  and  C_8 
REMARK    3  A    between atoms: C_8  and  N_9 
REMARK    4  A    between atoms: N_9  and  C_10 
ROOT
HETATM    1  C   UNL     1       7.474  25.173  52.926  1.00  0.00     0.257 C 
HETATM    2  N   UNL     1       7.171  26.259  53.742  1.00  0.00    -0.299 N 
HETATM    3  O   UNL     1       7.584  25.182  51.706  1.00  0.00    -0.267 OA
HETATM    4  H   UNL     1       7.000  26.046  54.721  1.00  0.00     0.171 HD
ENDROOT
BRANCH   2   5
HETATM    5  C   UNL     1       6.979  27.597  53.465  1.00  0.00     0.180 C 
HETATM    6  S   UNL     1       5.760  28.275  52.544  1.00  0.00    -0.040 SA
BRANCH   5   7
HETATM    7  N   UNL     1       7.892  28.464  54.018  1.00  0.00    -0.318 N 
HETATM    8  H   UNL     1       8.448  28.962  53.335  1.00  0.00     0.170 HD
BRANCH   7   9
HETATM    9  C   UNL     1       8.133  28.743  55.372  1.00  0.00     0.129 A 
HETATM   10  N   UNL     1       7.182  28.457  56.289  1.00  0.00    -0.243 NA
HETATM   11  C   UNL     1       7.459  28.747  57.581  1.00  0.00     0.119 A 
HETATM   12  C   UNL     1       8.646  29.316  58.006  1.00  0.00     0.026 A 
HETATM   13  C   UNL     1       9.623  29.603  57.054  1.00  0.00    -0.057 A 
HETATM   14  C   UNL     1      10.915  30.254  57.446  1.00  0.00     0.048 C 
HETATM   15  C   UNL     1       9.355  29.312  55.713  1.00  0.00     0.057 A 
ENDBRANCH   7   9
ENDBRANCH   5   7
ENDBRANCH   2   5
BRANCH   1  16
HETATM   16  C   UNL     1       7.594  23.878  53.653  1.00  0.00     0.032 A 
HETATM   17  C   UNL     1       7.434  23.877  55.042  1.00  0.00     0.017 A 
HETATM   18  C   UNL     1       7.597  22.694  55.764  1.00  0.00     0.007 A 
HETATM   19  C   UNL     1       7.907  21.498  55.106  1.00  0.00    -0.062 A 
HETATM   20  C   UNL     1       8.106  20.224  55.874  1.00  0.00     0.048 C 
HETATM   21  C   UNL     1       8.033  21.497  53.711  1.00  0.00     0.007 A 
HETATM   22  C   UNL     1       7.873  22.680  52.984  1.00  0.00     0.017 A 
ENDBRANCH   1  16
TORSDOF 4
ENDMDL
MODEL 3
REMARK VINA RESULT:      -8.1      5.032      7.455
REMARK  4 active torsions:
REMARK  status: ('A' for Active; 'I' for Inactive)
REMARK    1  A    between atoms: C_5  and  C_6 
REMARK       I    between atoms: C_6  and  N_7 
REMARK    2  A    between atoms: N_7  and  C_8 
REMARK    3  A    between atoms: C_8  and  N_9 
REMARK    4  A    between atoms: N_9  and  C_10 
ROOT
HETATM    1  C   UNL     1       7.293  25.004  52.728  1.00  0.00     0.257 C 
HETATM    2  N   UNL     1       6.022  25.560  52.826  1.00  0.00    -0.299 N 
HETATM    3  O   UNL     1       8.217  25.406  52.032  1.00  0.00    -0.267 OA
HETATM    4  H   UNL     1       5.342  25.026  53.360  1.00  0.00     0.171 HD
ENDROOT
BRANCH   2   5
HETATM    5  C   UNL     1       5.462  26.690  52.263  1.00  0.00     0.180 C 
HETATM    6  S   UNL     1       4.321  27.702  52.946  1.00  0.00    -0.040 SA
BRANCH   5   7
HETATM    7  N   UNL     1       5.903  27.015  51.001  1.00  0.00    -0.318 N 
HETATM    8  H   UNL     1       6.897  27.194  50.950  1.00  0.00     0.170 HD
BRANCH   7   9
HETATM    9  C   UNL     1       5.167  27.116  49.811  1.00  0.00     0.129 A 
HETATM   10  N   UNL     1       5.163  28.283  49.128  1.00  0.00    -0.243 NA
HETATM   11  C   UNL     1       4.435  28.333  47.989  1.00  0.00     0.119 A 
HETATM   12  C   UNL     1       3.702  27.269  47.495  1.00  0.00     0.026 A 
HETATM   13  C   UNL     1       3.716  26.069  48.203  1.00  0.00    -0.057 A 
HETATM   14  C   UNL     1       2.912  24.890  47.740  1.00  0.00     0.048 C 
HETATM   15  C   UNL     1       4.461  25.997  49.384  1.00  0.00     0.057 A 
ENDBRANCH   7   9
ENDBRANCH   5   7
ENDBRANCH   2   5
BRANCH   1  16
HETATM   16  C   UNL     1       7.473  23.752  53.516  1.00  0.00     0.032 A 
HETATM   17  C   UNL     1       7.296  23.806  54.901  1.00  0.00     0.017 A 
HETATM   18  C   UNL     1       7.513  22.667  55.680  1.00  0.00     0.007 A 
HETATM   19  C   UNL     1       7.895  21.461  55.080  1.00  0.00    -0.062 A 
HETATM   20  C   UNL     1       8.152  20.237  55.909  1.00  0.00     0.048 C 
HETATM   21  C   UNL     1       8.038  21.404  53.688  1.00  0.00     0.007 A 
HETATM   22  C   UNL     1       7.825  22.542  52.906  1.00  0.00     0.017 A 
ENDBRANCH   1  16
TORSDOF 4
ENDMDL
MODEL 4
REMARK VINA RESULT:      -7.7      3.108      8.623
REMARK  4 active torsions:
REMARK  status: ('A' for Active; 'I' for Inactive)
REMARK    1  A    between atoms: C_5  and  C_6 
REMARK       I    between atoms: C_6  and  N_7 
REMARK    2  A    between atoms: N_7  and  C_8 
REMARK    3  A    between atoms: C_8  and  N_9 
REMARK    4  A    between atoms: N_9  and  C_10 
ROOT
HETATM    1  C   UNL     1       9.261  31.598  59.059  1.00  0.00     0.257 C 
HETATM    2  N   UNL     1       8.836  30.398  58.497  1.00  0.00    -0.299 N 
HETATM    3  O   UNL     1      10.134  32.340  58.628  1.00  0.00    -0.267 OA
HETATM    4  H   UNL     1       8.184  29.851  59.054  1.00  0.00     0.171 HD
ENDROOT
BRANCH   2   5
HETATM    5  C   UNL     1       9.190  29.747  57.332  1.00  0.00     0.180 C 
HETATM    6  S   UNL     1      10.718  29.624  56.667  1.00  0.00    -0.040 SA
BRANCH   5   7
HETATM    7  N   UNL     1       8.167  29.127  56.654  1.00  0.00    -0.318 N 
HETATM    8  H   UNL     1       7.676  29.735  56.012  1.00  0.00     0.170 HD
BRANCH   7   9
HETATM    9  C   UNL     1       7.741  27.792  56.733  1.00  0.00     0.129 A 
HETATM   10  N   UNL     1       8.011  27.073  57.845  1.00  0.00    -0.243 NA
HETATM   11  C   UNL     1       7.584  25.789  57.872  1.00  0.00     0.119 A 
HETATM   12  C   UNL     1       6.899  25.182  56.835  1.00  0.00     0.026 A 
HETATM   13  C   UNL     1       6.621  25.933  55.694  1.00  0.00    -0.057 A 
HETATM   14  C   UNL     1       5.914  25.323  54.521  1.00  0.00     0.048 C 
HETATM   15  C   UNL     1       7.055  27.262  55.646  1.00  0.00     0.057 A 
ENDBRANCH   7   9
ENDBRANCH   5   7
ENDBRANCH   2   5
BRANCH   1  16
HETATM   16  C   UNL     1       8.604  31.930  60.355  1.00  0.00     0.032 A 
HETATM   17  C   UNL     1       7.303  32.440  60.331  1.00  0.00     0.017 A 
HETATM   18  C   UNL     1       6.677  32.817  61.521  1.00  0.00     0.007 A 
HETATM   19  C   UNL     1       7.340  32.676  62.747  1.00  0.00    -0.062 A 
HETATM   20  C   UNL     1       6.685  33.098  64.029  1.00  0.00     0.048 C 
HETATM   21  C   UNL     1       8.630  32.132  62.768  1.00  0.00     0.007 A 
HETATM   22  C   UNL     1       9.261  31.756  61.580  1.00  0.00     0.017 A 
ENDBRANCH   1  16
TORSDOF 4
ENDMDL
MODEL 5
REMARK VINA RESULT:      -7.6      2.923      4.035
REMARK  4 active torsions:
REMARK  status: ('A' for Active; 'I' for Inactive)
REMARK    1  A    between atoms: C_5  and  C_6 
REMARK       I    between atoms: C_6  and  N_7 
REMARK    2  A    between atoms: N_7  and  C_8 
REMARK    3  A    between atoms: C_8  and  N_9 
REMARK    4  A    between atoms: N_9  and  C_10 
ROOT
HETATM    1  C   UNL     1       7.448  24.858  52.712  1.00  0.00     0.257 C 
HETATM    2  N   UNL     1       6.164  25.390  52.776  1.00  0.00    -0.299 N 
HETATM    3  O   UNL     1       8.365  25.242  51.996  1.00  0.00    -0.267 OA
HETATM    4  H   UNL     1       5.495  24.871  53.338  1.00  0.00     0.171 HD
ENDROOT
BRANCH   2   5
HETATM    5  C   UNL     1       5.581  26.474  52.150  1.00  0.00     0.180 C 
HETATM    6  S   UNL     1       5.071  26.571  50.562  1.00  0.00    -0.040 SA
BRANCH   5   7
HETATM    7  N   UNL     1       5.395  27.591  52.930  1.00  0.00    -0.318 N 
HETATM    8  H   UNL     1       4.870  28.325  52.473  1.00  0.00     0.170 HD
BRANCH   7   9
HETATM    9  C   UNL     1       5.823  27.827  54.246  1.00  0.00     0.129 A 
HETATM   10  N   UNL     1       4.998  27.536  55.276  1.00  0.00    -0.243 NA
HETATM   11  C   UNL     1       5.453  27.785  56.525  1.00  0.00     0.119 A 
HETATM   12  C   UNL     1       6.700  28.317  56.800  1.00  0.00     0.026 A 
HETATM   13  C   UNL     1       7.546  28.610  55.732  1.00  0.00    -0.057 A 
HETATM   14  C   UNL     1       8.896  29.223  55.961  1.00  0.00     0.048 C 
HETATM   15  C   UNL     1       7.093  28.361  54.432  1.00  0.00     0.057 A 
ENDBRANCH   7   9
ENDBRANCH   5   7
ENDBRANCH   2   5
BRANCH   1  16
HETATM   16  C   UNL     1       7.654  23.656  53.568  1.00  0.00     0.032 A 
HETATM   17  C   UNL     1       7.832  22.418  52.945  1.00  0.00     0.017 A 
HETATM   18  C   UNL     1       7.970  21.260  53.715  1.00  0.00     0.007 A 
HETATM   19  C   UNL     1       7.944  21.332  55.113  1.00  0.00    -0.062 A 
HETATM   20  C   UNL     1       8.068  20.092  55.950  1.00  0.00     0.048 C 
HETATM   21  C   UNL     1       7.799  22.579  55.732  1.00  0.00     0.007 A 
HETATM   22  C   UNL     1       7.659  23.739  54.966  1.00  0.00     0.017 A 
ENDBRANCH   1  16
TORSDOF 4
ENDMDL
MODEL 6
REMARK VINA RESULT:      -7.5      3.709      5.503
REMARK  4 active torsions:
REMARK  status: ('A' for Active; 'I' for Inactive)
REMARK    1  A    between atoms: C_5  and  C_6 
REMARK       I    between atoms: C_6  and  N_7 
REMARK    2  A    between atoms: N_7  and  C_8 
REMARK    3  A    between atoms: C_8  and  N_9 
REMARK    4  A    between atoms: N_9  and  C_10 
ROOT
HETATM    1  C   UNL     1       7.156  25.590  55.229  1.00  0.00     0.257 C 
HETATM    2  N   UNL     1       7.265  26.666  54.352  1.00  0.00    -0.299 N 
HETATM    3  O   UNL     1       6.928  25.644  56.431  1.00  0.00    -0.267 OA
HETATM    4  H   UNL     1       7.577  26.444  53.411  1.00  0.00     0.171 HD
ENDROOT
BRANCH   2   5
HETATM    5  C   UNL     1       7.099  28.024  54.533  1.00  0.00     0.180 C 
HETATM    6  S   UNL     1       7.684  28.956  55.791  1.00  0.00    -0.040 SA
BRANCH   5   7
HETATM    7  N   UNL     1       6.378  28.678  53.561  1.00  0.00    -0.318 N 
HETATM    8  H   UNL     1       6.206  29.653  53.768  1.00  0.00     0.170 HD
BRANCH   7   9
HETATM    9  C   UNL     1       5.877  28.176  52.351  1.00  0.00     0.129 A 
HETATM   10  N   UNL     1       5.667  26.847  52.218  1.00  0.00    -0.243 NA
HETATM   11  C   UNL     1       5.187  26.410  51.031  1.00  0.00     0.119 A 
HETATM   12  C   UNL     1       4.906  27.240  49.960  1.00  0.00     0.026 A 
HETATM   13  C   UNL     1       5.121  28.609  50.108  1.00  0.00    -0.057 A 
HETATM   14  C   UNL     1       4.872  29.557  48.973  1.00  0.00     0.048 C 
HETATM   15  C   UNL     1       5.619  29.081  51.327  1.00  0.00     0.057 A 
ENDBRANCH   7   9
ENDBRANCH   5   7
ENDBRANCH   2   5
BRANCH   1  16
HETATM   16  C   UNL     1       7.424  24.265  54.603  1.00  0.00     0.032 A 
HETATM   17  C   UNL     1       7.398  23.128  55.415  1.00  0.00     0.017 A 
HETATM   18  C   UNL     1       7.702  21.875  54.876  1.00  0.00     0.007 A 
HETATM   19  C   UNL     1       8.021  21.746  53.519  1.00  0.00    -0.062 A 
HETATM   20  C   UNL     1       8.370  20.409  52.933  1.00  0.00     0.048 C 
HETATM   21  C   UNL     1       8.012  22.884  52.702  1.00  0.00     0.007 A 
HETATM   22  C   UNL     1       7.711  24.139  53.238  1.00  0.00     0.017 A 
ENDBRANCH   1  16
TORSDOF 4
ENDMDL
MODEL 7
REMARK VINA RESULT:      -7.5      9.456     12.778
REMARK  4 active torsions:
REMARK  status: ('A' for Active; 'I' for Inactive)
REMARK    1  A    between atoms: C_5  and  C_6 
REMARK       I    between atoms: C_6  and  N_7 
REMARK    2  A    between atoms: N_7  and  C_8 
REMARK    3  A    between atoms: C_8  and  N_9 
REMARK    4  A    between atoms: N_9  and  C_10 
ROOT
HETATM    1  C   UNL     1       5.050  33.493  64.596  1.00  0.00     0.257 C 
HETATM    2  N   UNL     1       5.494  33.961  65.829  1.00  0.00    -0.299 N 
HETATM    3  O   UNL     1       3.889  33.298  64.261  1.00  0.00    -0.267 OA
HETATM    4  H   UNL     1       6.500  33.949  65.974  1.00  0.00     0.171 HD
ENDROOT
BRANCH   2   5
HETATM    5  C   UNL     1       4.816  34.381  66.956  1.00  0.00     0.180 C 
HETATM    6  S   UNL     1       3.629  35.554  67.045  1.00  0.00    -0.040 SA
BRANCH   5   7
HETATM    7  N   UNL     1       5.156  33.753  68.132  1.00  0.00    -0.318 N 
HETATM    8  H   UNL     1       4.508  33.027  68.409  1.00  0.00     0.170 HD
BRANCH   7   9
HETATM    9  C   UNL     1       6.263  33.982  68.963  1.00  0.00     0.129 A 
HETATM   10  N   UNL     1       7.136  34.966  68.652  1.00  0.00    -0.243 NA
HETATM   11  C   UNL     1       8.190  35.146  69.482  1.00  0.00     0.119 A 
HETATM   12  C   UNL     1       8.418  34.384  70.613  1.00  0.00     0.026 A 
HETATM   13  C   UNL     1       7.510  33.375  70.929  1.00  0.00    -0.057 A 
HETATM   14  C   UNL     1       7.722  32.491  72.122  1.00  0.00     0.048 C 
HETATM   15  C   UNL     1       6.415  33.172  70.083  1.00  0.00     0.057 A 
ENDBRANCH   7   9
ENDBRANCH   5   7
ENDBRANCH   2   5
BRANCH   1  16
HETATM   16  C   UNL     1       6.144  33.142  63.647  1.00  0.00     0.032 A 
HETATM   17  C   UNL     1       5.851  33.091  62.282  1.00  0.00     0.017 A 
HETATM   18  C   UNL     1       6.836  32.709  61.368  1.00  0.00     0.007 A 
HETATM   19  C   UNL     1       8.125  32.388  61.809  1.00  0.00    -0.062 A 
HETATM   20  C   UNL     1       9.185  31.955  60.839  1.00  0.00     0.048 C 
HETATM   21  C   UNL     1       8.424  32.474  63.174  1.00  0.00     0.007 A 
HETATM   22  C   UNL     1       7.441  32.853  64.092  1.00  0.00     0.017 A 
ENDBRANCH   1  16
TORSDOF 4
ENDMDL
MODEL 8
REMARK VINA RESULT:      -7.4      5.473      7.642
REMARK  4 active torsions:
REMARK  status: ('A' for Active; 'I' for Inactive)
REMARK    1  A    between atoms: C_5  and  C_6 
REMARK       I    between atoms: C_6  and  N_7 
REMARK    2  A    between atoms: N_7  and  C_8 
REMARK    3  A    between atoms: C_8  and  N_9 
REMARK    4  A    between atoms: N_9  and  C_10 
ROOT
HETATM    1  C   UNL     1       7.008  25.650  53.226  1.00  0.00     0.257 C 
HETATM    2  N   UNL     1       6.018  25.686  52.250  1.00  0.00    -0.299 N 
HETATM    3  O   UNL     1       7.624  26.606  53.681  1.00  0.00    -0.267 OA
HETATM    4  H   UNL     1       5.699  24.785  51.905  1.00  0.00     0.171 HD
ENDROOT
BRANCH   2   5
HETATM    5  C   UNL     1       5.416  26.735  51.583  1.00  0.00     0.180 C 
HETATM    6  S   UNL     1       4.513  27.973  52.250  1.00  0.00    -0.040 SA
BRANCH   5   7
HETATM    7  N   UNL     1       5.590  26.761  50.219  1.00  0.00    -0.318 N 
HETATM    8  H   UNL     1       6.549  26.625  49.928  1.00  0.00     0.170 HD
BRANCH   7   9
HETATM    9  C   UNL     1       4.629  26.936  49.212  1.00  0.00     0.129 A 
HETATM   10  N   UNL     1       3.829  25.902  48.868  1.00  0.00    -0.243 NA
HETATM   11  C   UNL     1       2.921  26.119  47.889  1.00  0.00     0.119 A 
HETATM   12  C   UNL     1       2.772  27.325  47.230  1.00  0.00     0.026 A 
HETATM   13  C   UNL     1       3.597  28.388  47.594  1.00  0.00    -0.057 A 
HETATM   14  C   UNL     1       3.510  29.709  46.892  1.00  0.00     0.048 C 
HETATM   15  C   UNL     1       4.544  28.183  48.603  1.00  0.00     0.057 A 
ENDBRANCH   7   9
ENDBRANCH   5   7
ENDBRANCH   2   5
BRANCH   1  16
HETATM   16  C   UNL     1       7.369  24.277  53.678  1.00  0.00     0.032 A 
HETATM   17  C   UNL     1       7.801  23.354  52.721  1.00  0.00     0.017 A 
HETATM   18  C   UNL     1       8.092  22.041  53.097  1.00  0.00     0.007 A 
HETATM   19  C   UNL     1       7.969  21.642  54.433  1.00  0.00    -0.062 A 
HETATM   20  C   UNL     1       8.258  20.228  54.845  1.00  0.00     0.048 C 
HETATM   21  C   UNL     1       7.569  22.580  55.394  1.00  0.00     0.007 A 
HETATM   22  C   UNL     1       7.274  23.894  55.021  1.00  0.00     0.017 A 
ENDBRANCH   1  16
TORSDOF 4
ENDMDL
MODEL 9
REMARK VINA RESULT:      -7.4      1.890      7.170
REMARK  4 active torsions:
REMARK  status: ('A' for Active; 'I' for Inactive)
REMARK    1  A    between atoms: C_5  and  C_6 
REMARK       I    between atoms: C_6  and  N_7 
REMARK    2  A    between atoms: N_7  and  C_8 
REMARK    3  A    between atoms: C_8  and  N_9 
REMARK    4  A    between atoms: N_9  and  C_10 
ROOT
HETATM    1  C   UNL     1       7.482  28.435  55.127  1.00  0.00     0.257 C 
HETATM    2  N   UNL     1       6.224  27.897  55.379  1.00  0.00    -0.299 N 
HETATM    3  O   UNL     1       8.156  28.281  54.116  1.00  0.00    -0.267 OA
HETATM    4  H   UNL     1       5.862  28.030  56.319  1.00  0.00     0.171 HD
ENDROOT
BRANCH   2   5
HETATM    5  C   UNL     1       5.375  27.132  54.604  1.00  0.00     0.180 C 
HETATM    6  S   UNL     1       4.435  27.647  53.321  1.00  0.00    -0.040 SA
BRANCH   5   7
HETATM    7  N   UNL     1       5.306  25.796  54.925  1.00  0.00    -0.318 N 
HETATM    8  H   UNL     1       4.363  25.456  55.057  1.00  0.00     0.170 HD
BRANCH   7   9
HETATM    9  C   UNL     1       6.352  24.873  55.077  1.00  0.00     0.129 A 
HETATM   10  N   UNL     1       7.064  24.858  56.226  1.00  0.00    -0.243 NA
HETATM   11  C   UNL     1       8.065  23.954  56.323  1.00  0.00     0.119 A 
HETATM   12  C   UNL     1       8.395  23.058  55.323  1.00  0.00     0.026 A 
HETATM   13  C   UNL     1       7.652  23.077  54.143  1.00  0.00    -0.057 A 
HETATM   14  C   UNL     1       7.984  22.157  53.006  1.00  0.00     0.048 C 
HETATM   15  C   UNL     1       6.614  24.006  54.022  1.00  0.00     0.057 A 
ENDBRANCH   7   9
ENDBRANCH   5   7
ENDBRANCH   2   5
BRANCH   1  16
HETATM   16  C   UNL     1       8.052  29.210  56.265  1.00  0.00     0.032 A 
HETATM   17  C   UNL     1       7.171  29.810  57.169  1.00  0.00     0.017 A 
HETATM   18  C   UNL     1       7.666  30.592  58.215  1.00  0.00     0.007 A 
HETATM   19  C   UNL     1       9.046  30.771  58.374  1.00  0.00    -0.062 A 
HETATM   20  C   UNL     1       9.589  31.627  59.481  1.00  0.00     0.048 C 
HETATM   21  C   UNL     1       9.925  30.140  57.486  1.00  0.00     0.007 A 
HETATM   22  C   UNL     1       9.434  29.358  56.437  1.00  0.00     0.017 A 
ENDBRANCH   1  16
TORSDOF 4
ENDMDL
MODEL 10
REMARK VINA RESULT:      -7.4      4.351      7.404
REMARK  4 active torsions:
REMARK  status: ('A' for Active; 'I' for Inactive)
REMARK    1  A    between atoms: C_5  and  C_6 
REMARK       I    between atoms: C_6  and  N_7 
REMARK    2  A    between atoms: N_7  and  C_8 
REMARK    3  A    between atoms: C_8  and  N_9 
REMARK    4  A    between atoms: N_9  and  C_10 
ROOT
HETATM    1  C   UNL     1       5.200  25.888  52.650  1.00  0.00     0.257 C 
HETATM    2  N   UNL     1       6.242  26.299  53.477  1.00  0.00    -0.299 N 
HETATM    3  O   UNL     1       4.426  24.961  52.852  1.00  0.00    -0.267 OA
HETATM    4  H   UNL     1       6.859  27.010  53.095  1.00  0.00     0.171 HD
ENDROOT
BRANCH   2   5
HETATM    5  C   UNL     1       6.660  25.865  54.719  1.00  0.00     0.180 C 
HETATM    6  S   UNL     1       7.438  26.763  55.895  1.00  0.00    -0.040 SA
BRANCH   5   7
HETATM    7  N   UNL     1       6.396  24.549  55.018  1.00  0.00    -0.318 N 
HETATM    8  H   UNL     1       5.580  24.419  55.602  1.00  0.00     0.170 HD
BRANCH   7   9
HETATM    9  C   UNL     1       7.092  23.399  54.617  1.00  0.00     0.129 A 
HETATM   10  N   UNL     1       7.288  23.166  53.300  1.00  0.00    -0.243 NA
HETATM   11  C   UNL     1       7.961  22.042  52.962  1.00  0.00     0.119 A 
HETATM   12  C   UNL     1       8.449  21.130  53.881  1.00  0.00     0.026 A 
HETATM   13  C   UNL     1       8.247  21.381  55.237  1.00  0.00    -0.057 A 
HETATM   14  C   UNL     1       8.719  20.413  56.280  1.00  0.00     0.048 C 
HETATM   15  C   UNL     1       7.552  22.537  55.607  1.00  0.00     0.057 A 
ENDBRANCH   7   9
ENDBRANCH   5   7
ENDBRANCH   2   5
BRANCH   1  16
HETATM   16  C   UNL     1       5.107  26.642  51.368  1.00  0.00     0.032 A 
HETATM   17  C   UNL     1       4.720  25.951  50.217  1.00  0.00     0.017 A 
HETATM   18  C   UNL     1       4.677  26.610  48.986  1.00  0.00     0.007 A 
HETATM   19  C   UNL     1       5.007  27.968  48.897  1.00  0.00    -0.062 A 
HETATM   20  C   UNL     1       4.986  28.681  47.577  1.00  0.00     0.048 C 
HETATM   21  C   UNL     1       5.361  28.664  50.060  1.00  0.00     0.007 A 
HETATM   22  C   UNL     1       5.407  28.008  51.292  1.00  0.00     0.017 A 
ENDBRANCH   1  16
TORSDOF 4
ENDMDL
