MODEL 1
REMARK VINA RESULT:      -9.6      0.000      0.000
REMARK  10 active torsions:
REMARK  status: ('A' for Active; 'I' for Inactive)
REMARK    1  A    between atoms: C_2  and  O_3 
REMARK    2  A    between atoms: O_3  and  C_4 
REMARK    3  A    between atoms: C_9  and  C_10 
REMARK    4  A    between atoms: C_10  and  O_11 
REMARK    5  A    between atoms: O_11  and  C_12 
REMARK    6  A    between atoms: C_12  and  C_13 
REMARK       I    between atoms: C_13  and  N_14 
REMARK    7  A    between atoms: N_14  and  C_15 
REMARK    8  A    between atoms: C_16  and  C_17 
REMARK       I    between atoms: C_17  and  N_18 
REMARK    9  A    between atoms: N_18  and  C_19 
REMARK   10  A    between atoms: C_19  and  C_20 
ROOT
HETATM    1  C   UNL     1       6.361  29.075  55.855  1.00  0.00     0.050 A 
HETATM    2  C   UNL     1       6.144  28.199  54.770  1.00  0.00     0.058 A 
HETATM    3  C   UNL     1       4.849  27.980  54.272  1.00  0.00     0.019 A 
HETATM    4  C   UNL     1       3.754  28.596  54.872  1.00  0.00     0.001 A 
HETATM    5  C   UNL     1       3.952  29.427  55.970  1.00  0.00     0.002 A 
HETATM    6  C   UNL     1       5.242  29.666  56.456  1.00  0.00     0.030 A 
ENDROOT
BRANCH   1   7
HETATM    7  N   UNL     1       7.686  29.396  56.250  1.00  0.00    -0.324 N 
HETATM    8  C   UNL     1       8.352  28.963  57.384  1.00  0.00     0.246 C 
HETATM    9  O   UNL     1       7.979  28.064  58.135  1.00  0.00    -0.271 OA
HETATM   10  H   UNL     1       8.142  30.120  55.697  1.00  0.00     0.169 HD
BRANCH   8  11
HETATM   11  C   UNL     1       9.662  29.715  57.653  1.00  0.00     0.282 C 
BRANCH  11  12
HETATM   12  O   UNL     1       9.749  30.174  59.001  1.00  0.00    -0.308 OA
BRANCH  12  13
HETATM   13  C   UNL     1       9.608  31.512  59.143  1.00  0.00     0.298 C 
HETATM   14  O   UNL     1      10.197  32.349  58.473  1.00  0.00    -0.259 OA
BRANCH  13  15
HETATM   15  C   UNL     1       8.712  31.878  60.260  1.00  0.00     0.092 A 
HETATM   16  C   UNL     1       7.374  32.239  60.123  1.00  0.00     0.180 A 
HETATM   17  N   UNL     1       6.591  32.588  61.178  1.00  0.00    -0.236 NA
HETATM   18  C   UNL     1       7.158  32.591  62.403  1.00  0.00     0.119 A 
HETATM   19  C   UNL     1       8.480  32.263  62.638  1.00  0.00     0.020 A 
HETATM   20  C   UNL     1       9.266  31.903  61.547  1.00  0.00     0.023 A 
BRANCH  16  21
HETATM   21  O   UNL     1       6.818  32.294  58.864  1.00  0.00    -0.334 OA
BRANCH  21  22
HETATM   22  C   UNL     1       5.391  32.345  58.851  1.00  0.00     0.173 C 
HETATM   23  C   UNL     1       4.969  33.360  57.804  1.00  0.00     0.034 C 
ENDBRANCH  21  22
ENDBRANCH  16  21
ENDBRANCH  13  15
ENDBRANCH  12  13
ENDBRANCH  11  12
ENDBRANCH   8  11
ENDBRANCH   1   7
BRANCH   2  24
HETATM   24  C   UNL     1       7.230  27.406  54.135  1.00  0.00     0.254 C 
HETATM   25  N   UNL     1       6.924  26.084  53.891  1.00  0.00    -0.349 N 
HETATM   26  H   UNL     1       6.013  25.732  54.157  1.00  0.00     0.163 HD
HETATM   27  O   UNL     1       8.285  27.938  53.816  1.00  0.00    -0.268 OA
BRANCH  25  28
HETATM   28  C   UNL     1       7.875  25.161  53.295  1.00  0.00     0.114 C 
HETATM   29  C   UNL     1       7.587  25.006  51.800  1.00  0.00     0.037 C 
BRANCH  28  30
HETATM   30  C   UNL     1       7.868  23.854  54.068  1.00  0.00    -0.036 A 
HETATM   31  C   UNL     1       7.896  23.794  55.470  1.00  0.00     0.009 A 
HETATM   32  C   UNL     1       7.893  22.561  56.130  1.00  0.00     0.001 A 
HETATM   33  C   UNL     1       7.876  21.374  55.400  1.00  0.00     0.000 A 
HETATM   34  C   UNL     1       7.868  21.415  54.010  1.00  0.00     0.001 A 
HETATM   35  C   UNL     1       7.872  22.645  53.350  1.00  0.00     0.009 A 
ENDBRANCH  28  30
ENDBRANCH  25  28
ENDBRANCH   2  24
TORSDOF 10
ENDMDL
MODEL 2
REMARK VINA RESULT:      -9.5      2.044      3.978
REMARK  10 active torsions:
REMARK  status: ('A' for Active; 'I' for Inactive)
REMARK    1  A    between atoms: C_2  and  O_3 
REMARK    2  A    between atoms: O_3  and  C_4 
REMARK    3  A    between atoms: C_9  and  C_10 
REMARK    4  A    between atoms: C_10  and  O_11 
REMARK    5  A    between atoms: O_11  and  C_12 
REMARK    6  A    between atoms: C_12  and  C_13 
REMARK       I    between atoms: C_13  and  N_14 
REMARK    7  A    between atoms: N_14  and  C_15 
REMARK    8  A    between atoms: C_16  and  C_17 
REMARK       I    between atoms: C_17  and  N_18 
REMARK    9  A    between atoms: N_18  and  C_19 
REMARK   10  A    between atoms: C_19  and  C_20 
ROOT
HETATM    1  C   UNL     1       5.829  27.592  53.265  1.00  0.00     0.050 A 
HETATM    2  C   UNL     1       5.865  26.182  53.229  1.00  0.00     0.058 A 
HETATM    3  C   UNL     1       5.656  25.489  52.026  1.00  0.00     0.019 A 
HETATM    4  C   UNL     1       5.368  26.187  50.856  1.00  0.00     0.001 A 
HETATM    5  C   UNL     1       5.286  27.575  50.889  1.00  0.00     0.002 A 
HETATM    6  C   UNL     1       5.516  28.271  52.081  1.00  0.00     0.030 A 
ENDROOT
BRANCH   1   7
HETATM    7  N   UNL     1       6.186  28.278  54.456  1.00  0.00    -0.324 N 
HETATM    8  C   UNL     1       5.332  28.779  55.423  1.00  0.00     0.246 C 
HETATM    9  O   UNL     1       4.131  28.534  55.516  1.00  0.00    -0.271 OA
HETATM   10  H   UNL     1       7.170  28.530  54.534  1.00  0.00     0.169 HD
BRANCH   8  11
HETATM   11  C   UNL     1       6.023  29.706  56.433  1.00  0.00     0.282 C 
BRANCH  11  12
HETATM   12  O   UNL     1       6.208  29.075  57.699  1.00  0.00    -0.308 OA
BRANCH  12  13
HETATM   13  C   UNL     1       7.350  28.357  57.800  1.00  0.00     0.298 C 
HETATM   14  O   UNL     1       7.400  27.152  58.007  1.00  0.00    -0.259 OA
BRANCH  13  15
HETATM   15  C   UNL     1       8.563  29.196  57.710  1.00  0.00     0.092 A 
HETATM   16  C   UNL     1       8.943  30.150  58.651  1.00  0.00     0.180 A 
HETATM   17  N   UNL     1      10.059  30.916  58.518  1.00  0.00    -0.236 NA
HETATM   18  C   UNL     1      10.811  30.738  57.411  1.00  0.00     0.119 A 
HETATM   19  C   UNL     1      10.507  29.828  56.416  1.00  0.00     0.020 A 
HETATM   20  C   UNL     1       9.365  29.048  56.570  1.00  0.00     0.023 A 
BRANCH  16  21
HETATM   21  O   UNL     1       8.139  30.372  59.748  1.00  0.00    -0.334 OA
BRANCH  21  22
HETATM   22  C   UNL     1       8.782  31.061  60.820  1.00  0.00     0.173 C 
HETATM   23  C   UNL     1       7.901  32.232  61.218  1.00  0.00     0.034 C 
ENDBRANCH  21  22
ENDBRANCH  16  21
ENDBRANCH  13  15
ENDBRANCH  12  13
ENDBRANCH  11  12
ENDBRANCH   8  11
ENDBRANCH   1   7
BRANCH   2  24
HETATM   24  C   UNL     1       6.050  25.342  54.442  1.00  0.00     0.254 C 
HETATM   25  N   UNL     1       7.213  24.603  54.472  1.00  0.00    -0.349 N 
HETATM   26  H   UNL     1       7.853  24.660  53.690  1.00  0.00     0.163 HD
HETATM   27  O   UNL     1       5.232  25.374  55.352  1.00  0.00    -0.268 OA
BRANCH  25  28
HETATM   28  C   UNL     1       7.544  23.714  55.572  1.00  0.00     0.114 C 
HETATM   29  C   UNL     1       8.601  24.362  56.469  1.00  0.00     0.037 C 
BRANCH  28  30
HETATM   30  C   UNL     1       7.943  22.354  55.025  1.00  0.00    -0.036 A 
HETATM   31  C   UNL     1       8.309  21.277  55.847  1.00  0.00     0.009 A 
HETATM   32  C   UNL     1       8.672  20.047  55.289  1.00  0.00     0.001 A 
HETATM   33  C   UNL     1       8.688  19.881  53.906  1.00  0.00     0.000 A 
HETATM   34  C   UNL     1       8.347  20.945  53.076  1.00  0.00     0.001 A 
HETATM   35  C   UNL     1       7.985  22.172  53.631  1.00  0.00     0.009 A 
ENDBRANCH  28  30
ENDBRANCH  25  28
ENDBRANCH   2  24
TORSDOF 10
ENDMDL
MODEL 3
REMARK VINA RESULT:      -9.5      1.388      2.036
REMARK  10 active torsions:
REMARK  status: ('A' for Active; 'I' for Inactive)
REMARK    1  A    between atoms: C_2  and  O_3 
REMARK    2  A    between atoms: O_3  and  C_4 
REMARK    3  A    between atoms: C_9  and  C_10 
REMARK    4  A    between atoms: C_10  and  O_11 
REMARK    5  A    between atoms: O_11  and  C_12 
REMARK    6  A    between atoms: C_12  and  C_13 
REMARK       I    between atoms: C_13  and  N_14 
REMARK    7  A    between atoms: N_14  and  C_15 
REMARK    8  A    between atoms: C_16  and  C_17 
REMARK       I    between atoms: C_17  and  N_18 
REMARK    9  A    between atoms: N_18  and  C_19 
REMARK   10  A    between atoms: C_19  and  C_20 
ROOT
HETATM    1  C   UNL     1       5.667  28.397  55.459  1.00  0.00     0.050 A 
HETATM    2  C   UNL     1       5.628  27.030  55.111  1.00  0.00     0.058 A 
HETATM    3  C   UNL     1       5.083  26.617  53.884  1.00  0.00     0.019 A 
HETATM    4  C   UNL     1       4.534  27.551  53.011  1.00  0.00     0.001 A 
HETATM    5  C   UNL     1       4.527  28.897  53.363  1.00  0.00     0.002 A 
HETATM    6  C   UNL     1       5.089  29.317  54.574  1.00  0.00     0.030 A 
ENDROOT
BRANCH   1   7
HETATM    7  N   UNL     1       6.351  28.808  56.633  1.00  0.00    -0.324 N 
HETATM    8  C   UNL     1       7.677  29.192  56.740  1.00  0.00     0.246 C 
HETATM    9  O   UNL     1       8.431  29.437  55.800  1.00  0.00    -0.271 OA
HETATM   10  H   UNL     1       5.836  28.686  57.503  1.00  0.00     0.169 HD
BRANCH   8  11
HETATM   11  C   UNL     1       8.170  29.304  58.189  1.00  0.00     0.282 C 
BRANCH  11  12
HETATM   12  O   UNL     1       9.472  29.882  58.268  1.00  0.00    -0.308 OA
BRANCH  12  13
HETATM   13  C   UNL     1       9.493  31.134  58.780  1.00  0.00     0.298 C 
HETATM   14  O   UNL     1      10.147  32.063  58.324  1.00  0.00    -0.259 OA
BRANCH  13  15
HETATM   15  C   UNL     1       8.692  31.260  60.016  1.00  0.00     0.092 A 
HETATM   16  C   UNL     1       7.451  31.887  60.101  1.00  0.00     0.180 A 
HETATM   17  N   UNL     1       6.757  31.997  61.264  1.00  0.00    -0.236 NA
HETATM   18  C   UNL     1       7.319  31.482  62.378  1.00  0.00     0.119 A 
HETATM   19  C   UNL     1       8.551  30.856  62.397  1.00  0.00     0.020 A 
HETATM   20  C   UNL     1       9.246  30.747  61.197  1.00  0.00     0.023 A 
BRANCH  16  21
HETATM   21  O   UNL     1       6.911  32.466  58.973  1.00  0.00    -0.334 OA
BRANCH  21  22
HETATM   22  C   UNL     1       5.506  32.706  59.049  1.00  0.00     0.173 C 
HETATM   23  C   UNL     1       4.809  31.690  58.161  1.00  0.00     0.034 C 
ENDBRANCH  21  22
ENDBRANCH  16  21
ENDBRANCH  13  15
ENDBRANCH  12  13
ENDBRANCH  11  12
ENDBRANCH   8  11
ENDBRANCH   1   7
BRANCH   2  24
HETATM   24  C   UNL     1       6.082  25.946  56.022  1.00  0.00     0.254 C 
HETATM   25  N   UNL     1       6.987  25.061  55.474  1.00  0.00    -0.349 N 
HETATM   26  H   UNL     1       7.275  25.184  54.511  1.00  0.00     0.163 HD
HETATM   27  O   UNL     1       5.701  25.909  57.184  1.00  0.00    -0.268 OA
BRANCH  25  28
HETATM   28  C   UNL     1       7.519  23.931  56.216  1.00  0.00     0.114 C 
HETATM   29  C   UNL     1       8.799  24.342  56.947  1.00  0.00     0.037 C 
BRANCH  28  30
HETATM   30  C   UNL     1       7.690  22.745  55.283  1.00  0.00    -0.036 A 
HETATM   31  C   UNL     1       7.859  21.429  55.743  1.00  0.00     0.009 A 
HETATM   32  C   UNL     1       8.017  20.374  54.839  1.00  0.00     0.001 A 
HETATM   33  C   UNL     1       8.022  20.620  53.467  1.00  0.00     0.000 A 
HETATM   34  C   UNL     1       7.876  21.921  52.995  1.00  0.00     0.001 A 
HETATM   35  C   UNL     1       7.719  22.975  53.896  1.00  0.00     0.009 A 
ENDBRANCH  28  30
ENDBRANCH  25  28
ENDBRANCH   2  24
TORSDOF 10
ENDMDL
MODEL 4
REMARK VINA RESULT:      -9.3      2.557      4.694
REMARK  10 active torsions:
REMARK  status: ('A' for Active; 'I' for Inactive)
REMARK    1  A    between atoms: C_2  and  O_3 
REMARK    2  A    between atoms: O_3  and  C_4 
REMARK    3  A    between atoms: C_9  and  C_10 
REMARK    4  A    between atoms: C_10  and  O_11 
REMARK    5  A    between atoms: O_11  and  C_12 
REMARK    6  A    between atoms: C_12  and  C_13 
REMARK       I    between atoms: C_13  and  N_14 
REMARK    7  A    between atoms: N_14  and  C_15 
REMARK    8  A    between atoms: C_16  and  C_17 
REMARK       I    between atoms: C_17  and  N_18 
REMARK    9  A    between atoms: N_18  and  C_19 
REMARK   10  A    between atoms: C_19  and  C_20 
ROOT
HETATM    1  C   UNL     1       7.666  30.439  58.229  1.00  0.00     0.050 A 
HETATM    2  C   UNL     1       7.875  29.387  57.313  1.00  0.00     0.058 A 
HETATM    3  C   UNL     1       9.173  29.041  56.901  1.00  0.00     0.019 A 
HETATM    4  C   UNL     1      10.270  29.763  57.362  1.00  0.00     0.001 A 
HETATM    5  C   UNL     1      10.072  30.831  58.231  1.00  0.00     0.002 A 
HETATM    6  C   UNL     1       8.783  31.165  58.662  1.00  0.00     0.030 A 
ENDROOT
BRANCH   1   7
HETATM    7  N   UNL     1       6.365  30.679  58.745  1.00  0.00    -0.324 N 
HETATM    8  C   UNL     1       5.614  31.835  58.622  1.00  0.00     0.246 C 
HETATM    9  O   UNL     1       5.864  32.776  57.872  1.00  0.00    -0.271 OA
HETATM   10  H   UNL     1       6.007  29.962  59.374  1.00  0.00     0.169 HD
BRANCH   8  11
HETATM   11  C   UNL     1       4.377  31.864  59.530  1.00  0.00     0.282 C 
BRANCH  11  12
HETATM   12  O   UNL     1       4.553  32.733  60.648  1.00  0.00    -0.308 OA
BRANCH  12  13
HETATM   13  C   UNL     1       4.491  32.112  61.848  1.00  0.00     0.298 C 
HETATM   14  O   UNL     1       3.556  31.422  62.229  1.00  0.00    -0.259 OA
BRANCH  13  15
HETATM   15  C   UNL     1       5.655  32.414  62.709  1.00  0.00     0.092 A 
HETATM   16  C   UNL     1       5.581  32.978  63.980  1.00  0.00     0.180 A 
HETATM   17  N   UNL     1       6.681  33.258  64.729  1.00  0.00    -0.236 NA
HETATM   18  C   UNL     1       7.889  32.980  64.194  1.00  0.00     0.119 A 
HETATM   19  C   UNL     1       8.064  32.434  62.937  1.00  0.00     0.020 A 
HETATM   20  C   UNL     1       6.928  32.150  62.185  1.00  0.00     0.023 A 
BRANCH  16  21
HETATM   21  O   UNL     1       4.349  33.317  64.496  1.00  0.00    -0.334 OA
BRANCH  21  22
HETATM   22  C   UNL     1       4.399  33.949  65.775  1.00  0.00     0.173 C 
HETATM   23  C   UNL     1       3.520  35.186  65.719  1.00  0.00     0.034 C 
ENDBRANCH  21  22
ENDBRANCH  16  21
ENDBRANCH  13  15
ENDBRANCH  12  13
ENDBRANCH  11  12
ENDBRANCH   8  11
ENDBRANCH   1   7
BRANCH   2  24
HETATM   24  C   UNL     1       6.765  28.631  56.674  1.00  0.00     0.254 C 
HETATM   25  N   UNL     1       7.019  27.295  56.447  1.00  0.00    -0.349 N 
HETATM   26  H   UNL     1       7.921  26.915  56.707  1.00  0.00     0.163 HD
HETATM   27  O   UNL     1       5.696  29.178  56.434  1.00  0.00    -0.268 OA
BRANCH  25  28
HETATM   28  C   UNL     1       6.053  26.415  55.814  1.00  0.00     0.114 C 
HETATM   29  C   UNL     1       5.320  25.593  56.877  1.00  0.00     0.037 C 
BRANCH  28  30
HETATM   30  C   UNL     1       6.746  25.579  54.752  1.00  0.00    -0.036 A 
HETATM   31  C   UNL     1       7.215  26.115  53.543  1.00  0.00     0.009 A 
HETATM   32  C   UNL     1       7.842  25.299  52.597  1.00  0.00     0.001 A 
HETATM   33  C   UNL     1       7.996  23.935  52.839  1.00  0.00     0.000 A 
HETATM   34  C   UNL     1       7.519  23.383  54.024  1.00  0.00     0.001 A 
HETATM   35  C   UNL     1       6.893  24.197  54.968  1.00  0.00     0.009 A 
ENDBRANCH  28  30
ENDBRANCH  25  28
ENDBRANCH   2  24
TORSDOF 10
ENDMDL
MODEL 5
REMARK VINA RESULT:      -9.0      2.437      4.624
REMARK  10 active torsions:
REMARK  status: ('A' for Active; 'I' for Inactive)
REMARK    1  A    between atoms: C_2  and  O_3 
REMARK    2  A    between atoms: O_3  and  C_4 
REMARK    3  A    between atoms: C_9  and  C_10 
REMARK    4  A    between atoms: C_10  and  O_11 
REMARK    5  A    between atoms: O_11  and  C_12 
REMARK    6  A    between atoms: C_12  and  C_13 
REMARK       I    between atoms: C_13  and  N_14 
REMARK    7  A    between atoms: N_14  and  C_15 
REMARK    8  A    between atoms: C_16  and  C_17 
REMARK       I    between atoms: C_17  and  N_18 
REMARK    9  A    between atoms: N_18  and  C_19 
REMARK   10  A    between atoms: C_19  and  C_20 
ROOT
HETATM    1  C   UNL     1       7.676  30.351  58.183  1.00  0.00     0.050 A 
HETATM    2  C   UNL     1       7.746  29.292  57.253  1.00  0.00     0.058 A 
HETATM    3  C   UNL     1       8.983  28.864  56.744  1.00  0.00     0.019 A 
HETATM    4  C   UNL     1      10.157  29.510  57.121  1.00  0.00     0.001 A 
HETATM    5  C   UNL     1      10.096  30.583  58.003  1.00  0.00     0.002 A 
HETATM    6  C   UNL     1       8.868  30.999  58.531  1.00  0.00     0.030 A 
ENDROOT
BRANCH   1   7
HETATM    7  N   UNL     1       6.437  30.672  58.796  1.00  0.00    -0.324 N 
HETATM    8  C   UNL     1       5.739  31.865  58.703  1.00  0.00     0.246 C 
HETATM    9  O   UNL     1       5.974  32.773  57.909  1.00  0.00    -0.271 OA
HETATM   10  H   UNL     1       6.096  29.991  59.473  1.00  0.00     0.169 HD
BRANCH   8  11
HETATM   11  C   UNL     1       4.585  31.982  59.708  1.00  0.00     0.282 C 
BRANCH  11  12
HETATM   12  O   UNL     1       4.915  32.831  60.806  1.00  0.00    -0.308 OA
BRANCH  12  13
HETATM   13  C   UNL     1       4.626  32.306  62.019  1.00  0.00     0.298 C 
HETATM   14  O   UNL     1       3.666  31.586  62.257  1.00  0.00    -0.259 OA
BRANCH  13  15
HETATM   15  C   UNL     1       5.558  32.757  63.074  1.00  0.00     0.092 A 
HETATM   16  C   UNL     1       6.903  32.403  63.154  1.00  0.00     0.180 A 
HETATM   17  N   UNL     1       7.720  32.826  64.155  1.00  0.00    -0.236 NA
HETATM   18  C   UNL     1       7.182  33.612  65.111  1.00  0.00     0.119 A 
HETATM   19  C   UNL     1       5.857  34.005  65.126  1.00  0.00     0.020 A 
HETATM   20  C   UNL     1       5.035  33.567  64.092  1.00  0.00     0.023 A 
BRANCH  16  21
HETATM   21  O   UNL     1       7.431  31.550  62.210  1.00  0.00    -0.334 OA
BRANCH  21  22
HETATM   22  C   UNL     1       8.840  31.679  62.021  1.00  0.00     0.173 C 
HETATM   23  C   UNL     1       9.438  30.284  61.996  1.00  0.00     0.034 C 
ENDBRANCH  21  22
ENDBRANCH  16  21
ENDBRANCH  13  15
ENDBRANCH  12  13
ENDBRANCH  11  12
ENDBRANCH   8  11
ENDBRANCH   1   7
BRANCH   2  24
HETATM   24  C   UNL     1       6.543  28.614  56.700  1.00  0.00     0.254 C 
HETATM   25  N   UNL     1       6.641  27.244  56.590  1.00  0.00    -0.349 N 
HETATM   26  H   UNL     1       7.500  26.787  56.871  1.00  0.00     0.163 HD
HETATM   27  O   UNL     1       5.537  29.256  56.427  1.00  0.00    -0.268 OA
BRANCH  25  28
HETATM   28  C   UNL     1       5.567  26.427  56.052  1.00  0.00     0.114 C 
HETATM   29  C   UNL     1       5.082  25.435  57.112  1.00  0.00     0.037 C 
BRANCH  28  30
HETATM   30  C   UNL     1       6.022  25.777  54.757  1.00  0.00    -0.036 A 
HETATM   31  C   UNL     1       5.131  25.234  53.819  1.00  0.00     0.009 A 
HETATM   32  C   UNL     1       5.605  24.643  52.644  1.00  0.00     0.001 A 
HETATM   33  C   UNL     1       6.975  24.574  52.397  1.00  0.00     0.000 A 
HETATM   34  C   UNL     1       7.874  25.089  53.326  1.00  0.00     0.001 A 
HETATM   35  C   UNL     1       7.401  25.679  54.499  1.00  0.00     0.009 A 
ENDBRANCH  28  30
ENDBRANCH  25  28
ENDBRANCH   2  24
TORSDOF 10
ENDMDL
MODEL 6
REMARK VINA RESULT:      -8.8      2.348      5.353
REMARK  10 active torsions:
REMARK  status: ('A' for Active; 'I' for Inactive)
REMARK    1  A    between atoms: C_2  and  O_3 
REMARK    2  A    between atoms: O_3  and  C_4 
REMARK    3  A    between atoms: C_9  and  C_10 
REMARK    4  A    between atoms: C_10  and  O_11 
REMARK    5  A    between atoms: O_11  and  C_12 
REMARK    6  A    between atoms: C_12  and  C_13 
REMARK       I    between atoms: C_13  and  N_14 
REMARK    7  A    between atoms: N_14  and  C_15 
REMARK    8  A    between atoms: C_16  and  C_17 
REMARK       I    between atoms: C_17  and  N_18 
REMARK    9  A    between atoms: N_18  and  C_19 
REMARK   10  A    between atoms: C_19  and  C_20 
ROOT
HETATM    1  C   UNL     1       8.066  23.864  55.047  1.00  0.00     0.050 A 
HETATM    2  C   UNL     1       7.617  24.245  53.766  1.00  0.00     0.058 A 
HETATM    3  C   UNL     1       7.480  23.295  52.741  1.00  0.00     0.019 A 
HETATM    4  C   UNL     1       7.828  21.966  52.966  1.00  0.00     0.001 A 
HETATM    5  C   UNL     1       8.314  21.587  54.213  1.00  0.00     0.002 A 
HETATM    6  C   UNL     1       8.431  22.526  55.244  1.00  0.00     0.030 A 
ENDROOT
BRANCH   1   7
HETATM    7  N   UNL     1       8.059  24.807  56.109  1.00  0.00    -0.324 N 
HETATM    8  C   UNL     1       6.964  25.243  56.836  1.00  0.00     0.246 C 
HETATM    9  O   UNL     1       5.845  24.734  56.822  1.00  0.00    -0.271 OA
HETATM   10  H   UNL     1       8.938  25.300  56.260  1.00  0.00     0.169 HD
BRANCH   8  11
HETATM   11  C   UNL     1       7.258  26.466  57.715  1.00  0.00     0.282 C 
BRANCH  11  12
HETATM   12  O   UNL     1       8.456  27.133  57.322  1.00  0.00    -0.308 OA
BRANCH  12  13
HETATM   13  C   UNL     1       8.254  28.302  56.672  1.00  0.00     0.298 C 
HETATM   14  O   UNL     1       7.654  28.415  55.612  1.00  0.00    -0.259 OA
BRANCH  13  15
HETATM   15  C   UNL     1       8.905  29.448  57.341  1.00  0.00     0.092 A 
HETATM   16  C   UNL     1       8.276  30.314  58.232  1.00  0.00     0.180 A 
HETATM   17  N   UNL     1       8.909  31.370  58.809  1.00  0.00    -0.236 NA
HETATM   18  C   UNL     1      10.202  31.578  58.481  1.00  0.00     0.119 A 
HETATM   19  C   UNL     1      10.907  30.783  57.596  1.00  0.00     0.020 A 
HETATM   20  C   UNL     1      10.245  29.704  57.018  1.00  0.00     0.023 A 
BRANCH  16  21
HETATM   21  O   UNL     1       6.939  30.134  58.515  1.00  0.00    -0.334 OA
BRANCH  21  22
HETATM   22  C   UNL     1       6.060  30.976  57.769  1.00  0.00     0.173 C 
HETATM   23  C   UNL     1       4.930  30.114  57.234  1.00  0.00     0.034 C 
ENDBRANCH  21  22
ENDBRANCH  16  21
ENDBRANCH  13  15
ENDBRANCH  12  13
ENDBRANCH  11  12
ENDBRANCH   8  11
ENDBRANCH   1   7
BRANCH   2  24
HETATM   24  C   UNL     1       7.330  25.655  53.391  1.00  0.00     0.254 C 
HETATM   25  N   UNL     1       5.996  25.958  53.220  1.00  0.00    -0.349 N 
HETATM   26  H   UNL     1       5.306  25.227  53.344  1.00  0.00     0.163 HD
HETATM   27  O   UNL     1       8.237  26.473  53.304  1.00  0.00    -0.268 OA
BRANCH  25  28
HETATM   28  C   UNL     1       5.540  27.281  52.835  1.00  0.00     0.114 C 
HETATM   29  C   UNL     1       4.341  27.692  53.692  1.00  0.00     0.037 C 
BRANCH  28  30
HETATM   30  C   UNL     1       5.274  27.312  51.339  1.00  0.00    -0.036 A 
HETATM   31  C   UNL     1       5.384  28.479  50.567  1.00  0.00     0.009 A 
HETATM   32  C   UNL     1       5.122  28.451  49.194  1.00  0.00     0.001 A 
HETATM   33  C   UNL     1       4.735  27.263  48.577  1.00  0.00     0.000 A 
HETATM   34  C   UNL     1       4.601  26.101  49.332  1.00  0.00     0.001 A 
HETATM   35  C   UNL     1       4.862  26.128  50.702  1.00  0.00     0.009 A 
ENDBRANCH  28  30
ENDBRANCH  25  28
ENDBRANCH   2  24
TORSDOF 10
ENDMDL
MODEL 7
REMARK VINA RESULT:      -8.8      4.509      9.073
REMARK  10 active torsions:
REMARK  status: ('A' for Active; 'I' for Inactive)
REMARK    1  A    between atoms: C_2  and  O_3 
REMARK    2  A    between atoms: O_3  and  C_4 
REMARK    3  A    between atoms: C_9  and  C_10 
REMARK    4  A    between atoms: C_10  and  O_11 
REMARK    5  A    between atoms: O_11  and  C_12 
REMARK    6  A    between atoms: C_12  and  C_13 
REMARK       I    between atoms: C_13  and  N_14 
REMARK    7  A    between atoms: N_14  and  C_15 
REMARK    8  A    between atoms: C_16  and  C_17 
REMARK       I    between atoms: C_17  and  N_18 
REMARK    9  A    between atoms: N_18  and  C_19 
REMARK   10  A    between atoms: C_19  and  C_20 
ROOT
HETATM    1  C   UNL     1       8.060  22.709  53.763  1.00  0.00     0.050 A 
HETATM    2  C   UNL     1       8.268  22.576  55.152  1.00  0.00     0.058 A 
HETATM    3  C   UNL     1       8.574  21.326  55.715  1.00  0.00     0.019 A 
HETATM    4  C   UNL     1       8.636  20.191  54.911  1.00  0.00     0.001 A 
HETATM    5  C   UNL     1       8.390  20.304  53.547  1.00  0.00     0.002 A 
HETATM    6  C   UNL     1       8.106  21.551  52.977  1.00  0.00     0.030 A 
ENDROOT
BRANCH   1   7
HETATM    7  N   UNL     1       7.897  24.000  53.194  1.00  0.00    -0.324 N 
HETATM    8  C   UNL     1       6.707  24.627  52.865  1.00  0.00     0.246 C 
HETATM    9  O   UNL     1       5.584  24.255  53.199  1.00  0.00    -0.271 OA
HETATM   10  H   UNL     1       8.756  24.452  52.886  1.00  0.00     0.169 HD
BRANCH   8  11
HETATM   11  C   UNL     1       6.893  25.891  52.014  1.00  0.00     0.282 C 
BRANCH  11  12
HETATM   12  O   UNL     1       5.794  26.108  51.131  1.00  0.00    -0.308 OA
BRANCH  12  13
HETATM   13  C   UNL     1       5.046  27.194  51.432  1.00  0.00     0.298 C 
HETATM   14  O   UNL     1       4.480  27.377  52.502  1.00  0.00    -0.259 OA
BRANCH  13  15
HETATM   15  C   UNL     1       4.910  28.128  50.294  1.00  0.00     0.092 A 
HETATM   16  C   UNL     1       4.166  27.879  49.143  1.00  0.00     0.180 A 
HETATM   17  N   UNL     1       4.085  28.759  48.110  1.00  0.00    -0.236 NA
HETATM   18  C   UNL     1       4.773  29.915  48.220  1.00  0.00     0.119 A 
HETATM   19  C   UNL     1       5.549  30.246  49.314  1.00  0.00     0.020 A 
HETATM   20  C   UNL     1       5.618  29.336  50.365  1.00  0.00     0.023 A 
BRANCH  16  21
HETATM   21  O   UNL     1       3.517  26.671  49.010  1.00  0.00    -0.334 OA
BRANCH  21  22
HETATM   22  C   UNL     1       2.510  26.651  47.998  1.00  0.00     0.173 C 
HETATM   23  C   UNL     1       2.834  25.519  47.039  1.00  0.00     0.034 C 
ENDBRANCH  21  22
ENDBRANCH  16  21
ENDBRANCH  13  15
ENDBRANCH  12  13
ENDBRANCH  11  12
ENDBRANCH   8  11
ENDBRANCH   1   7
BRANCH   2  24
HETATM   24  C   UNL     1       8.111  23.702  56.110  1.00  0.00     0.254 C 
HETATM   25  N   UNL     1       6.836  24.220  56.203  1.00  0.00    -0.349 N 
HETATM   26  H   UNL     1       6.103  23.828  55.625  1.00  0.00     0.163 HD
HETATM   27  O   UNL     1       9.056  24.076  56.792  1.00  0.00    -0.268 OA
BRANCH  25  28
HETATM   28  C   UNL     1       6.510  25.335  57.074  1.00  0.00     0.114 C 
HETATM   29  C   UNL     1       4.993  25.431  57.256  1.00  0.00     0.037 C 
BRANCH  28  30
HETATM   30  C   UNL     1       7.152  26.604  56.540  1.00  0.00    -0.036 A 
HETATM   31  C   UNL     1       6.881  27.119  55.263  1.00  0.00     0.009 A 
HETATM   32  C   UNL     1       7.504  28.289  54.820  1.00  0.00     0.001 A 
HETATM   33  C   UNL     1       8.416  28.952  55.639  1.00  0.00     0.000 A 
HETATM   34  C   UNL     1       8.712  28.443  56.900  1.00  0.00     0.001 A 
HETATM   35  C   UNL     1       8.091  27.276  57.343  1.00  0.00     0.009 A 
ENDBRANCH  28  30
ENDBRANCH  25  28
ENDBRANCH   2  24
TORSDOF 10
ENDMDL
MODEL 8
REMARK VINA RESULT:      -8.7      3.554      7.650
REMARK  10 active torsions:
REMARK  status: ('A' for Active; 'I' for Inactive)
REMARK    1  A    between atoms: C_2  and  O_3 
REMARK    2  A    between atoms: O_3  and  C_4 
REMARK    3  A    between atoms: C_9  and  C_10 
REMARK    4  A    between atoms: C_10  and  O_11 
REMARK    5  A    between atoms: O_11  and  C_12 
REMARK    6  A    between atoms: C_12  and  C_13 
REMARK       I    between atoms: C_13  and  N_14 
REMARK    7  A    between atoms: N_14  and  C_15 
REMARK    8  A    between atoms: C_16  and  C_17 
REMARK       I    between atoms: C_17  and  N_18 
REMARK    9  A    between atoms: N_18  and  C_19 
REMARK   10  A    between atoms: C_19  and  C_20 
ROOT
HETATM    1  C   UNL     1       6.531  29.194  55.766  1.00  0.00     0.050 A 
HETATM    2  C   UNL     1       7.238  27.974  55.714  1.00  0.00     0.058 A 
HETATM    3  C   UNL     1       7.998  27.537  56.811  1.00  0.00     0.019 A 
HETATM    4  C   UNL     1       8.095  28.326  57.954  1.00  0.00     0.001 A 
HETATM    5  C   UNL     1       7.438  29.550  58.000  1.00  0.00     0.002 A 
HETATM    6  C   UNL     1       6.662  29.980  56.918  1.00  0.00     0.030 A 
ENDROOT
BRANCH   1   7
HETATM    7  N   UNL     1       5.654  29.548  54.707  1.00  0.00    -0.324 N 
HETATM    8  C   UNL     1       4.344  29.136  54.529  1.00  0.00     0.246 C 
HETATM    9  O   UNL     1       3.655  28.556  55.366  1.00  0.00    -0.271 OA
HETATM   10  H   UNL     1       6.084  30.062  53.939  1.00  0.00     0.169 HD
BRANCH   8  11
HETATM   11  C   UNL     1       3.776  29.474  53.144  1.00  0.00     0.282 C 
BRANCH  11  12
HETATM   12  O   UNL     1       3.941  28.399  52.220  1.00  0.00    -0.308 OA
BRANCH  12  13
HETATM   13  C   UNL     1       4.928  28.591  51.316  1.00  0.00     0.298 C 
HETATM   14  O   UNL     1       6.014  29.097  51.565  1.00  0.00    -0.259 OA
BRANCH  13  15
HETATM   15  C   UNL     1       4.535  28.193  49.947  1.00  0.00     0.092 A 
HETATM   16  C   UNL     1       3.979  29.047  48.998  1.00  0.00     0.180 A 
HETATM   17  N   UNL     1       3.613  28.632  47.756  1.00  0.00    -0.236 NA
HETATM   18  C   UNL     1       3.793  27.329  47.453  1.00  0.00     0.119 A 
HETATM   19  C   UNL     1       4.323  26.404  48.333  1.00  0.00     0.020 A 
HETATM   20  C   UNL     1       4.697  26.845  49.598  1.00  0.00     0.023 A 
BRANCH  16  21
HETATM   21  O   UNL     1       3.739  30.362  49.333  1.00  0.00    -0.334 OA
BRANCH  21  22
HETATM   22  C   UNL     1       4.417  31.312  48.511  1.00  0.00     0.173 C 
HETATM   23  C   UNL     1       5.767  31.599  49.145  1.00  0.00     0.034 C 
ENDBRANCH  21  22
ENDBRANCH  16  21
ENDBRANCH  13  15
ENDBRANCH  12  13
ENDBRANCH  11  12
ENDBRANCH   8  11
ENDBRANCH   1   7
BRANCH   2  24
HETATM   24  C   UNL     1       7.292  27.117  54.500  1.00  0.00     0.254 C 
HETATM   25  N   UNL     1       6.470  26.010  54.527  1.00  0.00    -0.349 N 
HETATM   26  H   UNL     1       5.902  25.839  55.348  1.00  0.00     0.163 HD
HETATM   27  O   UNL     1       7.986  27.435  53.543  1.00  0.00    -0.268 OA
BRANCH  25  28
HETATM   28  C   UNL     1       6.413  25.055  53.435  1.00  0.00     0.114 C 
HETATM   29  C   UNL     1       4.975  24.929  52.925  1.00  0.00     0.037 C 
BRANCH  28  30
HETATM   30  C   UNL     1       7.033  23.740  53.874  1.00  0.00    -0.036 A 
HETATM   31  C   UNL     1       7.101  23.338  55.217  1.00  0.00     0.009 A 
HETATM   32  C   UNL     1       7.687  22.118  55.567  1.00  0.00     0.001 A 
HETATM   33  C   UNL     1       8.226  21.291  54.583  1.00  0.00     0.000 A 
HETATM   34  C   UNL     1       8.186  21.684  53.249  1.00  0.00     0.001 A 
HETATM   35  C   UNL     1       7.600  22.901  52.899  1.00  0.00     0.009 A 
ENDBRANCH  28  30
ENDBRANCH  25  28
ENDBRANCH   2  24
TORSDOF 10
ENDMDL
MODEL 9
REMARK VINA RESULT:      -8.7      4.465      8.834
REMARK  10 active torsions:
REMARK  status: ('A' for Active; 'I' for Inactive)
REMARK    1  A    between atoms: C_2  and  O_3 
REMARK    2  A    between atoms: O_3  and  C_4 
REMARK    3  A    between atoms: C_9  and  C_10 
REMARK    4  A    between atoms: C_10  and  O_11 
REMARK    5  A    between atoms: O_11  and  C_12 
REMARK    6  A    between atoms: C_12  and  C_13 
REMARK       I    between atoms: C_13  and  N_14 
REMARK    7  A    between atoms: N_14  and  C_15 
REMARK    8  A    between atoms: C_16  and  C_17 
REMARK       I    between atoms: C_17  and  N_18 
REMARK    9  A    between atoms: N_18  and  C_19 
REMARK   10  A    between atoms: C_19  and  C_20 
ROOT
HETATM    1  C   UNL     1       8.207  22.595  54.137  1.00  0.00     0.050 A 
HETATM    2  C   UNL     1       8.340  22.579  55.541  1.00  0.00     0.058 A 
HETATM    3  C   UNL     1       8.612  21.382  56.223  1.00  0.00     0.019 A 
HETATM    4  C   UNL     1       8.713  20.184  55.521  1.00  0.00     0.001 A 
HETATM    5  C   UNL     1       8.540  20.180  54.141  1.00  0.00     0.002 A 
HETATM    6  C   UNL     1       8.291  21.374  53.455  1.00  0.00     0.030 A 
ENDROOT
BRANCH   1   7
HETATM    7  N   UNL     1       8.079  23.833  53.453  1.00  0.00    -0.324 N 
HETATM    8  C   UNL     1       6.907  24.447  53.043  1.00  0.00     0.246 C 
HETATM    9  O   UNL     1       5.771  24.123  53.382  1.00  0.00    -0.271 OA
HETATM   10  H   UNL     1       8.952  24.243  53.127  1.00  0.00     0.169 HD
BRANCH   8  11
HETATM   11  C   UNL     1       7.133  25.628  52.089  1.00  0.00     0.282 C 
BRANCH  11  12
HETATM   12  O   UNL     1       6.075  25.761  51.142  1.00  0.00    -0.308 OA
BRANCH  12  13
HETATM   13  C   UNL     1       5.392  26.926  51.233  1.00  0.00     0.298 C 
HETATM   14  O   UNL     1       4.949  27.395  52.272  1.00  0.00    -0.259 OA
BRANCH  13  15
HETATM   15  C   UNL     1       5.161  27.557  49.916  1.00  0.00     0.092 A 
HETATM   16  C   UNL     1       5.442  28.886  49.609  1.00  0.00     0.180 A 
HETATM   17  N   UNL     1       5.194  29.431  48.389  1.00  0.00    -0.236 NA
HETATM   18  C   UNL     1       4.638  28.636  47.450  1.00  0.00     0.119 A 
HETATM   19  C   UNL     1       4.310  27.310  47.664  1.00  0.00     0.020 A 
HETATM   20  C   UNL     1       4.575  26.767  48.917  1.00  0.00     0.023 A 
BRANCH  16  21
HETATM   21  O   UNL     1       5.951  29.710  50.589  1.00  0.00    -0.334 OA
BRANCH  21  22
HETATM   22  C   UNL     1       5.288  30.970  50.703  1.00  0.00     0.173 C 
HETATM   23  C   UNL     1       4.166  30.818  51.715  1.00  0.00     0.034 C 
ENDBRANCH  21  22
ENDBRANCH  16  21
ENDBRANCH  13  15
ENDBRANCH  12  13
ENDBRANCH  11  12
ENDBRANCH   8  11
ENDBRANCH   1   7
BRANCH   2  24
HETATM   24  C   UNL     1       8.137  23.782  56.391  1.00  0.00     0.254 C 
HETATM   25  N   UNL     1       6.851  24.280  56.404  1.00  0.00    -0.349 N 
HETATM   26  H   UNL     1       6.141  23.824  55.845  1.00  0.00     0.163 HD
HETATM   27  O   UNL     1       9.056  24.234  57.061  1.00  0.00    -0.268 OA
BRANCH  25  28
HETATM   28  C   UNL     1       6.480  25.460  57.164  1.00  0.00     0.114 C 
HETATM   29  C   UNL     1       4.956  25.576  57.242  1.00  0.00     0.037 C 
BRANCH  28  30
HETATM   30  C   UNL     1       7.166  26.681  56.576  1.00  0.00    -0.036 A 
HETATM   31  C   UNL     1       6.977  27.099  55.249  1.00  0.00     0.009 A 
HETATM   32  C   UNL     1       7.638  28.229  54.757  1.00  0.00     0.001 A 
HETATM   33  C   UNL     1       8.505  28.947  55.578  1.00  0.00     0.000 A 
HETATM   34  C   UNL     1       8.720  28.535  56.889  1.00  0.00     0.001 A 
HETATM   35  C   UNL     1       8.061  27.407  57.381  1.00  0.00     0.009 A 
ENDBRANCH  28  30
ENDBRANCH  25  28
ENDBRANCH   2  24
TORSDOF 10
ENDMDL
MODEL 10
REMARK VINA RESULT:      -8.6      1.938      9.387
REMARK  10 active torsions:
REMARK  status: ('A' for Active; 'I' for Inactive)
REMARK    1  A    between atoms: C_2  and  O_3 
REMARK    2  A    between atoms: O_3  and  C_4 
REMARK    3  A    between atoms: C_9  and  C_10 
REMARK    4  A    between atoms: C_10  and  O_11 
REMARK    5  A    between atoms: O_11  and  C_12 
REMARK    6  A    between atoms: C_12  and  C_13 
REMARK       I    between atoms: C_13  and  N_14 
REMARK    7  A    between atoms: N_14  and  C_15 
REMARK    8  A    between atoms: C_16  and  C_17 
REMARK       I    between atoms: C_17  and  N_18 
REMARK    9  A    between atoms: N_18  and  C_19 
REMARK   10  A    between atoms: C_19  and  C_20 
ROOT
HETATM    1  C   UNL     1       5.671  29.568  57.395  1.00  0.00     0.050 A 
HETATM    2  C   UNL     1       5.926  30.825  57.983  1.00  0.00     0.058 A 
HETATM    3  C   UNL     1       5.041  31.899  57.792  1.00  0.00     0.019 A 
HETATM    4  C   UNL     1       3.918  31.747  56.984  1.00  0.00     0.001 A 
HETATM    5  C   UNL     1       3.680  30.524  56.364  1.00  0.00     0.002 A 
HETATM    6  C   UNL     1       4.547  29.445  56.568  1.00  0.00     0.030 A 
ENDROOT
BRANCH   1   7
HETATM    7  N   UNL     1       6.496  28.458  57.716  1.00  0.00    -0.324 N 
HETATM    8  C   UNL     1       7.427  27.840  56.899  1.00  0.00     0.246 C 
HETATM    9  O   UNL     1       7.843  28.277  55.827  1.00  0.00    -0.271 OA
HETATM   10  H   UNL     1       6.284  27.999  58.601  1.00  0.00     0.169 HD
BRANCH   8  11
HETATM   11  C   UNL     1       7.940  26.504  57.451  1.00  0.00     0.282 C 
BRANCH  11  12
HETATM   12  O   UNL     1       8.126  25.534  56.421  1.00  0.00    -0.308 OA
BRANCH  12  13
HETATM   13  C   UNL     1       7.064  24.719  56.228  1.00  0.00     0.298 C 
HETATM   14  O   UNL     1       5.997  24.812  56.820  1.00  0.00    -0.259 OA
BRANCH  13  15
HETATM   15  C   UNL     1       7.344  23.633  55.265  1.00  0.00     0.092 A 
HETATM   16  C   UNL     1       7.226  23.743  53.882  1.00  0.00     0.180 A 
HETATM   17  N   UNL     1       7.476  22.710  53.034  1.00  0.00    -0.236 NA
HETATM   18  C   UNL     1       7.840  21.530  53.577  1.00  0.00     0.119 A 
HETATM   19  C   UNL     1       7.970  21.318  54.937  1.00  0.00     0.020 A 
HETATM   20  C   UNL     1       7.716  22.387  55.791  1.00  0.00     0.023 A 
BRANCH  16  21
HETATM   21  O   UNL     1       6.794  24.932  53.336  1.00  0.00    -0.334 OA
BRANCH  21  22
HETATM   22  C   UNL     1       5.397  24.973  53.042  1.00  0.00     0.173 C 
HETATM   23  C   UNL     1       4.891  26.366  53.369  1.00  0.00     0.034 C 
ENDBRANCH  21  22
ENDBRANCH  16  21
ENDBRANCH  13  15
ENDBRANCH  12  13
ENDBRANCH  11  12
ENDBRANCH   8  11
ENDBRANCH   1   7
BRANCH   2  24
HETATM   24  C   UNL     1       7.154  31.123  58.767  1.00  0.00     0.254 C 
HETATM   25  N   UNL     1       6.939  31.475  60.082  1.00  0.00    -0.349 N 
HETATM   26  H   UNL     1       5.989  31.521  60.431  1.00  0.00     0.163 HD
HETATM   27  O   UNL     1       8.261  31.000  58.260  1.00  0.00    -0.268 OA
BRANCH  25  28
HETATM   28  C   UNL     1       8.024  31.817  60.985  1.00  0.00     0.114 C 
HETATM   29  C   UNL     1       8.739  30.546  61.450  1.00  0.00     0.037 C 
BRANCH  28  30
HETATM   30  C   UNL     1       7.491  32.678  62.117  1.00  0.00    -0.036 A 
HETATM   31  C   UNL     1       6.512  33.667  61.930  1.00  0.00     0.009 A 
HETATM   32  C   UNL     1       6.062  34.435  63.008  1.00  0.00     0.001 A 
HETATM   33  C   UNL     1       6.591  34.236  64.281  1.00  0.00     0.000 A 
HETATM   34  C   UNL     1       7.576  33.275  64.480  1.00  0.00     0.001 A 
HETATM   35  C   UNL     1       8.027  32.508  63.406  1.00  0.00     0.009 A 
ENDBRANCH  28  30
ENDBRANCH  25  28
ENDBRANCH   2  24
TORSDOF 10
ENDMDL
