MODEL 1
REMARK VINA RESULT:     -10.1      0.000      0.000
REMARK  4 active torsions:
REMARK  status: ('A' for Active; 'I' for Inactive)
REMARK    1  A    between atoms: C_4  and  C_5 
REMARK    2  A    between atoms: C_8  and  C_9 
REMARK    3  A    between atoms: C_9  and  N_10 
REMARK    4  A    between atoms: N_10  and  C_11 
ROOT
HETATM    1  C   UNL     1       6.713  28.050  56.647  1.00  0.00     0.158 C 
ENDROOT
BRANCH   1   2
HETATM    2  C   UNL     1       6.950  26.643  56.162  1.00  0.00    -0.041 A 
HETATM    3  C   UNL     1       7.220  26.389  54.812  1.00  0.00     0.009 A 
HETATM    4  C   UNL     1       7.488  25.087  54.374  1.00  0.00     0.013 A 
HETATM    5  C   UNL     1       7.490  24.003  55.267  1.00  0.00    -0.026 A 
HETATM    6  C   UNL     1       7.178  24.265  56.612  1.00  0.00     0.013 A 
HETATM    7  C   UNL     1       6.905  25.565  57.053  1.00  0.00     0.009 A 
BRANCH   5   8
HETATM    8  C   UNL     1       7.836  22.643  54.816  1.00  0.00    -0.026 A 
HETATM    9  C   UNL     1       7.906  22.332  53.446  1.00  0.00     0.012 A 
HETATM   10  C   UNL     1       8.253  21.050  53.009  1.00  0.00     0.001 A 
HETATM   11  C   UNL     1       8.538  20.053  53.937  1.00  0.00     0.000 A 
HETATM   12  C   UNL     1       8.474  20.335  55.298  1.00  0.00     0.001 A 
HETATM   13  C   UNL     1       8.126  21.618  55.733  1.00  0.00     0.012 A 
ENDBRANCH   5   8
ENDBRANCH   1   2
BRANCH   1  14
HETATM   14  N   UNL     1       7.454  28.285  57.877  1.00  0.00    -0.384 N 
HETATM   15  H   UNL     1       6.835  28.223  58.687  1.00  0.00     0.160 HD
BRANCH  14  16
HETATM   16  C   UNL     1       8.419  29.282  57.994  1.00  0.00     0.060 A 
HETATM   17  C   UNL     1       8.355  30.459  58.754  1.00  0.00     0.106 A 
HETATM   18  C   UNL     1       9.360  31.418  58.737  1.00  0.00     0.158 A 
HETATM   19  N   UNL     1       7.437  31.003  59.625  1.00  0.00    -0.346 N 
HETATM   20  N   UNL     1       9.101  32.475  59.551  1.00  0.00    -0.224 NA
HETATM   21  N   UNL     1      10.459  31.240  57.942  1.00  0.00    -0.349 N 
HETATM   22  C   UNL     1       7.928  32.200  60.077  1.00  0.00     0.210 A 
HETATM   23  H   UNL     1      11.171  31.966  57.954  1.00  0.00     0.167 HD
HETATM   24  C   UNL     1      10.565  30.159  57.174  1.00  0.00     0.092 A 
HETATM   25  C   UNL     1       9.566  29.189  57.178  1.00  0.00     0.048 A 
HETATM   26  H   UNL     1       6.548  30.607  59.896  1.00  0.00     0.167 HD
ENDBRANCH  14  16
ENDBRANCH   1  14
TORSDOF 4
ENDMDL
MODEL 2
REMARK VINA RESULT:      -9.9      5.697      8.064
REMARK  4 active torsions:
REMARK  status: ('A' for Active; 'I' for Inactive)
REMARK    1  A    between atoms: C_4  and  C_5 
REMARK    2  A    between atoms: C_8  and  C_9 
REMARK    3  A    between atoms: C_9  and  N_10 
REMARK    4  A    between atoms: N_10  and  C_11 
ROOT
HETATM    1  C   UNL     1       5.677  27.452  52.211  1.00  0.00     0.158 C 
ENDROOT
BRANCH   1   2
HETATM    2  C   UNL     1       6.245  26.164  52.747  1.00  0.00    -0.041 A 
HETATM    3  C   UNL     1       5.835  25.663  53.988  1.00  0.00     0.009 A 
HETATM    4  C   UNL     1       6.329  24.442  54.460  1.00  0.00     0.013 A 
HETATM    5  C   UNL     1       7.248  23.689  53.711  1.00  0.00    -0.026 A 
HETATM    6  C   UNL     1       7.683  24.221  52.486  1.00  0.00     0.013 A 
HETATM    7  C   UNL     1       7.195  25.445  52.013  1.00  0.00     0.009 A 
BRANCH   5   8
HETATM    8  C   UNL     1       7.718  22.372  54.180  1.00  0.00    -0.026 A 
HETATM    9  C   UNL     1       8.244  21.430  53.278  1.00  0.00     0.012 A 
HETATM   10  C   UNL     1       8.709  20.187  53.717  1.00  0.00     0.001 A 
HETATM   11  C   UNL     1       8.660  19.864  55.070  1.00  0.00     0.000 A 
HETATM   12  C   UNL     1       8.144  20.779  55.982  1.00  0.00     0.001 A 
HETATM   13  C   UNL     1       7.676  22.022  55.540  1.00  0.00     0.012 A 
ENDBRANCH   5   8
ENDBRANCH   1   2
BRANCH   1  14
HETATM   14  N   UNL     1       4.515  27.177  51.379  1.00  0.00    -0.384 N 
HETATM   15  H   UNL     1       4.090  26.285  51.639  1.00  0.00     0.160 HD
BRANCH  14  16
HETATM   16  C   UNL     1       4.498  27.418  50.008  1.00  0.00     0.060 A 
HETATM   17  C   UNL     1       3.964  26.607  48.996  1.00  0.00     0.106 A 
HETATM   18  C   UNL     1       4.068  26.924  47.648  1.00  0.00     0.158 A 
HETATM   19  N   UNL     1       3.278  25.413  48.970  1.00  0.00    -0.346 N 
HETATM   20  N   UNL     1       3.475  26.008  46.839  1.00  0.00    -0.224 NA
HETATM   21  N   UNL     1       4.729  28.059  47.263  1.00  0.00    -0.349 N 
HETATM   22  C   UNL     1       3.005  25.101  47.665  1.00  0.00     0.210 A 
HETATM   23  H   UNL     1       4.787  28.254  46.267  1.00  0.00     0.167 HD
HETATM   24  C   UNL     1       5.284  28.855  48.174  1.00  0.00     0.092 A 
HETATM   25  C   UNL     1       5.190  28.551  49.529  1.00  0.00     0.048 A 
HETATM   26  H   UNL     1       3.014  24.847  49.765  1.00  0.00     0.167 HD
ENDBRANCH  14  16
ENDBRANCH   1  14
TORSDOF 4
ENDMDL
MODEL 3
REMARK VINA RESULT:      -9.2      2.219      3.427
REMARK  4 active torsions:
REMARK  status: ('A' for Active; 'I' for Inactive)
REMARK    1  A    between atoms: C_4  and  C_5 
REMARK    2  A    between atoms: C_8  and  C_9 
REMARK    3  A    between atoms: C_9  and  N_10 
REMARK    4  A    between atoms: N_10  and  C_11 
ROOT
HETATM    1  C   UNL     1       5.393  28.072  52.992  1.00  0.00     0.158 C 
ENDROOT
BRANCH   1   2
HETATM    2  C   UNL     1       5.948  26.682  53.168  1.00  0.00    -0.041 A 
HETATM    3  C   UNL     1       7.326  26.473  53.292  1.00  0.00     0.009 A 
HETATM    4  C   UNL     1       7.833  25.186  53.504  1.00  0.00     0.013 A 
HETATM    5  C   UNL     1       6.982  24.072  53.594  1.00  0.00    -0.026 A 
HETATM    6  C   UNL     1       5.605  24.289  53.427  1.00  0.00     0.013 A 
HETATM    7  C   UNL     1       5.094  25.574  53.211  1.00  0.00     0.009 A 
BRANCH   5   8
HETATM    8  C   UNL     1       7.513  22.727  53.882  1.00  0.00    -0.026 A 
HETATM    9  C   UNL     1       7.909  21.869  52.840  1.00  0.00     0.012 A 
HETATM   10  C   UNL     1       8.431  20.600  53.104  1.00  0.00     0.001 A 
HETATM   11  C   UNL     1       8.570  20.164  54.419  1.00  0.00     0.000 A 
HETATM   12  C   UNL     1       8.184  20.995  55.467  1.00  0.00     0.001 A 
HETATM   13  C   UNL     1       7.660  22.264  55.200  1.00  0.00     0.012 A 
ENDBRANCH   5   8
ENDBRANCH   1   2
BRANCH   1  14
HETATM   14  N   UNL     1       6.189  29.027  53.748  1.00  0.00    -0.384 N 
HETATM   15  H   UNL     1       7.157  29.028  53.419  1.00  0.00     0.160 HD
BRANCH  14  16
HETATM   16  C   UNL     1       6.075  29.175  55.128  1.00  0.00     0.060 A 
HETATM   17  C   UNL     1       7.054  28.943  56.105  1.00  0.00     0.106 A 
HETATM   18  C   UNL     1       6.799  29.061  57.464  1.00  0.00     0.158 A 
HETATM   19  N   UNL     1       8.379  28.567  56.080  1.00  0.00    -0.346 N 
HETATM   20  N   UNL     1       7.888  28.800  58.235  1.00  0.00    -0.224 NA
HETATM   21  N   UNL     1       5.546  29.401  57.897  1.00  0.00    -0.349 N 
HETATM   22  C   UNL     1       8.832  28.500  57.371  1.00  0.00     0.210 A 
HETATM   23  H   UNL     1       5.399  29.474  58.900  1.00  0.00     0.167 HD
HETATM   24  C   UNL     1       4.566  29.605  57.021  1.00  0.00     0.092 A 
HETATM   25  C   UNL     1       4.804  29.489  55.654  1.00  0.00     0.048 A 
HETATM   26  H   UNL     1       8.939  28.368  55.263  1.00  0.00     0.167 HD
ENDBRANCH  14  16
ENDBRANCH   1  14
TORSDOF 4
ENDMDL
MODEL 4
REMARK VINA RESULT:      -9.1      1.163      2.489
REMARK  4 active torsions:
REMARK  status: ('A' for Active; 'I' for Inactive)
REMARK    1  A    between atoms: C_4  and  C_5 
REMARK    2  A    between atoms: C_8  and  C_9 
REMARK    3  A    between atoms: C_9  and  N_10 
REMARK    4  A    between atoms: N_10  and  C_11 
ROOT
HETATM    1  C   UNL     1       5.661  27.681  56.929  1.00  0.00     0.158 C 
ENDROOT
BRANCH   1   2
HETATM    2  C   UNL     1       6.220  26.395  56.377  1.00  0.00    -0.041 A 
HETATM    3  C   UNL     1       7.139  25.640  57.114  1.00  0.00     0.009 A 
HETATM    4  C   UNL     1       7.619  24.423  56.619  1.00  0.00     0.013 A 
HETATM    5  C   UNL     1       7.198  23.926  55.374  1.00  0.00    -0.026 A 
HETATM    6  C   UNL     1       6.306  24.711  54.625  1.00  0.00     0.013 A 
HETATM    7  C   UNL     1       5.829  25.932  55.115  1.00  0.00     0.009 A 
BRANCH   5   8
HETATM    8  C   UNL     1       7.654  22.612  54.883  1.00  0.00    -0.026 A 
HETATM    9  C   UNL     1       7.938  21.565  55.779  1.00  0.00     0.012 A 
HETATM   10  C   UNL     1       8.352  20.311  55.321  1.00  0.00     0.001 A 
HETATM   11  C   UNL     1       8.487  20.079  53.955  1.00  0.00     0.000 A 
HETATM   12  C   UNL     1       8.213  21.099  53.049  1.00  0.00     0.001 A 
HETATM   13  C   UNL     1       7.800  22.354  53.510  1.00  0.00     0.012 A 
ENDBRANCH   5   8
ENDBRANCH   1   2
BRANCH   1  14
HETATM   14  N   UNL     1       6.362  28.818  56.351  1.00  0.00    -0.384 N 
HETATM   15  H   UNL     1       6.753  28.574  55.439  1.00  0.00     0.160 HD
BRANCH  14  16
HETATM   16  C   UNL     1       7.187  29.653  57.099  1.00  0.00     0.060 A 
HETATM   17  C   UNL     1       8.587  29.732  57.072  1.00  0.00     0.106 A 
HETATM   18  C   UNL     1       9.307  30.562  57.921  1.00  0.00     0.158 A 
HETATM   19  N   UNL     1       9.579  29.121  56.338  1.00  0.00    -0.346 N 
HETATM   20  N   UNL     1      10.650  30.491  57.722  1.00  0.00    -0.224 NA
HETATM   21  N   UNL     1       8.650  31.331  58.844  1.00  0.00    -0.349 N 
HETATM   22  C   UNL     1      10.788  29.609  56.759  1.00  0.00     0.210 A 
HETATM   23  H   UNL     1       9.213  31.922  59.450  1.00  0.00     0.167 HD
HETATM   24  C   UNL     1       7.324  31.278  58.941  1.00  0.00     0.092 A 
HETATM   25  C   UNL     1       6.587  30.450  58.097  1.00  0.00     0.048 A 
HETATM   26  H   UNL     1       9.459  28.427  55.613  1.00  0.00     0.167 HD
ENDBRANCH  14  16
ENDBRANCH   1  14
TORSDOF 4
ENDMDL
MODEL 5
REMARK VINA RESULT:      -9.0      3.321      4.080
REMARK  4 active torsions:
REMARK  status: ('A' for Active; 'I' for Inactive)
REMARK    1  A    between atoms: C_4  and  C_5 
REMARK    2  A    between atoms: C_8  and  C_9 
REMARK    3  A    between atoms: C_9  and  N_10 
REMARK    4  A    between atoms: N_10  and  C_11 
ROOT
HETATM    1  C   UNL     1       5.508  27.445  57.022  1.00  0.00     0.158 C 
ENDROOT
BRANCH   1   2
HETATM    2  C   UNL     1       6.105  26.201  56.417  1.00  0.00    -0.041 A 
HETATM    3  C   UNL     1       6.943  25.371  57.171  1.00  0.00     0.009 A 
HETATM    4  C   UNL     1       7.456  24.191  56.620  1.00  0.00     0.013 A 
HETATM    5  C   UNL     1       7.151  23.808  55.304  1.00  0.00    -0.026 A 
HETATM    6  C   UNL     1       6.342  24.669  54.544  1.00  0.00     0.013 A 
HETATM    7  C   UNL     1       5.831  25.853  55.090  1.00  0.00     0.009 A 
BRANCH   5   8
HETATM    8  C   UNL     1       7.639  22.533  54.747  1.00  0.00    -0.026 A 
HETATM    9  C   UNL     1       7.941  21.446  55.588  1.00  0.00     0.012 A 
HETATM   10  C   UNL     1       8.385  20.228  55.067  1.00  0.00     0.001 A 
HETATM   11  C   UNL     1       8.535  20.072  53.692  1.00  0.00     0.000 A 
HETATM   12  C   UNL     1       8.244  21.133  52.840  1.00  0.00     0.001 A 
HETATM   13  C   UNL     1       7.801  22.352  53.363  1.00  0.00     0.012 A 
ENDBRANCH   5   8
ENDBRANCH   1   2
BRANCH   1  14
HETATM   14  N   UNL     1       4.334  27.855  56.266  1.00  0.00    -0.384 N 
HETATM   15  H   UNL     1       4.222  27.273  55.434  1.00  0.00     0.160 HD
BRANCH  14  16
HETATM   16  C   UNL     1       4.004  29.190  56.054  1.00  0.00     0.060 A 
HETATM   17  C   UNL     1       3.790  30.189  57.015  1.00  0.00     0.106 A 
HETATM   18  C   UNL     1       3.396  31.478  56.681  1.00  0.00     0.158 A 
HETATM   19  N   UNL     1       3.863  30.246  58.389  1.00  0.00    -0.346 N 
HETATM   20  N   UNL     1       3.252  32.288  57.763  1.00  0.00    -0.224 NA
HETATM   21  N   UNL     1       3.185  31.809  55.370  1.00  0.00    -0.349 N 
HETATM   22  C   UNL     1       3.539  31.516  58.787  1.00  0.00     0.210 A 
HETATM   23  H   UNL     1       2.894  32.762  55.167  1.00  0.00     0.167 HD
HETATM   24  C   UNL     1       3.342  30.898  54.413  1.00  0.00     0.092 A 
HETATM   25  C   UNL     1       3.736  29.601  54.731  1.00  0.00     0.048 A 
HETATM   26  H   UNL     1       4.108  29.491  59.016  1.00  0.00     0.167 HD
ENDBRANCH  14  16
ENDBRANCH   1  14
TORSDOF 4
ENDMDL
MODEL 6
REMARK VINA RESULT:      -8.9      1.526      2.289
REMARK  4 active torsions:
REMARK  status: ('A' for Active; 'I' for Inactive)
REMARK    1  A    between atoms: C_4  and  C_5 
REMARK    2  A    between atoms: C_8  and  C_9 
REMARK    3  A    between atoms: C_9  and  N_10 
REMARK    4  A    between atoms: N_10  and  C_11 
ROOT
HETATM    1  C   UNL     1       7.584  28.949  56.203  1.00  0.00     0.158 C 
ENDROOT
BRANCH   1   2
HETATM    2  C   UNL     1       7.585  27.488  55.833  1.00  0.00    -0.041 A 
HETATM    3  C   UNL     1       7.305  27.083  54.523  1.00  0.00     0.009 A 
HETATM    4  C   UNL     1       7.355  25.729  54.173  1.00  0.00     0.013 A 
HETATM    5  C   UNL     1       7.681  24.743  55.118  1.00  0.00    -0.026 A 
HETATM    6  C   UNL     1       7.921  25.158  56.438  1.00  0.00     0.013 A 
HETATM    7  C   UNL     1       7.867  26.511  56.794  1.00  0.00     0.009 A 
BRANCH   5   8
HETATM    8  C   UNL     1       7.797  23.324  54.733  1.00  0.00    -0.026 A 
HETATM    9  C   UNL     1       7.679  22.303  55.692  1.00  0.00     0.012 A 
HETATM   10  C   UNL     1       7.768  20.955  55.332  1.00  0.00     0.001 A 
HETATM   11  C   UNL     1       7.975  20.603  54.002  1.00  0.00     0.000 A 
HETATM   12  C   UNL     1       8.096  21.595  53.034  1.00  0.00     0.001 A 
HETATM   13  C   UNL     1       8.009  22.943  53.397  1.00  0.00     0.012 A 
ENDBRANCH   5   8
ENDBRANCH   1   2
BRANCH   1  14
HETATM   14  N   UNL     1       7.793  29.102  57.635  1.00  0.00    -0.384 N 
HETATM   15  H   UNL     1       7.584  28.229  58.124  1.00  0.00     0.160 HD
BRANCH  14  16
HETATM   16  C   UNL     1       7.395  30.236  58.337  1.00  0.00     0.060 A 
HETATM   17  C   UNL     1       7.850  30.683  59.586  1.00  0.00     0.106 A 
HETATM   18  C   UNL     1       7.324  31.801  60.220  1.00  0.00     0.158 A 
HETATM   19  N   UNL     1       8.801  30.249  60.484  1.00  0.00    -0.346 N 
HETATM   20  N   UNL     1       7.914  32.061  61.416  1.00  0.00    -0.224 NA
HETATM   21  N   UNL     1       6.308  32.504  59.631  1.00  0.00    -0.349 N 
HETATM   22  C   UNL     1       8.804  31.104  61.554  1.00  0.00     0.210 A 
HETATM   23  H   UNL     1       5.948  33.314  60.129  1.00  0.00     0.167 HD
HETATM   24  C   UNL     1       5.811  32.114  58.461  1.00  0.00     0.092 A 
HETATM   25  C   UNL     1       6.326  30.994  57.813  1.00  0.00     0.048 A 
HETATM   26  H   UNL     1       9.400  29.441  60.390  1.00  0.00     0.167 HD
ENDBRANCH  14  16
ENDBRANCH   1  14
TORSDOF 4
ENDMDL
MODEL 7
REMARK VINA RESULT:      -8.9      5.339      7.655
REMARK  4 active torsions:
REMARK  status: ('A' for Active; 'I' for Inactive)
REMARK    1  A    between atoms: C_4  and  C_5 
REMARK    2  A    between atoms: C_8  and  C_9 
REMARK    3  A    between atoms: C_9  and  N_10 
REMARK    4  A    between atoms: N_10  and  C_11 
ROOT
HETATM    1  C   UNL     1       4.810  27.546  53.295  1.00  0.00     0.158 C 
ENDROOT
BRANCH   1   2
HETATM    2  C   UNL     1       5.572  26.267  53.530  1.00  0.00    -0.041 A 
HETATM    3  C   UNL     1       5.682  25.727  54.816  1.00  0.00     0.009 A 
HETATM    4  C   UNL     1       6.350  24.514  55.022  1.00  0.00     0.013 A 
HETATM    5  C   UNL     1       6.928  23.809  53.954  1.00  0.00    -0.026 A 
HETATM    6  C   UNL     1       6.846  24.382  52.674  1.00  0.00     0.013 A 
HETATM    7  C   UNL     1       6.184  25.597  52.464  1.00  0.00     0.009 A 
BRANCH   5   8
HETATM    8  C   UNL     1       7.574  22.500  54.163  1.00  0.00    -0.026 A 
HETATM    9  C   UNL     1       7.700  21.956  55.454  1.00  0.00     0.012 A 
HETATM   10  C   UNL     1       8.293  20.707  55.660  1.00  0.00     0.001 A 
HETATM   11  C   UNL     1       8.771  19.976  54.575  1.00  0.00     0.000 A 
HETATM   12  C   UNL     1       8.658  20.494  53.289  1.00  0.00     0.001 A 
HETATM   13  C   UNL     1       8.066  21.745  53.085  1.00  0.00     0.012 A 
ENDBRANCH   5   8
ENDBRANCH   1   2
BRANCH   1  14
HETATM   14  N   UNL     1       5.121  28.077  51.976  1.00  0.00    -0.384 N 
HETATM   15  H   UNL     1       5.710  28.909  52.054  1.00  0.00     0.160 HD
BRANCH  14  16
HETATM   16  C   UNL     1       4.176  28.163  50.958  1.00  0.00     0.060 A 
HETATM   17  C   UNL     1       4.245  27.617  49.668  1.00  0.00     0.106 A 
HETATM   18  C   UNL     1       3.262  27.830  48.711  1.00  0.00     0.158 A 
HETATM   19  N   UNL     1       5.152  26.828  48.996  1.00  0.00    -0.346 N 
HETATM   20  N   UNL     1       3.522  27.204  47.533  1.00  0.00    -0.224 NA
HETATM   21  N   UNL     1       2.179  28.613  49.006  1.00  0.00    -0.349 N 
HETATM   22  C   UNL     1       4.675  26.605  47.731  1.00  0.00     0.210 A 
HETATM   23  H   UNL     1       1.483  28.748  48.277  1.00  0.00     0.167 HD
HETATM   24  C   UNL     1       2.070  29.185  50.202  1.00  0.00     0.092 A 
HETATM   25  C   UNL     1       3.048  28.983  51.173  1.00  0.00     0.048 A 
HETATM   26  H   UNL     1       6.025  26.467  49.354  1.00  0.00     0.167 HD
ENDBRANCH  14  16
ENDBRANCH   1  14
TORSDOF 4
ENDMDL
MODEL 8
REMARK VINA RESULT:      -8.8      2.756      4.358
REMARK  4 active torsions:
REMARK  status: ('A' for Active; 'I' for Inactive)
REMARK    1  A    between atoms: C_4  and  C_5 
REMARK    2  A    between atoms: C_8  and  C_9 
REMARK    3  A    between atoms: C_9  and  N_10 
REMARK    4  A    between atoms: N_10  and  C_11 
ROOT
HETATM    1  C   UNL     1       7.001  28.140  57.473  1.00  0.00     0.158 C 
ENDROOT
BRANCH   1   2
HETATM    2  C   UNL     1       7.253  26.811  56.810  1.00  0.00    -0.041 A 
HETATM    3  C   UNL     1       7.403  25.648  57.574  1.00  0.00     0.009 A 
HETATM    4  C   UNL     1       7.588  24.408  56.952  1.00  0.00     0.013 A 
HETATM    5  C   UNL     1       7.633  24.294  55.553  1.00  0.00    -0.026 A 
HETATM    6  C   UNL     1       7.523  25.473  54.798  1.00  0.00     0.013 A 
HETATM    7  C   UNL     1       7.342  26.716  55.416  1.00  0.00     0.009 A 
BRANCH   5   8
HETATM    8  C   UNL     1       7.764  22.979  54.898  1.00  0.00    -0.026 A 
HETATM    9  C   UNL     1       7.935  22.880  53.505  1.00  0.00     0.012 A 
HETATM   10  C   UNL     1       8.078  21.638  52.879  1.00  0.00     0.001 A 
HETATM   11  C   UNL     1       8.056  20.470  53.636  1.00  0.00     0.000 A 
HETATM   12  C   UNL     1       7.887  20.543  55.015  1.00  0.00     0.001 A 
HETATM   13  C   UNL     1       7.742  21.786  55.640  1.00  0.00     0.012 A 
ENDBRANCH   5   8
ENDBRANCH   1   2
BRANCH   1  14
HETATM   14  N   UNL     1       5.597  28.503  57.348  1.00  0.00    -0.384 N 
HETATM   15  H   UNL     1       5.002  27.682  57.475  1.00  0.00     0.160 HD
BRANCH  14  16
HETATM   16  C   UNL     1       5.131  29.377  56.371  1.00  0.00     0.060 A 
HETATM   17  C   UNL     1       4.524  29.060  55.147  1.00  0.00     0.106 A 
HETATM   18  C   UNL     1       4.160  30.025  54.218  1.00  0.00     0.158 A 
HETATM   19  N   UNL     1       4.149  27.890  54.525  1.00  0.00    -0.346 N 
HETATM   20  N   UNL     1       3.582  29.502  53.105  1.00  0.00    -0.224 NA
HETATM   21  N   UNL     1       4.407  31.347  54.475  1.00  0.00    -0.349 N 
HETATM   22  C   UNL     1       3.589  28.205  53.315  1.00  0.00     0.210 A 
HETATM   23  H   UNL     1       4.129  32.023  53.768  1.00  0.00     0.167 HD
HETATM   24  C   UNL     1       5.007  31.711  55.605  1.00  0.00     0.092 A 
HETATM   25  C   UNL     1       5.379  30.755  56.546  1.00  0.00     0.048 A 
HETATM   26  H   UNL     1       4.262  26.950  54.880  1.00  0.00     0.167 HD
ENDBRANCH  14  16
ENDBRANCH   1  14
TORSDOF 4
ENDMDL
MODEL 9
REMARK VINA RESULT:      -8.7      5.760      7.753
REMARK  4 active torsions:
REMARK  status: ('A' for Active; 'I' for Inactive)
REMARK    1  A    between atoms: C_4  and  C_5 
REMARK    2  A    between atoms: C_8  and  C_9 
REMARK    3  A    between atoms: C_9  and  N_10 
REMARK    4  A    between atoms: N_10  and  C_11 
ROOT
HETATM    1  C   UNL     1       5.590  27.788  52.062  1.00  0.00     0.158 C 
ENDROOT
BRANCH   1   2
HETATM    2  C   UNL     1       6.079  26.468  52.601  1.00  0.00    -0.041 A 
HETATM    3  C   UNL     1       5.235  25.352  52.630  1.00  0.00     0.009 A 
HETATM    4  C   UNL     1       5.709  24.117  53.086  1.00  0.00     0.013 A 
HETATM    5  C   UNL     1       7.033  23.961  53.529  1.00  0.00    -0.026 A 
HETATM    6  C   UNL     1       7.857  25.098  53.533  1.00  0.00     0.013 A 
HETATM    7  C   UNL     1       7.386  26.337  53.082  1.00  0.00     0.009 A 
BRANCH   5   8
HETATM    8  C   UNL     1       7.548  22.644  53.948  1.00  0.00    -0.026 A 
HETATM    9  C   UNL     1       7.991  21.707  52.997  1.00  0.00     0.012 A 
HETATM   10  C   UNL     1       8.499  20.464  53.387  1.00  0.00     0.001 A 
HETATM   11  C   UNL     1       8.575  20.135  54.737  1.00  0.00     0.000 A 
HETATM   12  C   UNL     1       8.141  21.046  55.696  1.00  0.00     0.001 A 
HETATM   13  C   UNL     1       7.632  22.288  55.304  1.00  0.00     0.012 A 
ENDBRANCH   5   8
ENDBRANCH   1   2
BRANCH   1  14
HETATM   14  N   UNL     1       4.319  27.608  51.377  1.00  0.00    -0.384 N 
HETATM   15  H   UNL     1       3.792  26.838  51.795  1.00  0.00     0.160 HD
BRANCH  14  16
HETATM   16  C   UNL     1       4.194  27.675  49.993  1.00  0.00     0.060 A 
HETATM   17  C   UNL     1       3.795  28.770  49.214  1.00  0.00     0.106 A 
HETATM   18  C   UNL     1       3.642  28.695  47.836  1.00  0.00     0.158 A 
HETATM   19  N   UNL     1       3.457  30.078  49.481  1.00  0.00    -0.346 N 
HETATM   20  N   UNL     1       3.257  29.872  47.277  1.00  0.00    -0.224 NA
HETATM   21  N   UNL     1       3.868  27.510  47.188  1.00  0.00    -0.349 N 
HETATM   22  C   UNL     1       3.148  30.694  48.297  1.00  0.00     0.210 A 
HETATM   23  H   UNL     1       3.742  27.495  46.179  1.00  0.00     0.167 HD
HETATM   24  C   UNL     1       4.220  26.426  47.874  1.00  0.00     0.092 A 
HETATM   25  C   UNL     1       4.376  26.485  49.256  1.00  0.00     0.048 A 
HETATM   26  H   UNL     1       3.430  30.526  50.386  1.00  0.00     0.167 HD
ENDBRANCH  14  16
ENDBRANCH   1  14
TORSDOF 4
ENDMDL
MODEL 10
REMARK VINA RESULT:      -8.4      4.400     11.187
REMARK  4 active torsions:
REMARK  status: ('A' for Active; 'I' for Inactive)
REMARK    1  A    between atoms: C_4  and  C_5 
REMARK    2  A    between atoms: C_8  and  C_9 
REMARK    3  A    between atoms: C_9  and  N_10 
REMARK    4  A    between atoms: N_10  and  C_11 
ROOT
HETATM    1  C   UNL     1       8.445  30.892  61.542  1.00  0.00     0.158 C 
ENDROOT
BRANCH   1   2
HETATM    2  C   UNL     1       7.649  31.692  62.541  1.00  0.00    -0.041 A 
HETATM    3  C   UNL     1       8.291  32.528  63.461  1.00  0.00     0.009 A 
HETATM    4  C   UNL     1       7.545  33.305  64.355  1.00  0.00     0.013 A 
HETATM    5  C   UNL     1       6.141  33.267  64.358  1.00  0.00    -0.026 A 
HETATM    6  C   UNL     1       5.510  32.393  63.458  1.00  0.00     0.013 A 
HETATM    7  C   UNL     1       6.252  31.611  62.566  1.00  0.00     0.009 A 
BRANCH   5   8
HETATM    8  C   UNL     1       5.356  34.135  65.256  1.00  0.00    -0.026 A 
HETATM    9  C   UNL     1       4.200  34.791  64.797  1.00  0.00     0.012 A 
HETATM   10  C   UNL     1       3.439  35.600  65.646  1.00  0.00     0.001 A 
HETATM   11  C   UNL     1       3.820  35.766  66.974  1.00  0.00     0.000 A 
HETATM   12  C   UNL     1       4.961  35.128  67.452  1.00  0.00     0.001 A 
HETATM   13  C   UNL     1       5.722  34.320  66.600  1.00  0.00     0.012 A 
ENDBRANCH   5   8
ENDBRANCH   1   2
BRANCH   1  14
HETATM   14  N   UNL     1       8.081  31.280  60.188  1.00  0.00    -0.384 N 
HETATM   15  H   UNL     1       7.066  31.356  60.097  1.00  0.00     0.160 HD
BRANCH  14  16
HETATM   16  C   UNL     1       8.697  30.744  59.060  1.00  0.00     0.060 A 
HETATM   17  C   UNL     1       8.340  29.591  58.347  1.00  0.00     0.106 A 
HETATM   18  C   UNL     1       9.078  29.116  57.271  1.00  0.00     0.158 A 
HETATM   19  N   UNL     1       7.321  28.669  58.441  1.00  0.00    -0.346 N 
HETATM   20  N   UNL     1       8.552  27.991  56.719  1.00  0.00    -0.224 NA
HETATM   21  N   UNL     1      10.215  29.772  56.881  1.00  0.00    -0.349 N 
HETATM   22  C   UNL     1       7.488  27.740  57.449  1.00  0.00     0.210 A 
HETATM   23  H   UNL     1      10.730  29.390  56.092  1.00  0.00     0.167 HD
HETATM   24  C   UNL     1      10.625  30.854  57.536  1.00  0.00     0.092 A 
HETATM   25  C   UNL     1       9.896  31.343  58.618  1.00  0.00     0.048 A 
HETATM   26  H   UNL     1       6.572  28.658  59.120  1.00  0.00     0.167 HD
ENDBRANCH  14  16
ENDBRANCH   1  14
TORSDOF 4
ENDMDL
