MODEL 1
REMARK VINA RESULT:      -9.9      0.000      0.000
REMARK  9 active torsions:
REMARK  status: ('A' for Active; 'I' for Inactive)
REMARK    1  A    between atoms: C_2  and  C_3 
REMARK    2  A    between atoms: C_6  and  N_7 
REMARK    3  A    between atoms: N_7  and  S_8 
REMARK    4  A    between atoms: S_8  and  C_9 
REMARK    5  A    between atoms: C_15  and  C_16 
REMARK       I    between atoms: C_16  and  N_17 
REMARK    6  A    between atoms: N_17  and  C_18 
REMARK    7  A    between atoms: C_18  and  C_19 
REMARK    8  A    between atoms: C_19  and  C_20 
REMARK    9  A    between atoms: C_20  and  O_21 
ROOT
HETATM    1  C   UNL     1       6.405  28.335  54.549  1.00  0.00     0.081 A 
HETATM    2  C   UNL     1       6.184  29.070  55.716  1.00  0.00     0.043 A 
HETATM    3  C   UNL     1       7.284  29.526  56.448  1.00  0.00     0.043 A 
HETATM    4  C   UNL     1       8.598  29.273  56.013  1.00  0.00     0.046 A 
HETATM    5  N   UNL     1       9.679  29.707  56.787  1.00  0.00    -0.364 N 
HETATM    6  C   UNL     1       9.479  30.432  57.934  1.00  0.00     0.109 A 
HETATM    7  C   UNL     1       8.281  30.751  58.455  1.00  0.00     0.098 A 
HETATM    8  C   UNL     1       7.077  30.288  57.710  1.00  0.00     0.201 A 
HETATM    9  O   UNL     1       5.939  30.516  58.113  1.00  0.00    -0.286 OA
HETATM   10  C   UNL     1       8.797  28.539  54.840  1.00  0.00     0.032 A 
HETATM   11  C   UNL     1       7.704  28.076  54.101  1.00  0.00     0.027 A 
HETATM   12  H   UNL     1      10.621  29.637  56.417  1.00  0.00     0.165 HD
ENDROOT
BRANCH   1  13
HETATM   13  S   UNL     1       5.005  27.770  53.605  1.00  0.00     0.263 S 
HETATM   14  O   UNL     1       5.421  27.635  52.227  1.00  0.00    -0.200 OA
HETATM   15  O   UNL     1       3.882  28.608  53.972  1.00  0.00    -0.200 OA
BRANCH  13  16
HETATM   16  N   UNL     1       4.702  26.249  54.266  1.00  0.00    -0.281 N 
HETATM   17  H   UNL     1       4.170  26.297  55.134  1.00  0.00     0.179 HD
BRANCH  16  18
HETATM   18  C   UNL     1       5.685  25.230  54.146  1.00  0.00     0.042 A 
HETATM   19  C   UNL     1       6.347  24.768  55.281  1.00  0.00     0.030 A 
HETATM   20  C   UNL     1       7.325  23.776  55.162  1.00  0.00     0.010 A 
HETATM   21  C   UNL     1       7.642  23.227  53.909  1.00  0.00    -0.055 A 
HETATM   22  C   UNL     1       6.978  23.719  52.775  1.00  0.00     0.010 A 
HETATM   23  C   UNL     1       6.009  24.717  52.893  1.00  0.00     0.030 A 
BRANCH  21  24
HETATM   24  C   UNL     1       8.689  22.138  53.747  1.00  0.00     0.010 C 
HETATM   25  C   UNL     1       8.137  20.893  53.044  1.00  0.00     0.015 C 
HETATM   26  C   UNL     1       9.308  21.771  55.097  1.00  0.00     0.015 C 
ENDBRANCH  21  24
ENDBRANCH  16  18
ENDBRANCH  13  16
ENDBRANCH   1  13
BRANCH   7  27
HETATM   27  C   UNL     1       8.243  31.528  59.728  1.00  0.00     0.257 C 
HETATM   28  N   UNL     1       7.648  30.891  60.787  1.00  0.00    -0.357 N 
HETATM   29  H   UNL     1       7.313  29.936  60.649  1.00  0.00     0.162 HD
HETATM   30  O   UNL     1       8.722  32.657  59.807  1.00  0.00    -0.267 OA
BRANCH  28  31
HETATM   31  C   UNL     1       7.580  31.468  62.112  1.00  0.00     0.125 C 
BRANCH  31  32
HETATM   32  C   UNL     1       6.175  31.895  62.521  1.00  0.00     0.046 C 
BRANCH  32  33
HETATM   33  C   UNL     1       6.172  32.876  63.687  1.00  0.00     0.168 C 
BRANCH  33  34
HETATM   34  O   UNL     1       4.976  32.667  64.441  1.00  0.00    -0.396 OA
HETATM   35  C   UNL     1       4.816  33.648  65.456  1.00  0.00     0.201 C 
ENDBRANCH  33  34
ENDBRANCH  32  33
ENDBRANCH  31  32
ENDBRANCH  28  31
ENDBRANCH   7  27
TORSDOF 9
ENDMDL
MODEL 2
REMARK VINA RESULT:      -9.8      1.779      2.172
REMARK  9 active torsions:
REMARK  status: ('A' for Active; 'I' for Inactive)
REMARK    1  A    between atoms: C_2  and  C_3 
REMARK    2  A    between atoms: C_6  and  N_7 
REMARK    3  A    between atoms: N_7  and  S_8 
REMARK    4  A    between atoms: S_8  and  C_9 
REMARK    5  A    between atoms: C_15  and  C_16 
REMARK       I    between atoms: C_16  and  N_17 
REMARK    6  A    between atoms: N_17  and  C_18 
REMARK    7  A    between atoms: C_18  and  C_19 
REMARK    8  A    between atoms: C_19  and  C_20 
REMARK    9  A    between atoms: C_20  and  O_21 
ROOT
HETATM    1  C   UNL     1       5.876  28.580  54.758  1.00  0.00     0.081 A 
HETATM    2  C   UNL     1       6.738  28.581  55.858  1.00  0.00     0.043 A 
HETATM    3  C   UNL     1       6.649  29.621  56.787  1.00  0.00     0.043 A 
HETATM    4  C   UNL     1       5.695  30.644  56.640  1.00  0.00     0.046 A 
HETATM    5  N   UNL     1       5.656  31.693  57.564  1.00  0.00    -0.364 N 
HETATM    6  C   UNL     1       6.494  31.707  58.650  1.00  0.00     0.109 A 
HETATM    7  C   UNL     1       7.441  30.790  58.916  1.00  0.00     0.098 A 
HETATM    8  C   UNL     1       7.574  29.660  57.953  1.00  0.00     0.201 A 
HETATM    9  O   UNL     1       8.420  28.781  58.100  1.00  0.00    -0.286 OA
HETATM   10  C   UNL     1       4.839  30.622  55.534  1.00  0.00     0.032 A 
HETATM   11  C   UNL     1       4.920  29.588  54.597  1.00  0.00     0.027 A 
HETATM   12  H   UNL     1       4.894  32.361  57.532  1.00  0.00     0.165 HD
ENDROOT
BRANCH   1  13
HETATM   13  S   UNL     1       5.975  27.246  53.583  1.00  0.00     0.263 S 
HETATM   14  O   UNL     1       6.047  27.822  52.259  1.00  0.00    -0.200 OA
HETATM   15  O   UNL     1       4.940  26.296  53.934  1.00  0.00    -0.200 OA
BRANCH  13  16
HETATM   16  N   UNL     1       7.445  26.517  53.974  1.00  0.00    -0.281 N 
HETATM   17  H   UNL     1       8.247  27.033  53.615  1.00  0.00     0.179 HD
BRANCH  16  18
HETATM   18  C   UNL     1       7.530  25.098  54.008  1.00  0.00     0.042 A 
HETATM   19  C   UNL     1       7.405  24.425  55.220  1.00  0.00     0.030 A 
HETATM   20  C   UNL     1       7.503  23.030  55.256  1.00  0.00     0.010 A 
HETATM   21  C   UNL     1       7.714  22.295  54.079  1.00  0.00    -0.055 A 
HETATM   22  C   UNL     1       7.856  22.992  52.870  1.00  0.00     0.010 A 
HETATM   23  C   UNL     1       7.769  24.386  52.836  1.00  0.00     0.030 A 
BRANCH  21  24
HETATM   24  C   UNL     1       7.809  20.779  54.082  1.00  0.00     0.010 C 
HETATM   25  C   UNL     1       8.497  20.235  55.338  1.00  0.00     0.015 C 
HETATM   26  C   UNL     1       8.507  20.274  52.818  1.00  0.00     0.015 C 
ENDBRANCH  21  24
ENDBRANCH  16  18
ENDBRANCH  13  16
ENDBRANCH   1  13
BRANCH   7  27
HETATM   27  C   UNL     1       8.285  30.971  60.133  1.00  0.00     0.257 C 
HETATM   28  N   UNL     1       7.606  30.954  61.325  1.00  0.00    -0.357 N 
HETATM   29  H   UNL     1       6.599  30.786  61.304  1.00  0.00     0.162 HD
HETATM   30  O   UNL     1       9.502  31.117  60.055  1.00  0.00    -0.267 OA
BRANCH  28  31
HETATM   31  C   UNL     1       8.271  31.050  62.607  1.00  0.00     0.125 C 
BRANCH  31  32
HETATM   32  C   UNL     1       7.961  32.339  63.360  1.00  0.00     0.046 C 
BRANCH  32  33
HETATM   33  C   UNL     1       6.701  33.030  62.852  1.00  0.00     0.168 C 
BRANCH  33  34
HETATM   34  O   UNL     1       5.592  32.157  63.078  1.00  0.00    -0.396 OA
HETATM   35  C   UNL     1       4.402  32.651  62.479  1.00  0.00     0.201 C 
ENDBRANCH  33  34
ENDBRANCH  32  33
ENDBRANCH  31  32
ENDBRANCH  28  31
ENDBRANCH   7  27
TORSDOF 9
ENDMDL
MODEL 3
REMARK VINA RESULT:      -9.1      1.024      1.477
REMARK  9 active torsions:
REMARK  status: ('A' for Active; 'I' for Inactive)
REMARK    1  A    between atoms: C_2  and  C_3 
REMARK    2  A    between atoms: C_6  and  N_7 
REMARK    3  A    between atoms: N_7  and  S_8 
REMARK    4  A    between atoms: S_8  and  C_9 
REMARK    5  A    between atoms: C_15  and  C_16 
REMARK       I    between atoms: C_16  and  N_17 
REMARK    6  A    between atoms: N_17  and  C_18 
REMARK    7  A    between atoms: C_18  and  C_19 
REMARK    8  A    between atoms: C_19  and  C_20 
REMARK    9  A    between atoms: C_20  and  O_21 
ROOT
HETATM    1  C   UNL     1       6.512  28.674  55.252  1.00  0.00     0.081 A 
HETATM    2  C   UNL     1       6.002  29.530  56.232  1.00  0.00     0.043 A 
HETATM    3  C   UNL     1       6.852  29.987  57.242  1.00  0.00     0.043 A 
HETATM    4  C   UNL     1       8.209  29.615  57.269  1.00  0.00     0.046 A 
HETATM    5  N   UNL     1       9.027  30.055  58.315  1.00  0.00    -0.364 N 
HETATM    6  C   UNL     1       8.542  30.897  59.283  1.00  0.00     0.109 A 
HETATM    7  C   UNL     1       7.274  31.337  59.369  1.00  0.00     0.098 A 
HETATM    8  C   UNL     1       6.328  30.878  58.313  1.00  0.00     0.201 A 
HETATM    9  O   UNL     1       5.145  31.211  58.314  1.00  0.00    -0.286 OA
HETATM   10  C   UNL     1       8.700  28.761  56.277  1.00  0.00     0.032 A 
HETATM   11  C   UNL     1       7.858  28.296  55.262  1.00  0.00     0.027 A 
HETATM   12  H   UNL     1      10.027  29.894  58.271  1.00  0.00     0.165 HD
ENDROOT
BRANCH   1  13
HETATM   13  S   UNL     1       5.434  28.107  53.954  1.00  0.00     0.263 S 
HETATM   14  O   UNL     1       6.214  28.002  52.740  1.00  0.00    -0.200 OA
HETATM   15  O   UNL     1       4.239  28.923  54.009  1.00  0.00    -0.200 OA
BRANCH  13  16
HETATM   16  N   UNL     1       4.988  26.570  54.487  1.00  0.00    -0.281 N 
HETATM   17  H   UNL     1       4.453  26.596  55.354  1.00  0.00     0.179 HD
BRANCH  16  18
HETATM   18  C   UNL     1       5.878  25.480  54.287  1.00  0.00     0.042 A 
HETATM   19  C   UNL     1       6.055  24.955  53.010  1.00  0.00     0.030 A 
HETATM   20  C   UNL     1       6.919  23.872  52.815  1.00  0.00     0.010 A 
HETATM   21  C   UNL     1       7.624  23.314  53.893  1.00  0.00    -0.055 A 
HETATM   22  C   UNL     1       7.418  23.845  55.175  1.00  0.00     0.010 A 
HETATM   23  C   UNL     1       6.547  24.919  55.371  1.00  0.00     0.030 A 
BRANCH  21  24
HETATM   24  C   UNL     1       8.581  22.148  53.713  1.00  0.00     0.010 C 
HETATM   25  C   UNL     1       7.898  20.911  53.123  1.00  0.00     0.015 C 
HETATM   26  C   UNL     1       9.280  21.808  55.031  1.00  0.00     0.015 C 
ENDBRANCH  21  24
ENDBRANCH  16  18
ENDBRANCH  13  16
ENDBRANCH   1  13
BRANCH   7  27
HETATM   27  C   UNL     1       6.907  32.233  60.504  1.00  0.00     0.257 C 
HETATM   28  N   UNL     1       5.610  32.129  60.939  1.00  0.00    -0.357 N 
HETATM   29  H   UNL     1       5.007  31.436  60.493  1.00  0.00     0.162 HD
HETATM   30  O   UNL     1       7.724  33.000  61.007  1.00  0.00    -0.267 OA
BRANCH  28  31
HETATM   31  C   UNL     1       5.100  32.875  62.069  1.00  0.00     0.125 C 
BRANCH  31  32
HETATM   32  C   UNL     1       5.450  32.255  63.417  1.00  0.00     0.046 C 
BRANCH  32  33
HETATM   33  C   UNL     1       5.386  33.258  64.562  1.00  0.00     0.168 C 
BRANCH  33  34
HETATM   34  O   UNL     1       4.013  33.452  64.908  1.00  0.00    -0.396 OA
HETATM   35  C   UNL     1       3.775  34.760  65.409  1.00  0.00     0.201 C 
ENDBRANCH  33  34
ENDBRANCH  32  33
ENDBRANCH  31  32
ENDBRANCH  28  31
ENDBRANCH   7  27
TORSDOF 9
ENDMDL
MODEL 4
REMARK VINA RESULT:      -8.9      2.093      3.380
REMARK  9 active torsions:
REMARK  status: ('A' for Active; 'I' for Inactive)
REMARK    1  A    between atoms: C_2  and  C_3 
REMARK    2  A    between atoms: C_6  and  N_7 
REMARK    3  A    between atoms: N_7  and  S_8 
REMARK    4  A    between atoms: S_8  and  C_9 
REMARK    5  A    between atoms: C_15  and  C_16 
REMARK       I    between atoms: C_16  and  N_17 
REMARK    6  A    between atoms: N_17  and  C_18 
REMARK    7  A    between atoms: C_18  and  C_19 
REMARK    8  A    between atoms: C_19  and  C_20 
REMARK    9  A    between atoms: C_20  and  O_21 
ROOT
HETATM    1  C   UNL     1       5.353  28.928  54.474  1.00  0.00     0.081 A 
HETATM    2  C   UNL     1       5.916  29.161  55.732  1.00  0.00     0.043 A 
HETATM    3  C   UNL     1       5.490  30.269  56.469  1.00  0.00     0.043 A 
HETATM    4  C   UNL     1       4.495  31.131  55.973  1.00  0.00     0.046 A 
HETATM    5  N   UNL     1       4.118  32.254  56.716  1.00  0.00    -0.364 N 
HETATM    6  C   UNL     1       4.660  32.495  57.953  1.00  0.00     0.109 A 
HETATM    7  C   UNL     1       5.608  31.749  58.548  1.00  0.00     0.098 A 
HETATM    8  C   UNL     1       6.093  30.555  57.800  1.00  0.00     0.201 A 
HETATM    9  O   UNL     1       6.968  29.820  58.252  1.00  0.00    -0.286 OA
HETATM   10  C   UNL     1       3.942  30.878  54.714  1.00  0.00     0.032 A 
HETATM   11  C   UNL     1       4.361  29.773  53.966  1.00  0.00     0.027 A 
HETATM   12  H   UNL     1       3.319  32.804  56.422  1.00  0.00     0.165 HD
ENDROOT
BRANCH   1  13
HETATM   13  S   UNL     1       5.880  27.506  53.541  1.00  0.00     0.263 S 
HETATM   14  O   UNL     1       6.417  27.972  52.282  1.00  0.00    -0.200 OA
HETATM   15  O   UNL     1       4.797  26.546  53.585  1.00  0.00    -0.200 OA
BRANCH  13  16
HETATM   16  N   UNL     1       7.118  26.874  54.496  1.00  0.00    -0.281 N 
HETATM   17  H   UNL     1       7.871  27.542  54.655  1.00  0.00     0.179 HD
BRANCH  16  18
HETATM   18  C   UNL     1       7.465  25.502  54.366  1.00  0.00     0.042 A 
HETATM   19  C   UNL     1       7.826  24.993  53.121  1.00  0.00     0.030 A 
HETATM   20  C   UNL     1       8.153  23.639  52.991  1.00  0.00     0.010 A 
HETATM   21  C   UNL     1       8.135  22.785  54.105  1.00  0.00    -0.055 A 
HETATM   22  C   UNL     1       7.750  23.313  55.347  1.00  0.00     0.010 A 
HETATM   23  C   UNL     1       7.413  24.662  55.475  1.00  0.00     0.030 A 
BRANCH  21  24
HETATM   24  C   UNL     1       8.499  21.314  53.999  1.00  0.00     0.010 C 
HETATM   25  C   UNL     1       7.964  20.666  52.719  1.00  0.00     0.015 C 
HETATM   26  C   UNL     1       8.030  20.546  55.236  1.00  0.00     0.015 C 
ENDBRANCH  21  24
ENDBRANCH  16  18
ENDBRANCH  13  16
ENDBRANCH   1  13
BRANCH   7  27
HETATM   27  C   UNL     1       6.104  32.168  59.891  1.00  0.00     0.257 C 
HETATM   28  N   UNL     1       6.865  31.238  60.551  1.00  0.00    -0.357 N 
HETATM   29  H   UNL     1       7.069  30.357  60.077  1.00  0.00     0.162 HD
HETATM   30  O   UNL     1       5.845  33.276  60.355  1.00  0.00    -0.267 OA
BRANCH  28  31
HETATM   31  C   UNL     1       7.483  31.498  61.834  1.00  0.00     0.125 C 
BRANCH  31  32
HETATM   32  C   UNL     1       8.726  32.375  61.747  1.00  0.00     0.046 C 
BRANCH  32  33
HETATM   33  C   UNL     1       9.809  31.776  60.857  1.00  0.00     0.168 C 
BRANCH  33  34
HETATM   34  O   UNL     1       9.734  32.407  59.577  1.00  0.00    -0.396 OA
HETATM   35  C   UNL     1      10.121  31.527  58.532  1.00  0.00     0.201 C 
ENDBRANCH  33  34
ENDBRANCH  32  33
ENDBRANCH  31  32
ENDBRANCH  28  31
ENDBRANCH   7  27
TORSDOF 9
ENDMDL
MODEL 5
REMARK VINA RESULT:      -8.8      3.928      7.477
REMARK  9 active torsions:
REMARK  status: ('A' for Active; 'I' for Inactive)
REMARK    1  A    between atoms: C_2  and  C_3 
REMARK    2  A    between atoms: C_6  and  N_7 
REMARK    3  A    between atoms: N_7  and  S_8 
REMARK    4  A    between atoms: S_8  and  C_9 
REMARK    5  A    between atoms: C_15  and  C_16 
REMARK       I    between atoms: C_16  and  N_17 
REMARK    6  A    between atoms: N_17  and  C_18 
REMARK    7  A    between atoms: C_18  and  C_19 
REMARK    8  A    between atoms: C_19  and  C_20 
REMARK    9  A    between atoms: C_20  and  O_21 
ROOT
HETATM    1  C   UNL     1       7.250  32.198  60.950  1.00  0.00     0.081 A 
HETATM    2  C   UNL     1       7.378  32.461  62.317  1.00  0.00     0.043 A 
HETATM    3  C   UNL     1       6.282  32.979  63.012  1.00  0.00     0.043 A 
HETATM    4  C   UNL     1       5.057  33.214  62.361  1.00  0.00     0.046 A 
HETATM    5  N   UNL     1       3.989  33.770  63.074  1.00  0.00    -0.364 N 
HETATM    6  C   UNL     1       4.098  34.033  64.416  1.00  0.00     0.109 A 
HETATM    7  C   UNL     1       5.203  33.847  65.159  1.00  0.00     0.098 A 
HETATM    8  C   UNL     1       6.399  33.295  64.462  1.00  0.00     0.201 A 
HETATM    9  O   UNL     1       7.461  33.104  65.051  1.00  0.00    -0.286 OA
HETATM   10  C   UNL     1       4.949  32.940  60.994  1.00  0.00     0.032 A 
HETATM   11  C   UNL     1       6.039  32.423  60.288  1.00  0.00     0.027 A 
HETATM   12  H   UNL     1       3.073  33.824  62.643  1.00  0.00     0.165 HD
ENDROOT
BRANCH   1  13
HETATM   13  S   UNL     1       8.640  31.520  60.068  1.00  0.00     0.263 S 
HETATM   14  O   UNL     1       8.945  30.227  60.640  1.00  0.00    -0.200 OA
HETATM   15  O   UNL     1       9.642  32.562  59.991  1.00  0.00    -0.200 OA
BRANCH  13  16
HETATM   16  N   UNL     1       8.030  31.329  58.507  1.00  0.00    -0.281 N 
HETATM   17  H   UNL     1       7.337  32.037  58.267  1.00  0.00     0.179 HD
BRANCH  16  18
HETATM   18  C   UNL     1       7.848  30.019  57.987  1.00  0.00     0.042 A 
HETATM   19  C   UNL     1       6.564  29.489  57.876  1.00  0.00     0.030 A 
HETATM   20  C   UNL     1       6.386  28.194  57.378  1.00  0.00     0.010 A 
HETATM   21  C   UNL     1       7.487  27.422  56.976  1.00  0.00    -0.055 A 
HETATM   22  C   UNL     1       8.773  27.966  57.113  1.00  0.00     0.010 A 
HETATM   23  C   UNL     1       8.952  29.255  57.620  1.00  0.00     0.030 A 
BRANCH  21  24
HETATM   24  C   UNL     1       7.326  26.018  56.417  1.00  0.00     0.010 C 
HETATM   25  C   UNL     1       5.910  25.467  56.611  1.00  0.00     0.015 C 
HETATM   26  C   UNL     1       8.367  25.071  57.014  1.00  0.00     0.015 C 
ENDBRANCH  21  24
ENDBRANCH  16  18
ENDBRANCH  13  16
ENDBRANCH   1  13
BRANCH   7  27
HETATM   27  C   UNL     1       5.157  34.208  66.606  1.00  0.00     0.257 C 
HETATM   28  N   UNL     1       6.321  34.719  67.121  1.00  0.00    -0.357 N 
HETATM   29  H   UNL     1       7.111  34.851  66.487  1.00  0.00     0.162 HD
HETATM   30  O   UNL     1       4.137  34.057  67.273  1.00  0.00    -0.267 OA
BRANCH  28  31
HETATM   31  C   UNL     1       6.437  35.182  68.487  1.00  0.00     0.125 C 
BRANCH  31  32
HETATM   32  C   UNL     1       7.174  34.209  69.400  1.00  0.00     0.046 C 
BRANCH  32  33
HETATM   33  C   UNL     1       7.892  34.908  70.549  1.00  0.00     0.168 C 
BRANCH  33  34
HETATM   34  O   UNL     1       8.801  33.976  71.138  1.00  0.00    -0.396 OA
HETATM   35  C   UNL     1       8.140  33.087  72.028  1.00  0.00     0.201 C 
ENDBRANCH  33  34
ENDBRANCH  32  33
ENDBRANCH  31  32
ENDBRANCH  28  31
ENDBRANCH   7  27
TORSDOF 9
ENDMDL
MODEL 6
REMARK VINA RESULT:      -8.6      2.584      3.455
REMARK  9 active torsions:
REMARK  status: ('A' for Active; 'I' for Inactive)
REMARK    1  A    between atoms: C_2  and  C_3 
REMARK    2  A    between atoms: C_6  and  N_7 
REMARK    3  A    between atoms: N_7  and  S_8 
REMARK    4  A    between atoms: S_8  and  C_9 
REMARK    5  A    between atoms: C_15  and  C_16 
REMARK       I    between atoms: C_16  and  N_17 
REMARK    6  A    between atoms: N_17  and  C_18 
REMARK    7  A    between atoms: C_18  and  C_19 
REMARK    8  A    between atoms: C_19  and  C_20 
REMARK    9  A    between atoms: C_20  and  O_21 
ROOT
HETATM    1  C   UNL     1       6.282  28.439  56.580  1.00  0.00     0.081 A 
HETATM    2  C   UNL     1       5.185  29.257  56.867  1.00  0.00     0.043 A 
HETATM    3  C   UNL     1       5.346  30.313  57.768  1.00  0.00     0.043 A 
HETATM    4  C   UNL     1       6.592  30.572  58.366  1.00  0.00     0.046 A 
HETATM    5  N   UNL     1       6.713  31.611  59.295  1.00  0.00    -0.364 N 
HETATM    6  C   UNL     1       5.647  32.423  59.586  1.00  0.00     0.109 A 
HETATM    7  C   UNL     1       4.407  32.294  59.080  1.00  0.00     0.098 A 
HETATM    8  C   UNL     1       4.187  31.182  58.113  1.00  0.00     0.201 A 
HETATM    9  O   UNL     1       3.086  30.972  57.608  1.00  0.00    -0.286 OA
HETATM   10  C   UNL     1       7.678  29.744  58.062  1.00  0.00     0.032 A 
HETATM   11  C   UNL     1       7.529  28.684  57.163  1.00  0.00     0.027 A 
HETATM   12  H   UNL     1       7.631  31.878  59.631  1.00  0.00     0.165 HD
ENDROOT
BRANCH   1  13
HETATM   13  S   UNL     1       6.084  27.106  55.417  1.00  0.00     0.263 S 
HETATM   14  O   UNL     1       5.918  27.682  54.101  1.00  0.00    -0.200 OA
HETATM   15  O   UNL     1       5.096  26.204  55.972  1.00  0.00    -0.200 OA
BRANCH  13  16
HETATM   16  N   UNL     1       7.567  26.308  55.514  1.00  0.00    -0.281 N 
HETATM   17  H   UNL     1       8.351  26.904  55.253  1.00  0.00     0.179 HD
BRANCH  16  18
HETATM   18  C   UNL     1       7.638  24.930  55.172  1.00  0.00     0.042 A 
HETATM   19  C   UNL     1       7.548  24.541  53.838  1.00  0.00     0.030 A 
HETATM   20  C   UNL     1       7.603  23.184  53.503  1.00  0.00     0.010 A 
HETATM   21  C   UNL     1       7.762  22.205  54.496  1.00  0.00    -0.055 A 
HETATM   22  C   UNL     1       7.833  22.616  55.836  1.00  0.00     0.010 A 
HETATM   23  C   UNL     1       7.766  23.970  56.172  1.00  0.00     0.030 A 
BRANCH  21  24
HETATM   24  C   UNL     1       7.842  20.725  54.164  1.00  0.00     0.010 C 
HETATM   25  C   UNL     1       8.659  19.935  55.191  1.00  0.00     0.015 C 
HETATM   26  C   UNL     1       8.389  20.511  52.752  1.00  0.00     0.015 C 
ENDBRANCH  21  24
ENDBRANCH  16  18
ENDBRANCH  13  16
ENDBRANCH   1  13
BRANCH   7  27
HETATM   27  C   UNL     1       3.354  33.253  59.523  1.00  0.00     0.257 C 
HETATM   28  N   UNL     1       3.171  33.338  60.880  1.00  0.00    -0.357 N 
HETATM   29  H   UNL     1       3.778  32.782  61.484  1.00  0.00     0.162 HD
HETATM   30  O   UNL     1       2.710  33.918  58.716  1.00  0.00    -0.267 OA
BRANCH  28  31
HETATM   31  C   UNL     1       2.239  34.263  61.489  1.00  0.00     0.125 C 
BRANCH  31  32
HETATM   32  C   UNL     1       2.790  34.956  62.730  1.00  0.00     0.046 C 
BRANCH  32  33
HETATM   33  C   UNL     1       4.053  34.292  63.265  1.00  0.00     0.168 C 
BRANCH  33  34
HETATM   34  O   UNL     1       5.177  34.868  62.596  1.00  0.00    -0.396 OA
HETATM   35  C   UNL     1       6.348  34.081  62.760  1.00  0.00     0.201 C 
ENDBRANCH  33  34
ENDBRANCH  32  33
ENDBRANCH  31  32
ENDBRANCH  28  31
ENDBRANCH   7  27
TORSDOF 9
ENDMDL
MODEL 7
REMARK VINA RESULT:      -8.5      3.571     11.494
REMARK  9 active torsions:
REMARK  status: ('A' for Active; 'I' for Inactive)
REMARK    1  A    between atoms: C_2  and  C_3 
REMARK    2  A    between atoms: C_6  and  N_7 
REMARK    3  A    between atoms: N_7  and  S_8 
REMARK    4  A    between atoms: S_8  and  C_9 
REMARK    5  A    between atoms: C_15  and  C_16 
REMARK       I    between atoms: C_16  and  N_17 
REMARK    6  A    between atoms: N_17  and  C_18 
REMARK    7  A    between atoms: C_18  and  C_19 
REMARK    8  A    between atoms: C_19  and  C_20 
REMARK    9  A    between atoms: C_20  and  O_21 
ROOT
HETATM    1  C   UNL     1       6.428  33.012  61.810  1.00  0.00     0.081 A 
HETATM    2  C   UNL     1       6.118  32.447  60.571  1.00  0.00     0.043 A 
HETATM    3  C   UNL     1       7.076  31.662  59.925  1.00  0.00     0.043 A 
HETATM    4  C   UNL     1       8.331  31.419  60.515  1.00  0.00     0.046 A 
HETATM    5  N   UNL     1       9.285  30.663  59.827  1.00  0.00    -0.364 N 
HETATM    6  C   UNL     1       8.995  30.099  58.610  1.00  0.00     0.109 A 
HETATM    7  C   UNL     1       7.836  30.241  57.942  1.00  0.00     0.098 A 
HETATM    8  C   UNL     1       6.781  31.070  58.591  1.00  0.00     0.201 A 
HETATM    9  O   UNL     1       5.695  31.272  58.053  1.00  0.00    -0.286 OA
HETATM   10  C   UNL     1       8.620  31.992  61.757  1.00  0.00     0.032 A 
HETATM   11  C   UNL     1       7.669  32.780  62.412  1.00  0.00     0.027 A 
HETATM   12  H   UNL     1      10.138  30.383  60.299  1.00  0.00     0.165 HD
ENDROOT
BRANCH   1  13
HETATM   13  S   UNL     1       5.201  33.997  62.643  1.00  0.00     0.263 S 
HETATM   14  O   UNL     1       4.018  34.033  61.812  1.00  0.00    -0.200 OA
HETATM   15  O   UNL     1       5.855  35.216  63.070  1.00  0.00    -0.200 OA
BRANCH  13  16
HETATM   16  N   UNL     1       4.895  33.104  64.040  1.00  0.00    -0.281 N 
HETATM   17  H   UNL     1       4.008  32.604  64.000  1.00  0.00     0.179 HD
BRANCH  16  18
HETATM   18  C   UNL     1       5.311  33.617  65.299  1.00  0.00     0.042 A 
HETATM   19  C   UNL     1       4.366  34.120  66.189  1.00  0.00     0.030 A 
HETATM   20  C   UNL     1       4.776  34.639  67.421  1.00  0.00     0.010 A 
HETATM   21  C   UNL     1       6.134  34.648  67.780  1.00  0.00    -0.055 A 
HETATM   22  C   UNL     1       7.072  34.154  66.862  1.00  0.00     0.010 A 
HETATM   23  C   UNL     1       6.664  33.646  65.627  1.00  0.00     0.030 A 
BRANCH  21  24
HETATM   24  C   UNL     1       6.611  35.190  69.117  1.00  0.00     0.010 C 
HETATM   25  C   UNL     1       8.103  34.940  69.354  1.00  0.00     0.015 C 
HETATM   26  C   UNL     1       5.775  34.623  70.265  1.00  0.00     0.015 C 
ENDBRANCH  21  24
ENDBRANCH  16  18
ENDBRANCH  13  16
ENDBRANCH   1  13
BRANCH   7  27
HETATM   27  C   UNL     1       7.695  29.577  56.614  1.00  0.00     0.257 C 
HETATM   28  N   UNL     1       6.427  29.158  56.299  1.00  0.00    -0.357 N 
HETATM   29  H   UNL     1       5.675  29.358  56.961  1.00  0.00     0.162 HD
HETATM   30  O   UNL     1       8.657  29.428  55.865  1.00  0.00    -0.267 OA
BRANCH  28  31
HETATM   31  C   UNL     1       6.094  28.553  55.028  1.00  0.00     0.125 C 
BRANCH  31  32
HETATM   32  C   UNL     1       5.337  27.237  55.158  1.00  0.00     0.046 C 
BRANCH  32  33
HETATM   33  C   UNL     1       5.802  26.404  56.346  1.00  0.00     0.168 C 
BRANCH  33  34
HETATM   34  O   UNL     1       7.204  26.166  56.201  1.00  0.00    -0.396 OA
HETATM   35  C   UNL     1       7.824  25.895  57.451  1.00  0.00     0.201 C 
ENDBRANCH  33  34
ENDBRANCH  32  33
ENDBRANCH  31  32
ENDBRANCH  28  31
ENDBRANCH   7  27
TORSDOF 9
ENDMDL
MODEL 8
REMARK VINA RESULT:      -8.3      4.649     11.761
REMARK  9 active torsions:
REMARK  status: ('A' for Active; 'I' for Inactive)
REMARK    1  A    between atoms: C_2  and  C_3 
REMARK    2  A    between atoms: C_6  and  N_7 
REMARK    3  A    between atoms: N_7  and  S_8 
REMARK    4  A    between atoms: S_8  and  C_9 
REMARK    5  A    between atoms: C_15  and  C_16 
REMARK       I    between atoms: C_16  and  N_17 
REMARK    6  A    between atoms: N_17  and  C_18 
REMARK    7  A    between atoms: C_18  and  C_19 
REMARK    8  A    between atoms: C_19  and  C_20 
REMARK    9  A    between atoms: C_20  and  O_21 
ROOT
HETATM    1  C   UNL     1       5.738  33.691  64.409  1.00  0.00     0.081 A 
HETATM    2  C   UNL     1       5.335  33.360  63.112  1.00  0.00     0.043 A 
HETATM    3  C   UNL     1       6.274  32.825  62.227  1.00  0.00     0.043 A 
HETATM    4  C   UNL     1       7.602  32.596  62.631  1.00  0.00     0.046 A 
HETATM    5  N   UNL     1       8.530  32.096  61.711  1.00  0.00    -0.364 N 
HETATM    6  C   UNL     1       8.149  31.765  60.435  1.00  0.00     0.109 A 
HETATM    7  C   UNL     1       6.915  31.921  59.925  1.00  0.00     0.098 A 
HETATM    8  C   UNL     1       5.878  32.489  60.832  1.00  0.00     0.201 A 
HETATM    9  O   UNL     1       4.725  32.685  60.454  1.00  0.00    -0.286 OA
HETATM   10  C   UNL     1       7.984  32.931  63.933  1.00  0.00     0.032 A 
HETATM   11  C   UNL     1       7.054  33.469  64.828  1.00  0.00     0.027 A 
HETATM   12  H   UNL     1       9.450  31.815  62.030  1.00  0.00     0.165 HD
ENDROOT
BRANCH   1  13
HETATM   13  S   UNL     1       4.539  34.356  65.544  1.00  0.00     0.263 S 
HETATM   14  O   UNL     1       4.880  33.899  66.872  1.00  0.00    -0.200 OA
HETATM   15  O   UNL     1       3.232  34.102  64.975  1.00  0.00    -0.200 OA
BRANCH  13  16
HETATM   16  N   UNL     1       4.796  36.019  65.424  1.00  0.00    -0.281 N 
HETATM   17  H   UNL     1       4.378  36.537  66.195  1.00  0.00     0.179 HD
BRANCH  16  18
HETATM   18  C   UNL     1       4.806  36.630  64.141  1.00  0.00     0.042 A 
HETATM   19  C   UNL     1       3.619  36.752  63.422  1.00  0.00     0.030 A 
HETATM   20  C   UNL     1       3.630  37.340  62.153  1.00  0.00     0.010 A 
HETATM   21  C   UNL     1       4.825  37.823  61.596  1.00  0.00    -0.055 A 
HETATM   22  C   UNL     1       6.013  37.674  62.328  1.00  0.00     0.010 A 
HETATM   23  C   UNL     1       6.004  37.077  63.590  1.00  0.00     0.030 A 
BRANCH  21  24
HETATM   24  C   UNL     1       4.868  38.481  60.228  1.00  0.00     0.010 C 
HETATM   25  C   UNL     1       6.065  39.424  60.067  1.00  0.00     0.015 C 
HETATM   26  C   UNL     1       3.557  39.210  59.932  1.00  0.00     0.015 C 
ENDBRANCH  21  24
ENDBRANCH  16  18
ENDBRANCH  13  16
ENDBRANCH   1  13
BRANCH   7  27
HETATM   27  C   UNL     1       6.677  31.529  58.505  1.00  0.00     0.257 C 
HETATM   28  N   UNL     1       7.101  30.270  58.166  1.00  0.00    -0.357 N 
HETATM   29  H   UNL     1       7.506  29.683  58.898  1.00  0.00     0.162 HD
HETATM   30  O   UNL     1       6.134  32.292  57.711  1.00  0.00    -0.267 OA
BRANCH  28  31
HETATM   31  C   UNL     1       6.893  29.700  56.851  1.00  0.00     0.125 C 
BRANCH  31  32
HETATM   32  C   UNL     1       7.669  28.409  56.616  1.00  0.00     0.046 C 
BRANCH  32  33
HETATM   33  C   UNL     1       9.132  28.517  57.029  1.00  0.00     0.168 C 
BRANCH  33  34
HETATM   34  O   UNL     1       9.651  29.745  56.513  1.00  0.00    -0.396 OA
HETATM   35  C   UNL     1      10.743  30.222  57.287  1.00  0.00     0.201 C 
ENDBRANCH  33  34
ENDBRANCH  32  33
ENDBRANCH  31  32
ENDBRANCH  28  31
ENDBRANCH   7  27
TORSDOF 9
ENDMDL
MODEL 9
REMARK VINA RESULT:      -8.3      4.694      9.256
REMARK  9 active torsions:
REMARK  status: ('A' for Active; 'I' for Inactive)
REMARK    1  A    between atoms: C_2  and  C_3 
REMARK    2  A    between atoms: C_6  and  N_7 
REMARK    3  A    between atoms: N_7  and  S_8 
REMARK    4  A    between atoms: S_8  and  C_9 
REMARK    5  A    between atoms: C_15  and  C_16 
REMARK       I    between atoms: C_16  and  N_17 
REMARK    6  A    between atoms: N_17  and  C_18 
REMARK    7  A    between atoms: C_18  and  C_19 
REMARK    8  A    between atoms: C_19  and  C_20 
REMARK    9  A    between atoms: C_20  and  O_21 
ROOT
HETATM    1  C   UNL     1       5.187  28.005  55.099  1.00  0.00     0.081 A 
HETATM    2  C   UNL     1       5.121  27.645  53.750  1.00  0.00     0.043 A 
HETATM    3  C   UNL     1       4.346  28.417  52.881  1.00  0.00     0.043 A 
HETATM    4  C   UNL     1       3.658  29.555  53.340  1.00  0.00     0.046 A 
HETATM    5  N   UNL     1       2.858  30.285  52.455  1.00  0.00    -0.364 N 
HETATM    6  C   UNL     1       2.784  29.946  51.128  1.00  0.00     0.109 A 
HETATM    7  C   UNL     1       3.398  28.894  50.557  1.00  0.00     0.098 A 
HETATM    8  C   UNL     1       4.237  28.041  51.445  1.00  0.00     0.201 A 
HETATM    9  O   UNL     1       4.824  27.048  51.021  1.00  0.00    -0.286 OA
HETATM   10  C   UNL     1       3.740  29.899  54.693  1.00  0.00     0.032 A 
HETATM   11  C   UNL     1       4.511  29.133  55.573  1.00  0.00     0.027 A 
HETATM   12  H   UNL     1       2.463  31.171  52.752  1.00  0.00     0.165 HD
ENDROOT
BRANCH   1  13
HETATM   13  S   UNL     1       6.189  27.033  56.205  1.00  0.00     0.263 S 
HETATM   14  O   UNL     1       5.384  25.932  56.686  1.00  0.00    -0.200 OA
HETATM   15  O   UNL     1       6.823  27.956  57.122  1.00  0.00    -0.200 OA
BRANCH  13  16
HETATM   16  N   UNL     1       7.406  26.455  55.190  1.00  0.00    -0.281 N 
HETATM   17  H   UNL     1       7.595  27.080  54.408  1.00  0.00     0.179 HD
BRANCH  16  18
HETATM   18  C   UNL     1       7.517  25.057  54.964  1.00  0.00     0.042 A 
HETATM   19  C   UNL     1       8.118  24.245  55.923  1.00  0.00     0.030 A 
HETATM   20  C   UNL     1       8.240  22.870  55.694  1.00  0.00     0.010 A 
HETATM   21  C   UNL     1       7.752  22.293  54.511  1.00  0.00    -0.055 A 
HETATM   22  C   UNL     1       7.167  23.130  53.549  1.00  0.00     0.010 A 
HETATM   23  C   UNL     1       7.055  24.504  53.773  1.00  0.00     0.030 A 
BRANCH  21  24
HETATM   24  C   UNL     1       7.856  20.802  54.239  1.00  0.00     0.010 C 
HETATM   25  C   UNL     1       8.666  20.064  55.309  1.00  0.00     0.015 C 
HETATM   26  C   UNL     1       8.428  20.540  52.846  1.00  0.00     0.015 C 
ENDBRANCH  21  24
ENDBRANCH  16  18
ENDBRANCH  13  16
ENDBRANCH   1  13
BRANCH   7  27
HETATM   27  C   UNL     1       3.191  28.656  49.100  1.00  0.00     0.257 C 
HETATM   28  N   UNL     1       3.256  29.773  48.307  1.00  0.00    -0.357 N 
HETATM   29  H   UNL     1       3.474  30.667  48.751  1.00  0.00     0.162 HD
HETATM   30  O   UNL     1       2.983  27.529  48.656  1.00  0.00    -0.267 OA
BRANCH  28  31
HETATM   31  C   UNL     1       3.143  29.720  46.865  1.00  0.00     0.125 C 
BRANCH  31  32
HETATM   32  C   UNL     1       2.033  30.602  46.307  1.00  0.00     0.046 C 
BRANCH  32  33
HETATM   33  C   UNL     1       0.687  29.890  46.247  1.00  0.00     0.168 C 
BRANCH  33  34
HETATM   34  O   UNL     1       0.918  28.488  46.403  1.00  0.00    -0.396 OA
HETATM   35  C   UNL     1      -0.198  27.719  45.975  1.00  0.00     0.201 C 
ENDBRANCH  33  34
ENDBRANCH  32  33
ENDBRANCH  31  32
ENDBRANCH  28  31
ENDBRANCH   7  27
TORSDOF 9
ENDMDL
MODEL 10
REMARK VINA RESULT:      -8.3      2.249      4.139
REMARK  9 active torsions:
REMARK  status: ('A' for Active; 'I' for Inactive)
REMARK    1  A    between atoms: C_2  and  C_3 
REMARK    2  A    between atoms: C_6  and  N_7 
REMARK    3  A    between atoms: N_7  and  S_8 
REMARK    4  A    between atoms: S_8  and  C_9 
REMARK    5  A    between atoms: C_15  and  C_16 
REMARK       I    between atoms: C_16  and  N_17 
REMARK    6  A    between atoms: N_17  and  C_18 
REMARK    7  A    between atoms: C_18  and  C_19 
REMARK    8  A    between atoms: C_19  and  C_20 
REMARK    9  A    between atoms: C_20  and  O_21 
ROOT
HETATM    1  C   UNL     1       7.166  30.426  58.032  1.00  0.00     0.081 A 
HETATM    2  C   UNL     1       6.537  31.168  59.037  1.00  0.00     0.043 A 
HETATM    3  C   UNL     1       7.273  31.538  60.165  1.00  0.00     0.043 A 
HETATM    4  C   UNL     1       8.632  31.195  60.290  1.00  0.00     0.046 A 
HETATM    5  N   UNL     1       9.331  31.545  61.449  1.00  0.00    -0.364 N 
HETATM    6  C   UNL     1       8.729  32.274  62.443  1.00  0.00     0.109 A 
HETATM    7  C   UNL     1       7.446  32.675  62.447  1.00  0.00     0.098 A 
HETATM    8  C   UNL     1       6.620  32.305  61.262  1.00  0.00     0.201 A 
HETATM    9  O   UNL     1       5.433  32.610  61.180  1.00  0.00    -0.286 OA
HETATM   10  C   UNL     1       9.242  30.456  59.272  1.00  0.00     0.032 A 
HETATM   11  C   UNL     1       8.516  30.079  58.138  1.00  0.00     0.027 A 
HETATM   12  H   UNL     1      10.336  31.410  61.488  1.00  0.00     0.165 HD
ENDROOT
BRANCH   1  13
HETATM   13  S   UNL     1       6.236  29.970  56.585  1.00  0.00     0.263 S 
HETATM   14  O   UNL     1       5.642  31.170  56.038  1.00  0.00    -0.200 OA
HETATM   15  O   UNL     1       5.422  28.829  56.947  1.00  0.00    -0.200 OA
BRANCH  13  16
HETATM   16  N   UNL     1       7.430  29.393  55.543  1.00  0.00    -0.281 N 
HETATM   17  H   UNL     1       7.672  30.063  54.814  1.00  0.00     0.179 HD
BRANCH  16  18
HETATM   18  C   UNL     1       7.454  28.012  55.210  1.00  0.00     0.042 A 
HETATM   19  C   UNL     1       7.221  27.611  53.897  1.00  0.00     0.030 A 
HETATM   20  C   UNL     1       7.229  26.251  53.572  1.00  0.00     0.010 A 
HETATM   21  C   UNL     1       7.485  25.280  54.553  1.00  0.00    -0.055 A 
HETATM   22  C   UNL     1       7.700  25.702  55.874  1.00  0.00     0.010 A 
HETATM   23  C   UNL     1       7.680  27.060  56.201  1.00  0.00     0.030 A 
BRANCH  21  24
HETATM   24  C   UNL     1       7.517  23.796  54.230  1.00  0.00     0.010 C 
HETATM   25  C   UNL     1       8.512  23.025  55.104  1.00  0.00     0.015 C 
HETATM   26  C   UNL     1       7.807  23.567  52.745  1.00  0.00     0.015 C 
ENDBRANCH  21  24
ENDBRANCH  16  18
ENDBRANCH  13  16
ENDBRANCH   1  13
BRANCH   7  27
HETATM   27  C   UNL     1       6.944  33.444  63.623  1.00  0.00     0.257 C 
HETATM   28  N   UNL     1       6.136  34.511  63.325  1.00  0.00    -0.357 N 
HETATM   29  H   UNL     1       5.906  34.683  62.344  1.00  0.00     0.162 HD
HETATM   30  O   UNL     1       7.239  33.125  64.772  1.00  0.00    -0.267 OA
BRANCH  28  31
HETATM   31  C   UNL     1       5.509  35.328  64.342  1.00  0.00     0.125 C 
BRANCH  31  32
HETATM   32  C   UNL     1       3.989  35.375  64.235  1.00  0.00     0.046 C 
BRANCH  32  33
HETATM   33  C   UNL     1       3.508  36.168  63.025  1.00  0.00     0.168 C 
BRANCH  33  34
HETATM   34  O   UNL     1       3.397  35.270  61.920  1.00  0.00    -0.396 OA
HETATM   35  C   UNL     1       2.431  34.256  62.160  1.00  0.00     0.201 C 
ENDBRANCH  33  34
ENDBRANCH  32  33
ENDBRANCH  31  32
ENDBRANCH  28  31
ENDBRANCH   7  27
TORSDOF 9
ENDMDL
