MODEL 1
REMARK VINA RESULT:      -9.9      0.000      0.000
REMARK  3 active torsions:
REMARK  status: ('A' for Active; 'I' for Inactive)
REMARK    1  A    between atoms: C_2  and  C_3 
REMARK    2  A    between atoms: C_3  and  C_4 
REMARK    3  A    between atoms: C_8  and  C_9 
REMARK       I    between atoms: C_9  and  N_10 
ROOT
HETATM    1  C   UNL     1       9.449  30.929  58.476  1.00  0.00     0.271 C 
HETATM    2  N   UNL     1       8.745  29.910  57.819  1.00  0.00    -0.347 N 
HETATM    3  C   UNL     1       7.415  29.433  58.195  1.00  0.00     0.128 C 
HETATM    4  C   UNL     1       6.557  29.074  56.989  1.00  0.00     0.055 C 
HETATM    5  C   UNL     1       7.272  28.142  56.001  1.00  0.00     0.100 C 
HETATM    6  N   UNL     1       7.446  26.807  56.635  1.00  0.00    -0.273 NA
HETATM    7  C   UNL     1       7.702  25.747  55.749  1.00  0.00     0.036 A 
HETATM    8  C   UNL     1       7.257  25.783  54.415  1.00  0.00     0.056 A 
HETATM    9  N   UNL     1       6.601  26.920  53.935  1.00  0.00    -0.324 N 
HETATM   10  C   UNL     1       6.428  28.049  54.697  1.00  0.00     0.245 C 
HETATM   11  O   UNL     1       5.726  28.969  54.272  1.00  0.00    -0.271 OA
HETATM   12  C   UNL     1       8.271  24.563  56.229  1.00  0.00     0.026 A 
HETATM   13  C   UNL     1       8.459  23.468  55.381  1.00  0.00     0.002 A 
HETATM   14  C   UNL     1       8.045  23.532  54.051  1.00  0.00     0.002 A 
HETATM   15  C   UNL     1       7.431  24.687  53.568  1.00  0.00     0.031 A 
HETATM   16  C   UNL     1       8.636  28.750  55.625  1.00  0.00     0.055 C 
HETATM   17  C   UNL     1       9.474  29.106  56.844  1.00  0.00     0.128 C 
HETATM   18  O   UNL     1      10.493  31.379  58.006  1.00  0.00    -0.266 OA
HETATM   19  H   UNL     1       8.073  26.794  57.434  1.00  0.00     0.129 HD
HETATM   20  H   UNL     1       6.138  26.905  53.038  1.00  0.00     0.169 HD
ENDROOT
BRANCH   1  21
HETATM   21  C   UNL     1       8.936  31.470  59.710  1.00  0.00     0.119 A 
HETATM   22  N   UNL     1       8.082  32.541  59.718  1.00  0.00    -0.273 N 
HETATM   23  N   UNL     1       7.663  32.902  60.943  1.00  0.00    -0.179 NA
HETATM   24  H   UNL     1       7.734  33.047  58.910  1.00  0.00     0.189 HD
HETATM   25  C   UNL     1       8.332  32.085  61.763  1.00  0.00     0.057 A 
HETATM   26  C   UNL     1       9.176  31.208  61.045  1.00  0.00     0.065 A 
BRANCH  25  27
HETATM   27  C   UNL     1       8.143  32.158  63.244  1.00  0.00     0.065 C 
BRANCH  27  28
HETATM   28  C   UNL     1       7.073  33.186  63.660  1.00  0.00    -0.017 C 
HETATM   29  C   UNL     1       7.362  33.779  65.042  1.00  0.00     0.010 C 
HETATM   30  C   UNL     1       5.689  32.537  63.652  1.00  0.00     0.010 C 
ENDBRANCH  27  28
ENDBRANCH  25  27
ENDBRANCH   1  21
TORSDOF 3
ENDMDL
MODEL 2
REMARK VINA RESULT:      -9.0      1.443      1.582
REMARK  3 active torsions:
REMARK  status: ('A' for Active; 'I' for Inactive)
REMARK    1  A    between atoms: C_2  and  C_3 
REMARK    2  A    between atoms: C_3  and  C_4 
REMARK    3  A    between atoms: C_8  and  C_9 
REMARK       I    between atoms: C_9  and  N_10 
ROOT
HETATM    1  C   UNL     1       8.545  30.736  58.448  1.00  0.00     0.271 C 
HETATM    2  N   UNL     1       7.981  29.762  57.614  1.00  0.00    -0.347 N 
HETATM    3  C   UNL     1       6.627  29.226  57.747  1.00  0.00     0.128 C 
HETATM    4  C   UNL     1       5.968  28.951  56.401  1.00  0.00     0.055 C 
HETATM    5  C   UNL     1       6.853  28.122  55.460  1.00  0.00     0.100 C 
HETATM    6  N   UNL     1       6.977  26.742  56.004  1.00  0.00    -0.273 NA
HETATM    7  C   UNL     1       7.396  25.766  55.084  1.00  0.00     0.036 A 
HETATM    8  C   UNL     1       7.152  25.904  53.707  1.00  0.00     0.056 A 
HETATM    9  N   UNL     1       6.535  27.064  53.226  1.00  0.00    -0.324 N 
HETATM   10  C   UNL     1       6.214  28.121  54.041  1.00  0.00     0.245 C 
HETATM   11  O   UNL     1       5.551  29.057  53.591  1.00  0.00    -0.271 OA
HETATM   12  C   UNL     1       7.928  24.559  55.548  1.00  0.00     0.026 A 
HETATM   13  C   UNL     1       8.276  23.543  54.653  1.00  0.00     0.002 A 
HETATM   14  C   UNL     1       8.060  23.710  53.285  1.00  0.00     0.002 A 
HETATM   15  C   UNL     1       7.485  24.888  52.810  1.00  0.00     0.031 A 
HETATM   16  C   UNL     1       8.236  28.788  55.342  1.00  0.00     0.055 C 
HETATM   17  C   UNL     1       8.873  29.058  56.698  1.00  0.00     0.128 C 
HETATM   18  O   UNL     1       9.632  31.247  58.177  1.00  0.00    -0.266 OA
HETATM   19  H   UNL     1       7.479  26.676  56.884  1.00  0.00     0.129 HD
HETATM   20  H   UNL     1       6.210  27.114  52.271  1.00  0.00     0.169 HD
ENDROOT
BRANCH   1  21
HETATM   21  C   UNL     1       7.838  31.161  59.631  1.00  0.00     0.119 A 
HETATM   22  N   UNL     1       8.124  30.632  60.861  1.00  0.00    -0.273 N 
HETATM   23  N   UNL     1       7.406  31.158  61.868  1.00  0.00    -0.179 NA
HETATM   24  H   UNL     1       8.822  29.924  61.071  1.00  0.00     0.189 HD
HETATM   25  C   UNL     1       6.569  32.001  61.256  1.00  0.00     0.057 A 
HETATM   26  C   UNL     1       6.765  32.002  59.857  1.00  0.00     0.065 A 
BRANCH  25  27
HETATM   27  C   UNL     1       5.584  32.809  62.037  1.00  0.00     0.065 C 
BRANCH  27  28
HETATM   28  C   UNL     1       5.733  34.325  61.800  1.00  0.00    -0.017 C 
HETATM   29  C   UNL     1       6.006  35.080  63.104  1.00  0.00     0.010 C 
HETATM   30  C   UNL     1       4.473  34.879  61.134  1.00  0.00     0.010 C 
ENDBRANCH  27  28
ENDBRANCH  25  27
ENDBRANCH   1  21
TORSDOF 3
ENDMDL
MODEL 3
REMARK VINA RESULT:      -8.9      1.527      8.824
REMARK  3 active torsions:
REMARK  status: ('A' for Active; 'I' for Inactive)
REMARK    1  A    between atoms: C_2  and  C_3 
REMARK    2  A    between atoms: C_3  and  C_4 
REMARK    3  A    between atoms: C_8  and  C_9 
REMARK       I    between atoms: C_9  and  N_10 
ROOT
HETATM    1  C   UNL     1       5.914  28.535  55.726  1.00  0.00     0.271 C 
HETATM    2  N   UNL     1       6.747  28.988  56.758  1.00  0.00    -0.347 N 
HETATM    3  C   UNL     1       7.888  28.252  57.298  1.00  0.00     0.128 C 
HETATM    4  C   UNL     1       9.055  29.160  57.665  1.00  0.00     0.055 C 
HETATM    5  C   UNL     1       8.635  30.347  58.543  1.00  0.00     0.100 C 
HETATM    6  N   UNL     1       8.236  29.839  59.884  1.00  0.00    -0.273 NA
HETATM    7  C   UNL     1       8.221  30.797  60.913  1.00  0.00     0.036 A 
HETATM    8  C   UNL     1       9.044  31.936  60.865  1.00  0.00     0.056 A 
HETATM    9  N   UNL     1       9.851  32.161  59.745  1.00  0.00    -0.324 N 
HETATM   10  C   UNL     1       9.826  31.344  58.641  1.00  0.00     0.245 C 
HETATM   11  O   UNL     1      10.653  31.509  57.743  1.00  0.00    -0.271 OA
HETATM   12  C   UNL     1       7.496  30.548  62.081  1.00  0.00     0.026 A 
HETATM   13  C   UNL     1       7.533  31.450  63.148  1.00  0.00     0.002 A 
HETATM   14  C   UNL     1       8.327  32.595  63.072  1.00  0.00     0.002 A 
HETATM   15  C   UNL     1       9.094  32.834  61.932  1.00  0.00     0.031 A 
HETATM   16  C   UNL     1       7.467  31.090  57.871  1.00  0.00     0.055 C 
HETATM   17  C   UNL     1       6.315  30.163  57.508  1.00  0.00     0.128 C 
HETATM   18  O   UNL     1       5.072  29.278  55.221  1.00  0.00    -0.266 OA
HETATM   19  H   UNL     1       7.400  29.263  59.889  1.00  0.00     0.129 HD
HETATM   20  H   UNL     1      10.559  32.880  59.759  1.00  0.00     0.169 HD
ENDROOT
BRANCH   1  21
HETATM   21  C   UNL     1       6.053  27.187  55.235  1.00  0.00     0.119 A 
HETATM   22  N   UNL     1       5.199  26.192  55.629  1.00  0.00    -0.273 N 
HETATM   23  N   UNL     1       5.437  25.001  55.055  1.00  0.00    -0.179 NA
HETATM   24  H   UNL     1       4.419  26.281  56.274  1.00  0.00     0.189 HD
HETATM   25  C   UNL     1       6.533  25.214  54.321  1.00  0.00     0.057 A 
HETATM   26  C   UNL     1       6.985  26.548  54.439  1.00  0.00     0.065 A 
BRANCH  25  27
HETATM   27  C   UNL     1       7.136  24.118  53.501  1.00  0.00     0.065 C 
BRANCH  27  28
HETATM   28  C   UNL     1       7.560  22.903  54.349  1.00  0.00    -0.017 C 
HETATM   29  C   UNL     1       8.710  23.246  55.300  1.00  0.00     0.010 C 
HETATM   30  C   UNL     1       7.967  21.744  53.438  1.00  0.00     0.010 C 
ENDBRANCH  27  28
ENDBRANCH  25  27
ENDBRANCH   1  21
TORSDOF 3
ENDMDL
MODEL 4
REMARK VINA RESULT:      -8.9      3.500      5.563
REMARK  3 active torsions:
REMARK  status: ('A' for Active; 'I' for Inactive)
REMARK    1  A    between atoms: C_2  and  C_3 
REMARK    2  A    between atoms: C_3  and  C_4 
REMARK    3  A    between atoms: C_8  and  C_9 
REMARK       I    between atoms: C_9  and  N_10 
ROOT
HETATM    1  C   UNL     1       5.147  29.079  56.278  1.00  0.00     0.271 C 
HETATM    2  N   UNL     1       5.345  28.550  54.995  1.00  0.00    -0.347 N 
HETATM    3  C   UNL     1       6.606  28.002  54.500  1.00  0.00     0.128 C 
HETATM    4  C   UNL     1       6.407  26.794  53.593  1.00  0.00     0.055 C 
HETATM    5  C   UNL     1       5.382  27.045  52.479  1.00  0.00     0.100 C 
HETATM    6  N   UNL     1       5.944  28.033  51.518  1.00  0.00    -0.273 NA
HETATM    7  C   UNL     1       5.329  28.065  50.255  1.00  0.00     0.036 A 
HETATM    8  C   UNL     1       4.686  26.932  49.724  1.00  0.00     0.056 A 
HETATM    9  N   UNL     1       4.598  25.765  50.489  1.00  0.00    -0.324 N 
HETATM   10  C   UNL     1       5.056  25.692  51.781  1.00  0.00     0.245 C 
HETATM   11  O   UNL     1       5.077  24.605  52.360  1.00  0.00    -0.271 OA
HETATM   12  C   UNL     1       5.485  29.186  49.435  1.00  0.00     0.026 A 
HETATM   13  C   UNL     1       4.950  29.205  48.144  1.00  0.00     0.002 A 
HETATM   14  C   UNL     1       4.284  28.087  47.645  1.00  0.00     0.002 A 
HETATM   15  C   UNL     1       4.161  26.942  48.432  1.00  0.00     0.031 A 
HETATM   16  C   UNL     1       4.074  27.570  53.098  1.00  0.00     0.055 C 
HETATM   17  C   UNL     1       4.297  28.773  54.004  1.00  0.00     0.128 C 
HETATM   18  O   UNL     1       4.020  29.377  56.672  1.00  0.00    -0.266 OA
HETATM   19  H   UNL     1       6.081  28.965  51.898  1.00  0.00     0.129 HD
HETATM   20  H   UNL     1       4.284  24.900  50.072  1.00  0.00     0.169 HD
ENDROOT
BRANCH   1  21
HETATM   21  C   UNL     1       6.276  29.261  57.157  1.00  0.00     0.119 A 
HETATM   22  N   UNL     1       6.962  28.192  57.667  1.00  0.00    -0.273 N 
HETATM   23  N   UNL     1       8.011  28.526  58.438  1.00  0.00    -0.179 NA
HETATM   24  H   UNL     1       6.769  27.209  57.498  1.00  0.00     0.189 HD
HETATM   25  C   UNL     1       7.953  29.861  58.493  1.00  0.00     0.057 A 
HETATM   26  C   UNL     1       6.860  30.363  57.752  1.00  0.00     0.065 A 
BRANCH  25  27
HETATM   27  C   UNL     1       8.967  30.643  59.263  1.00  0.00     0.065 C 
BRANCH  27  28
HETATM   28  C   UNL     1       8.482  31.023  60.676  1.00  0.00    -0.017 C 
HETATM   29  C   UNL     1       8.375  32.540  60.852  1.00  0.00     0.010 C 
HETATM   30  C   UNL     1       9.426  30.443  61.730  1.00  0.00     0.010 C 
ENDBRANCH  27  28
ENDBRANCH  25  27
ENDBRANCH   1  21
TORSDOF 3
ENDMDL
MODEL 5
REMARK VINA RESULT:      -8.7      6.321      8.627
REMARK  3 active torsions:
REMARK  status: ('A' for Active; 'I' for Inactive)
REMARK    1  A    between atoms: C_2  and  C_3 
REMARK    2  A    between atoms: C_3  and  C_4 
REMARK    3  A    between atoms: C_8  and  C_9 
REMARK       I    between atoms: C_9  and  N_10 
ROOT
HETATM    1  C   UNL     1       4.385  27.984  52.690  1.00  0.00     0.271 C 
HETATM    2  N   UNL     1       5.355  27.088  53.160  1.00  0.00    -0.347 N 
HETATM    3  C   UNL     1       6.800  27.289  53.062  1.00  0.00     0.128 C 
HETATM    4  C   UNL     1       7.549  26.774  54.285  1.00  0.00     0.055 C 
HETATM    5  C   UNL     1       7.167  25.336  54.660  1.00  0.00     0.100 C 
HETATM    6  N   UNL     1       7.669  24.412  53.607  1.00  0.00    -0.273 NA
HETATM    7  C   UNL     1       7.767  23.062  53.986  1.00  0.00     0.036 A 
HETATM    8  C   UNL     1       7.960  22.690  55.328  1.00  0.00     0.056 A 
HETATM    9  N   UNL     1       7.994  23.673  56.321  1.00  0.00    -0.324 N 
HETATM   10  C   UNL     1       7.776  25.002  56.053  1.00  0.00     0.245 C 
HETATM   11  O   UNL     1       7.952  25.840  56.939  1.00  0.00    -0.271 OA
HETATM   12  C   UNL     1       7.830  22.069  53.004  1.00  0.00     0.026 A 
HETATM   13  C   UNL     1       8.008  20.729  53.356  1.00  0.00     0.002 A 
HETATM   14  C   UNL     1       8.163  20.371  54.695  1.00  0.00     0.002 A 
HETATM   15  C   UNL     1       8.151  21.354  55.684  1.00  0.00     0.031 A 
HETATM   16  C   UNL     1       5.636  25.234  54.791  1.00  0.00     0.055 C 
HETATM   17  C   UNL     1       4.907  25.759  53.561  1.00  0.00     0.128 C 
HETATM   18  O   UNL     1       3.193  27.818  52.949  1.00  0.00    -0.266 OA
HETATM   19  H   UNL     1       7.227  24.521  52.699  1.00  0.00     0.129 HD
HETATM   20  H   UNL     1       8.288  23.445  57.260  1.00  0.00     0.169 HD
ENDROOT
BRANCH   1  21
HETATM   21  C   UNL     1       4.788  29.127  51.907  1.00  0.00     0.119 A 
HETATM   22  N   UNL     1       4.561  30.405  52.343  1.00  0.00    -0.273 N 
HETATM   23  N   UNL     1       5.029  31.359  51.520  1.00  0.00    -0.179 NA
HETATM   24  H   UNL     1       4.111  30.681  53.211  1.00  0.00     0.189 HD
HETATM   25  C   UNL     1       5.505  30.674  50.476  1.00  0.00     0.057 A 
HETATM   26  C   UNL     1       5.333  29.282  50.648  1.00  0.00     0.065 A 
BRANCH  25  27
HETATM   27  C   UNL     1       6.132  31.377  49.316  1.00  0.00     0.065 C 
BRANCH  27  28
HETATM   28  C   UNL     1       5.094  31.941  48.326  1.00  0.00    -0.017 C 
HETATM   29  C   UNL     1       4.582  30.865  47.365  1.00  0.00     0.010 C 
HETATM   30  C   UNL     1       5.698  33.100  47.534  1.00  0.00     0.010 C 
ENDBRANCH  27  28
ENDBRANCH  25  27
ENDBRANCH   1  21
TORSDOF 3
ENDMDL
MODEL 6
REMARK VINA RESULT:      -8.7      7.860     10.871
REMARK  3 active torsions:
REMARK  status: ('A' for Active; 'I' for Inactive)
REMARK    1  A    between atoms: C_2  and  C_3 
REMARK    2  A    between atoms: C_3  and  C_4 
REMARK    3  A    between atoms: C_8  and  C_9 
REMARK       I    between atoms: C_9  and  N_10 
ROOT
HETATM    1  C   UNL     1       5.043  26.868  52.196  1.00  0.00     0.271 C 
HETATM    2  N   UNL     1       4.558  27.205  50.925  1.00  0.00    -0.347 N 
HETATM    3  C   UNL     1       4.777  26.424  49.709  1.00  0.00     0.128 C 
HETATM    4  C   UNL     1       3.566  26.424  48.784  1.00  0.00     0.055 C 
HETATM    5  C   UNL     1       3.026  27.833  48.504  1.00  0.00     0.100 C 
HETATM    6  N   UNL     1       4.017  28.574  47.677  1.00  0.00    -0.273 NA
HETATM    7  C   UNL     1       3.516  29.700  47.001  1.00  0.00     0.036 A 
HETATM    8  C   UNL     1       2.161  29.793  46.637  1.00  0.00     0.056 A 
HETATM    9  N   UNL     1       1.273  28.778  47.006  1.00  0.00    -0.324 N 
HETATM   10  C   UNL     1       1.654  27.710  47.779  1.00  0.00     0.245 C 
HETATM   11  O   UNL     1       0.869  26.777  47.960  1.00  0.00    -0.271 OA
HETATM   12  C   UNL     1       4.398  30.681  46.540  1.00  0.00     0.026 A 
HETATM   13  C   UNL     1       3.930  31.768  45.796  1.00  0.00     0.002 A 
HETATM   14  C   UNL     1       2.577  31.865  45.472  1.00  0.00     0.002 A 
HETATM   15  C   UNL     1       1.690  30.869  45.883  1.00  0.00     0.031 A 
HETATM   16  C   UNL     1       2.778  28.557  49.839  1.00  0.00     0.055 C 
HETATM   17  C   UNL     1       3.998  28.542  50.750  1.00  0.00     0.128 C 
HETATM   18  O   UNL     1       4.686  27.491  53.195  1.00  0.00    -0.266 OA
HETATM   19  H   UNL     1       4.897  28.771  48.143  1.00  0.00     0.129 HD
HETATM   20  H   UNL     1       0.340  28.748  46.622  1.00  0.00     0.169 HD
ENDROOT
BRANCH   1  21
HETATM   21  C   UNL     1       5.960  25.764  52.340  1.00  0.00     0.119 A 
HETATM   22  N   UNL     1       7.230  25.821  51.830  1.00  0.00    -0.273 N 
HETATM   23  N   UNL     1       7.974  24.730  52.080  1.00  0.00    -0.179 NA
HETATM   24  H   UNL     1       7.647  26.595  51.322  1.00  0.00     0.189 HD
HETATM   25  C   UNL     1       7.129  23.905  52.707  1.00  0.00     0.057 A 
HETATM   26  C   UNL     1       5.849  24.485  52.848  1.00  0.00     0.065 A 
BRANCH  25  27
HETATM   27  C   UNL     1       7.575  22.556  53.171  1.00  0.00     0.065 C 
BRANCH  27  28
HETATM   28  C   UNL     1       7.665  22.452  54.706  1.00  0.00    -0.017 C 
HETATM   29  C   UNL     1       8.888  23.193  55.255  1.00  0.00     0.010 C 
HETATM   30  C   UNL     1       7.712  20.984  55.132  1.00  0.00     0.010 C 
ENDBRANCH  27  28
ENDBRANCH  25  27
ENDBRANCH   1  21
TORSDOF 3
ENDMDL
MODEL 7
REMARK VINA RESULT:      -8.4      6.641      9.671
REMARK  3 active torsions:
REMARK  status: ('A' for Active; 'I' for Inactive)
REMARK    1  A    between atoms: C_2  and  C_3 
REMARK    2  A    between atoms: C_3  and  C_4 
REMARK    3  A    between atoms: C_8  and  C_9 
REMARK       I    between atoms: C_9  and  N_10 
ROOT
HETATM    1  C   UNL     1       5.621  26.539  54.260  1.00  0.00     0.271 C 
HETATM    2  N   UNL     1       5.487  27.119  52.990  1.00  0.00    -0.347 N 
HETATM    3  C   UNL     1       6.170  26.659  51.782  1.00  0.00     0.128 C 
HETATM    4  C   UNL     1       5.301  26.770  50.536  1.00  0.00     0.055 C 
HETATM    5  C   UNL     1       4.661  28.156  50.375  1.00  0.00     0.100 C 
HETATM    6  N   UNL     1       5.727  29.147  50.068  1.00  0.00    -0.273 NA
HETATM    7  C   UNL     1       5.284  30.353  49.497  1.00  0.00     0.036 A 
HETATM    8  C   UNL     1       4.099  30.415  48.742  1.00  0.00     0.056 A 
HETATM    9  N   UNL     1       3.306  29.271  48.605  1.00  0.00    -0.324 N 
HETATM   10  C   UNL     1       3.599  28.089  49.239  1.00  0.00     0.245 C 
HETATM   11  O   UNL     1       2.945  27.078  48.975  1.00  0.00    -0.271 OA
HETATM   12  C   UNL     1       6.104  31.484  49.541  1.00  0.00     0.026 A 
HETATM   13  C   UNL     1       5.718  32.670  48.910  1.00  0.00     0.002 A 
HETATM   14  C   UNL     1       4.521  32.725  48.195  1.00  0.00     0.002 A 
HETATM   15  C   UNL     1       3.714  31.592  48.100  1.00  0.00     0.031 A 
HETATM   16  C   UNL     1       3.924  28.531  51.673  1.00  0.00     0.055 C 
HETATM   17  C   UNL     1       4.809  28.408  52.905  1.00  0.00     0.128 C 
HETATM   18  O   UNL     1       4.895  26.884  55.191  1.00  0.00    -0.266 OA
HETATM   19  H   UNL     1       6.391  29.305  50.820  1.00  0.00     0.129 HD
HETATM   20  H   UNL     1       2.543  29.252  47.944  1.00  0.00     0.169 HD
ENDROOT
BRANCH   1  21
HETATM   21  C   UNL     1       6.611  25.513  54.475  1.00  0.00     0.119 A 
HETATM   22  N   UNL     1       7.475  25.566  55.536  1.00  0.00    -0.273 N 
HETATM   23  N   UNL     1       8.310  24.517  55.621  1.00  0.00    -0.179 NA
HETATM   24  H   UNL     1       7.518  26.289  56.249  1.00  0.00     0.189 HD
HETATM   25  C   UNL     1       8.030  23.798  54.530  1.00  0.00     0.057 A 
HETATM   26  C   UNL     1       7.012  24.402  53.758  1.00  0.00     0.065 A 
BRANCH  25  27
HETATM   27  C   UNL     1       8.750  22.519  54.245  1.00  0.00     0.065 C 
BRANCH  27  28
HETATM   28  C   UNL     1       7.802  21.308  54.147  1.00  0.00    -0.017 C 
HETATM   29  C   UNL     1       7.813  20.473  55.431  1.00  0.00     0.010 C 
HETATM   30  C   UNL     1       8.189  20.433  52.955  1.00  0.00     0.010 C 
ENDBRANCH  27  28
ENDBRANCH  25  27
ENDBRANCH   1  21
TORSDOF 3
ENDMDL
MODEL 8
REMARK VINA RESULT:      -8.3      3.932      9.035
REMARK  3 active torsions:
REMARK  status: ('A' for Active; 'I' for Inactive)
REMARK    1  A    between atoms: C_2  and  C_3 
REMARK    2  A    between atoms: C_3  and  C_4 
REMARK    3  A    between atoms: C_8  and  C_9 
REMARK       I    between atoms: C_9  and  N_10 
ROOT
HETATM    1  C   UNL     1       7.278  28.214  57.419  1.00  0.00     0.271 C 
HETATM    2  N   UNL     1       6.403  29.308  57.385  1.00  0.00    -0.347 N 
HETATM    3  C   UNL     1       5.065  29.294  56.796  1.00  0.00     0.128 C 
HETATM    4  C   UNL     1       4.066  30.131  57.585  1.00  0.00     0.055 C 
HETATM    5  C   UNL     1       4.576  31.547  57.884  1.00  0.00     0.100 C 
HETATM    6  N   UNL     1       4.647  32.313  56.610  1.00  0.00    -0.273 NA
HETATM    7  C   UNL     1       4.696  33.711  56.749  1.00  0.00     0.036 A 
HETATM    8  C   UNL     1       4.141  34.356  57.869  1.00  0.00     0.056 A 
HETATM    9  N   UNL     1       3.584  33.595  58.901  1.00  0.00    -0.324 N 
HETATM   10  C   UNL     1       3.614  32.222  58.904  1.00  0.00     0.245 C 
HETATM   11  O   UNL     1       2.990  31.601  59.767  1.00  0.00    -0.271 OA
HETATM   12  C   UNL     1       5.162  34.497  55.691  1.00  0.00     0.026 A 
HETATM   13  C   UNL     1       5.143  35.892  55.778  1.00  0.00     0.002 A 
HETATM   14  C   UNL     1       4.622  36.517  56.911  1.00  0.00     0.002 A 
HETATM   15  C   UNL     1       4.109  35.749  57.955  1.00  0.00     0.031 A 
HETATM   16  C   UNL     1       5.963  31.460  58.547  1.00  0.00     0.055 C 
HETATM   17  C   UNL     1       6.943  30.615  57.745  1.00  0.00     0.128 C 
HETATM   18  O   UNL     1       8.323  28.260  58.069  1.00  0.00    -0.266 OA
HETATM   19  H   UNL     1       5.337  31.973  55.947  1.00  0.00     0.129 HD
HETATM   20  H   UNL     1       3.044  34.037  59.631  1.00  0.00     0.169 HD
ENDROOT
BRANCH   1  21
HETATM   21  C   UNL     1       6.945  27.010  56.699  1.00  0.00     0.119 A 
HETATM   22  N   UNL     1       6.458  25.905  57.345  1.00  0.00    -0.273 N 
HETATM   23  N   UNL     1       6.159  24.877  56.531  1.00  0.00    -0.179 NA
HETATM   24  H   UNL     1       6.287  25.809  58.342  1.00  0.00     0.189 HD
HETATM   25  C   UNL     1       6.541  25.306  55.324  1.00  0.00     0.057 A 
HETATM   26  C   UNL     1       7.082  26.610  55.384  1.00  0.00     0.065 A 
BRANCH  25  27
HETATM   27  C   UNL     1       6.371  24.446  54.113  1.00  0.00     0.065 C 
BRANCH  27  28
HETATM   28  C   UNL     1       7.699  24.181  53.377  1.00  0.00    -0.017 C 
HETATM   29  C   UNL     1       7.782  24.956  52.059  1.00  0.00     0.010 C 
HETATM   30  C   UNL     1       7.864  22.684  53.112  1.00  0.00     0.010 C 
ENDBRANCH  27  28
ENDBRANCH  25  27
ENDBRANCH   1  21
TORSDOF 3
ENDMDL
MODEL 9
REMARK VINA RESULT:      -8.3      4.308      5.698
REMARK  3 active torsions:
REMARK  status: ('A' for Active; 'I' for Inactive)
REMARK    1  A    between atoms: C_2  and  C_3 
REMARK    2  A    between atoms: C_3  and  C_4 
REMARK    3  A    between atoms: C_8  and  C_9 
REMARK       I    between atoms: C_9  and  N_10 
ROOT
HETATM    1  C   UNL     1       4.186  30.182  56.279  1.00  0.00     0.271 C 
HETATM    2  N   UNL     1       5.169  29.199  56.098  1.00  0.00    -0.347 N 
HETATM    3  C   UNL     1       6.605  29.456  56.011  1.00  0.00     0.128 C 
HETATM    4  C   UNL     1       7.438  28.372  56.684  1.00  0.00     0.055 C 
HETATM    5  C   UNL     1       7.053  26.956  56.236  1.00  0.00     0.100 C 
HETATM    6  N   UNL     1       7.446  26.776  54.812  1.00  0.00    -0.273 NA
HETATM    7  C   UNL     1       7.542  25.443  54.376  1.00  0.00     0.036 A 
HETATM    8  C   UNL     1       7.834  24.398  55.272  1.00  0.00     0.056 A 
HETATM    9  N   UNL     1       7.972  24.674  56.636  1.00  0.00    -0.324 N 
HETATM   10  C   UNL     1       7.764  25.926  57.160  1.00  0.00     0.245 C 
HETATM   11  O   UNL     1       8.031  26.142  58.344  1.00  0.00    -0.271 OA
HETATM   12  C   UNL     1       7.501  25.155  53.009  1.00  0.00     0.026 A 
HETATM   13  C   UNL     1       7.675  23.846  52.551  1.00  0.00     0.002 A 
HETATM   14  C   UNL     1       7.929  22.815  53.454  1.00  0.00     0.002 A 
HETATM   15  C   UNL     1       8.021  23.092  54.818  1.00  0.00     0.031 A 
HETATM   16  C   UNL     1       5.536  26.762  56.412  1.00  0.00     0.055 C 
HETATM   17  C   UNL     1       4.723  27.858  55.737  1.00  0.00     0.128 C 
HETATM   18  O   UNL     1       3.015  29.872  56.499  1.00  0.00    -0.266 OA
HETATM   19  H   UNL     1       6.935  27.355  54.153  1.00  0.00     0.129 HD
HETATM   20  H   UNL     1       8.334  23.974  57.267  1.00  0.00     0.169 HD
ENDROOT
BRANCH   1  21
HETATM   21  C   UNL     1       4.551  31.576  56.224  1.00  0.00     0.119 A 
HETATM   22  N   UNL     1       4.869  32.275  57.358  1.00  0.00    -0.273 N 
HETATM   23  N   UNL     1       5.225  33.552  57.137  1.00  0.00    -0.179 NA
HETATM   24  H   UNL     1       4.883  31.918  58.308  1.00  0.00     0.189 HD
HETATM   25  C   UNL     1       5.055  33.707  55.820  1.00  0.00     0.057 A 
HETATM   26  C   UNL     1       4.589  32.519  55.214  1.00  0.00     0.065 A 
BRANCH  25  27
HETATM   27  C   UNL     1       5.352  35.012  55.154  1.00  0.00     0.065 C 
BRANCH  27  28
HETATM   28  C   UNL     1       5.678  34.857  53.656  1.00  0.00    -0.017 C 
HETATM   29  C   UNL     1       6.982  35.567  53.281  1.00  0.00     0.010 C 
HETATM   30  C   UNL     1       4.528  35.404  52.809  1.00  0.00     0.010 C 
ENDBRANCH  27  28
ENDBRANCH  25  27
ENDBRANCH   1  21
TORSDOF 3
ENDMDL
MODEL 10
REMARK VINA RESULT:      -8.0      4.391     10.121
REMARK  3 active torsions:
REMARK  status: ('A' for Active; 'I' for Inactive)
REMARK    1  A    between atoms: C_2  and  C_3 
REMARK    2  A    between atoms: C_3  and  C_4 
REMARK    3  A    between atoms: C_8  and  C_9 
REMARK       I    between atoms: C_9  and  N_10 
ROOT
HETATM    1  C   UNL     1       5.544  25.957  51.744  1.00  0.00     0.271 C 
HETATM    2  N   UNL     1       5.801  26.893  52.755  1.00  0.00    -0.347 N 
HETATM    3  C   UNL     1       5.508  28.323  52.669  1.00  0.00     0.128 C 
HETATM    4  C   UNL     1       5.031  28.906  53.993  1.00  0.00     0.055 C 
HETATM    5  C   UNL     1       5.951  28.551  55.169  1.00  0.00     0.100 C 
HETATM    6  N   UNL     1       7.249  29.257  54.997  1.00  0.00    -0.273 NA
HETATM    7  C   UNL     1       8.033  29.371  56.159  1.00  0.00     0.036 A 
HETATM    8  C   UNL     1       7.449  29.380  57.438  1.00  0.00     0.056 A 
HETATM    9  N   UNL     1       6.068  29.209  57.570  1.00  0.00    -0.324 N 
HETATM   10  C   UNL     1       5.249  28.961  56.497  1.00  0.00     0.245 C 
HETATM   11  O   UNL     1       4.026  28.955  56.652  1.00  0.00    -0.271 OA
HETATM   12  C   UNL     1       9.401  29.636  56.049  1.00  0.00     0.026 A 
HETATM   13  C   UNL     1      10.182  29.833  57.192  1.00  0.00     0.002 A 
HETATM   14  C   UNL     1       9.595  29.803  58.456  1.00  0.00     0.002 A 
HETATM   15  C   UNL     1       8.223  29.588  58.581  1.00  0.00     0.031 A 
HETATM   16  C   UNL     1       6.159  27.027  55.210  1.00  0.00     0.055 C 
HETATM   17  C   UNL     1       6.630  26.464  53.876  1.00  0.00     0.128 C 
HETATM   18  O   UNL     1       5.674  24.751  51.951  1.00  0.00    -0.266 OA
HETATM   19  H   UNL     1       7.797  28.952  54.198  1.00  0.00     0.129 HD
HETATM   20  H   UNL     1       5.613  29.370  58.458  1.00  0.00     0.169 HD
ENDROOT
BRANCH   1  21
HETATM   21  C   UNL     1       5.104  26.410  50.447  1.00  0.00     0.119 A 
HETATM   22  N   UNL     1       5.791  27.373  49.757  1.00  0.00    -0.273 N 
HETATM   23  N   UNL     1       5.276  27.659  48.549  1.00  0.00    -0.179 NA
HETATM   24  H   UNL     1       6.634  27.852  50.059  1.00  0.00     0.189 HD
HETATM   25  C   UNL     1       4.171  26.909  48.488  1.00  0.00     0.057 A 
HETATM   26  C   UNL     1       3.993  26.151  49.667  1.00  0.00     0.065 A 
BRANCH  25  27
HETATM   27  C   UNL     1       3.294  26.929  47.278  1.00  0.00     0.065 C 
BRANCH  27  28
HETATM   28  C   UNL     1       2.064  27.842  47.446  1.00  0.00    -0.017 C 
HETATM   29  C   UNL     1       0.868  27.342  46.631  1.00  0.00     0.010 C 
HETATM   30  C   UNL     1       2.412  29.273  47.034  1.00  0.00     0.010 C 
ENDBRANCH  27  28
ENDBRANCH  25  27
ENDBRANCH   1  21
TORSDOF 3
ENDMDL
