MODEL 1
REMARK VINA RESULT:      -9.5      0.000      0.000
REMARK  6 active torsions:
REMARK  status: ('A' for Active; 'I' for Inactive)
REMARK    1  A    between atoms: C_8  and  C_9 
REMARK    2  A    between atoms: C_9  and  C_10 
REMARK    3  A    between atoms: C_10  and  N_11 
REMARK    4  A    between atoms: C_10  and  C_19 
REMARK       I    between atoms: N_11  and  C_12 
REMARK    5  A    between atoms: C_12  and  C_13 
REMARK       I    between atoms: C_19  and  N_20 
REMARK    6  A    between atoms: N_20  and  C_21 
ROOT
HETATM    1  C   UNL     1       7.137  26.474  55.263  1.00  0.00     0.181 C 
ENDROOT
BRANCH   1   2
HETATM    2  C   UNL     1       7.958  25.329  54.634  1.00  0.00     0.075 C 
BRANCH   2   3
HETATM    3  C   UNL     1       8.088  24.136  55.535  1.00  0.00    -0.028 A 
HETATM    4  C   UNL     1       8.210  22.759  55.152  1.00  0.00    -0.002 A 
HETATM    5  C   UNL     1       8.252  22.074  53.920  1.00  0.00     0.014 A 
HETATM    6  C   UNL     1       8.297  22.007  56.325  1.00  0.00     0.042 A 
HETATM    7  C   UNL     1       8.356  20.678  53.905  1.00  0.00     0.001 A 
HETATM    8  C   UNL     1       8.433  19.959  55.094  1.00  0.00     0.002 A 
HETATM    9  C   UNL     1       8.411  20.612  56.328  1.00  0.00     0.030 A 
HETATM   10  N   UNL     1       8.249  22.890  57.377  1.00  0.00    -0.365 N 
HETATM   11  H   UNL     1       8.303  22.621  58.350  1.00  0.00     0.165 HD
HETATM   12  C   UNL     1       8.122  24.171  56.916  1.00  0.00     0.096 A 
ENDBRANCH   2   3
ENDBRANCH   1   2
BRANCH   1  13
HETATM   13  N   UNL     1       7.958  27.566  55.800  1.00  0.00    -0.343 N 
HETATM   14  C   UNL     1       8.069  27.881  57.135  1.00  0.00     0.259 C 
HETATM   15  O   UNL     1       7.497  27.200  57.986  1.00  0.00    -0.267 OA
HETATM   16  H   UNL     1       8.517  28.098  55.144  1.00  0.00     0.163 HD
BRANCH  14  17
HETATM   17  C   UNL     1       8.901  29.031  57.458  1.00  0.00     0.072 A 
HETATM   18  S   UNL     1       8.460  30.174  58.660  1.00  0.00    -0.097 SA
HETATM   19  C   UNL     1       9.876  31.095  58.409  1.00  0.00     0.050 A 
HETATM   20  C   UNL     1      10.678  30.552  57.430  1.00  0.00     0.009 A 
HETATM   21  C   UNL     1      10.114  29.363  56.882  1.00  0.00     0.025 A 
ENDBRANCH  14  17
ENDBRANCH   1  13
BRANCH   1  22
HETATM   22  C   UNL     1       6.063  27.040  54.307  1.00  0.00     0.245 C 
HETATM   23  N   UNL     1       6.484  27.177  52.996  1.00  0.00    -0.324 N 
HETATM   24  H   UNL     1       7.484  27.053  52.828  1.00  0.00     0.169 HD
HETATM   25  O   UNL     1       4.948  27.347  54.726  1.00  0.00    -0.271 OA
BRANCH  23  26
HETATM   26  C   UNL     1       5.695  27.505  51.877  1.00  0.00     0.052 A 
HETATM   27  C   UNL     1       5.189  28.770  51.592  1.00  0.00     0.145 A 
HETATM   28  N   UNL     1       4.391  29.048  50.527  1.00  0.00    -0.271 NA
HETATM   29  C   UNL     1       4.088  28.021  49.708  1.00  0.00     0.116 A 
HETATM   30  C   UNL     1       4.543  26.728  49.900  1.00  0.00     0.021 A 
HETATM   31  C   UNL     1       5.358  26.471  51.001  1.00  0.00     0.032 A 
ENDBRANCH  23  26
ENDBRANCH   1  22
TORSDOF 6
ENDMDL
MODEL 2
REMARK VINA RESULT:      -9.4      1.558      1.730
REMARK  6 active torsions:
REMARK  status: ('A' for Active; 'I' for Inactive)
REMARK    1  A    between atoms: C_8  and  C_9 
REMARK    2  A    between atoms: C_9  and  C_10 
REMARK    3  A    between atoms: C_10  and  N_11 
REMARK    4  A    between atoms: C_10  and  C_19 
REMARK       I    between atoms: N_11  and  C_12 
REMARK    5  A    between atoms: C_12  and  C_13 
REMARK       I    between atoms: C_19  and  N_20 
REMARK    6  A    between atoms: N_20  and  C_21 
ROOT
HETATM    1  C   UNL     1       6.175  26.141  54.274  1.00  0.00     0.181 C 
ENDROOT
BRANCH   1   2
HETATM    2  C   UNL     1       7.342  25.283  53.741  1.00  0.00     0.075 C 
BRANCH   2   3
HETATM    3  C   UNL     1       7.698  24.145  54.652  1.00  0.00    -0.028 A 
HETATM    4  C   UNL     1       7.954  22.781  54.290  1.00  0.00    -0.002 A 
HETATM    5  C   UNL     1       7.968  22.065  53.075  1.00  0.00     0.014 A 
HETATM    6  C   UNL     1       8.239  22.085  55.466  1.00  0.00     0.042 A 
HETATM    7  C   UNL     1       8.241  20.692  53.081  1.00  0.00     0.001 A 
HETATM    8  C   UNL     1       8.513  20.028  54.273  1.00  0.00     0.002 A 
HETATM    9  C   UNL     1       8.524  20.714  55.490  1.00  0.00     0.030 A 
HETATM   10  N   UNL     1       8.179  22.990  56.498  1.00  0.00    -0.365 N 
HETATM   11  H   UNL     1       8.353  22.763  57.468  1.00  0.00     0.165 HD
HETATM   12  C   UNL     1       7.854  24.230  56.023  1.00  0.00     0.096 A 
ENDBRANCH   2   3
ENDBRANCH   1   2
BRANCH   1  13
HETATM   13  N   UNL     1       6.593  27.185  55.219  1.00  0.00    -0.343 N 
HETATM   14  C   UNL     1       5.995  27.429  56.434  1.00  0.00     0.259 C 
HETATM   15  O   UNL     1       5.069  26.719  56.826  1.00  0.00    -0.267 OA
HETATM   16  H   UNL     1       7.407  27.737  54.977  1.00  0.00     0.163 HD
BRANCH  14  17
HETATM   17  C   UNL     1       6.531  28.542  57.203  1.00  0.00     0.072 A 
HETATM   18  S   UNL     1       5.715  30.046  57.333  1.00  0.00    -0.097 SA
HETATM   19  C   UNL     1       6.934  30.706  58.331  1.00  0.00     0.050 A 
HETATM   20  C   UNL     1       7.948  29.806  58.569  1.00  0.00     0.009 A 
HETATM   21  C   UNL     1       7.716  28.559  57.917  1.00  0.00     0.025 A 
ENDBRANCH  14  17
ENDBRANCH   1  13
BRANCH   1  22
HETATM   22  C   UNL     1       5.317  26.758  53.147  1.00  0.00     0.245 C 
HETATM   23  N   UNL     1       5.944  26.802  51.915  1.00  0.00    -0.324 N 
HETATM   24  H   UNL     1       6.942  26.584  51.908  1.00  0.00     0.169 HD
HETATM   25  O   UNL     1       4.186  27.180  53.380  1.00  0.00    -0.271 OA
BRANCH  23  26
HETATM   26  C   UNL     1       5.369  27.150  50.678  1.00  0.00     0.052 A 
HETATM   27  C   UNL     1       5.358  28.428  50.127  1.00  0.00     0.145 A 
HETATM   28  N   UNL     1       4.755  28.745  48.951  1.00  0.00    -0.271 NA
HETATM   29  C   UNL     1       4.139  27.742  48.292  1.00  0.00     0.116 A 
HETATM   30  C   UNL     1       4.096  26.437  48.751  1.00  0.00     0.021 A 
HETATM   31  C   UNL     1       4.721  26.141  49.961  1.00  0.00     0.032 A 
ENDBRANCH  23  26
ENDBRANCH   1  22
TORSDOF 6
ENDMDL
MODEL 3
REMARK VINA RESULT:      -9.4      2.184      6.114
REMARK  6 active torsions:
REMARK  status: ('A' for Active; 'I' for Inactive)
REMARK    1  A    between atoms: C_8  and  C_9 
REMARK    2  A    between atoms: C_9  and  C_10 
REMARK    3  A    between atoms: C_10  and  N_11 
REMARK    4  A    between atoms: C_10  and  C_19 
REMARK       I    between atoms: N_11  and  C_12 
REMARK    5  A    between atoms: C_12  and  C_13 
REMARK       I    between atoms: C_19  and  N_20 
REMARK    6  A    between atoms: N_20  and  C_21 
ROOT
HETATM    1  C   UNL     1       6.783  26.530  54.664  1.00  0.00     0.181 C 
ENDROOT
BRANCH   1   2
HETATM    2  C   UNL     1       6.165  25.415  55.532  1.00  0.00     0.075 C 
BRANCH   2   3
HETATM    3  C   UNL     1       7.122  24.295  55.820  1.00  0.00    -0.028 A 
HETATM    4  C   UNL     1       7.556  23.262  54.926  1.00  0.00    -0.002 A 
HETATM    5  C   UNL     1       7.283  22.937  53.581  1.00  0.00     0.014 A 
HETATM    6  C   UNL     1       8.439  22.444  55.633  1.00  0.00     0.042 A 
HETATM    7  C   UNL     1       7.876  21.808  53.005  1.00  0.00     0.001 A 
HETATM    8  C   UNL     1       8.747  21.010  53.741  1.00  0.00     0.002 A 
HETATM    9  C   UNL     1       9.050  21.317  55.070  1.00  0.00     0.030 A 
HETATM   10  N   UNL     1       8.554  22.967  56.898  1.00  0.00    -0.365 N 
HETATM   11  H   UNL     1       9.140  22.581  57.625  1.00  0.00     0.165 HD
HETATM   12  C   UNL     1       7.766  24.078  57.024  1.00  0.00     0.096 A 
ENDBRANCH   2   3
ENDBRANCH   1   2
BRANCH   1  13
HETATM   13  N   UNL     1       6.016  26.826  53.447  1.00  0.00    -0.343 N 
HETATM   14  C   UNL     1       6.370  26.426  52.179  1.00  0.00     0.259 C 
HETATM   15  O   UNL     1       7.367  25.726  52.002  1.00  0.00    -0.267 OA
HETATM   16  H   UNL     1       5.141  27.325  53.555  1.00  0.00     0.163 HD
BRANCH  14  17
HETATM   17  C   UNL     1       5.496  26.862  51.099  1.00  0.00     0.072 A 
HETATM   18  S   UNL     1       5.102  28.513  50.849  1.00  0.00    -0.097 SA
HETATM   19  C   UNL     1       4.128  28.151  49.493  1.00  0.00     0.050 A 
HETATM   20  C   UNL     1       4.097  26.801  49.226  1.00  0.00     0.009 A 
HETATM   21  C   UNL     1       4.885  26.059  50.154  1.00  0.00     0.025 A 
ENDBRANCH  14  17
ENDBRANCH   1  13
BRANCH   1  22
HETATM   22  C   UNL     1       7.048  27.831  55.454  1.00  0.00     0.245 C 
HETATM   23  N   UNL     1       7.984  27.702  56.465  1.00  0.00    -0.324 N 
HETATM   24  H   UNL     1       8.274  26.750  56.692  1.00  0.00     0.169 HD
HETATM   25  O   UNL     1       6.439  28.865  55.183  1.00  0.00    -0.271 OA
BRANCH  23  26
HETATM   26  C   UNL     1       8.550  28.733  57.239  1.00  0.00     0.052 A 
HETATM   27  C   UNL     1       7.965  29.309  58.362  1.00  0.00     0.145 A 
HETATM   28  N   UNL     1       8.514  30.336  59.064  1.00  0.00    -0.271 NA
HETATM   29  C   UNL     1       9.701  30.805  58.630  1.00  0.00     0.116 A 
HETATM   30  C   UNL     1      10.368  30.299  57.527  1.00  0.00     0.021 A 
HETATM   31  C   UNL     1       9.780  29.248  56.825  1.00  0.00     0.032 A 
ENDBRANCH  23  26
ENDBRANCH   1  22
TORSDOF 6
ENDMDL
MODEL 4
REMARK VINA RESULT:      -9.2      2.553      7.544
REMARK  6 active torsions:
REMARK  status: ('A' for Active; 'I' for Inactive)
REMARK    1  A    between atoms: C_8  and  C_9 
REMARK    2  A    between atoms: C_9  and  C_10 
REMARK    3  A    between atoms: C_10  and  N_11 
REMARK    4  A    between atoms: C_10  and  C_19 
REMARK       I    between atoms: N_11  and  C_12 
REMARK    5  A    between atoms: C_12  and  C_13 
REMARK       I    between atoms: C_19  and  N_20 
REMARK    6  A    between atoms: N_20  and  C_21 
ROOT
HETATM    1  C   UNL     1       6.511  27.018  53.502  1.00  0.00     0.181 C 
ENDROOT
BRANCH   1   2
HETATM    2  C   UNL     1       7.761  27.792  53.972  1.00  0.00     0.075 C 
BRANCH   2   3
HETATM    3  C   UNL     1       7.632  28.322  55.371  1.00  0.00    -0.028 A 
HETATM    4  C   UNL     1       8.609  29.054  56.124  1.00  0.00    -0.002 A 
HETATM    5  C   UNL     1       9.920  29.506  55.868  1.00  0.00     0.014 A 
HETATM    6  C   UNL     1       8.050  29.330  57.372  1.00  0.00     0.042 A 
HETATM    7  C   UNL     1      10.625  30.192  56.865  1.00  0.00     0.001 A 
HETATM    8  C   UNL     1      10.039  30.444  58.102  1.00  0.00     0.002 A 
HETATM    9  C   UNL     1       8.736  30.023  58.377  1.00  0.00     0.030 A 
HETATM   10  N   UNL     1       6.779  28.807  57.374  1.00  0.00    -0.365 N 
HETATM   11  H   UNL     1       6.137  28.870  58.152  1.00  0.00     0.165 HD
HETATM   12  C   UNL     1       6.517  28.198  56.178  1.00  0.00     0.096 A 
ENDBRANCH   2   3
ENDBRANCH   1   2
BRANCH   1  13
HETATM   13  N   UNL     1       6.257  27.127  52.060  1.00  0.00    -0.343 N 
HETATM   14  C   UNL     1       5.057  27.503  51.501  1.00  0.00     0.259 C 
HETATM   15  O   UNL     1       4.111  27.829  52.217  1.00  0.00    -0.267 OA
HETATM   16  H   UNL     1       7.034  26.953  51.433  1.00  0.00     0.163 HD
BRANCH  14  17
HETATM   17  C   UNL     1       4.997  27.504  50.046  1.00  0.00     0.072 A 
HETATM   18  S   UNL     1       5.464  28.864  49.110  1.00  0.00    -0.097 SA
HETATM   19  C   UNL     1       5.114  28.066  47.641  1.00  0.00     0.050 A 
HETATM   20  C   UNL     1       4.651  26.786  47.848  1.00  0.00     0.009 A 
HETATM   21  C   UNL     1       4.583  26.464  49.235  1.00  0.00     0.025 A 
ENDBRANCH  14  17
ENDBRANCH   1  13
BRANCH   1  22
HETATM   22  C   UNL     1       6.527  25.533  53.927  1.00  0.00     0.245 C 
HETATM   23  N   UNL     1       7.652  24.837  53.521  1.00  0.00    -0.324 N 
HETATM   24  H   UNL     1       8.263  25.316  52.856  1.00  0.00     0.169 HD
HETATM   25  O   UNL     1       5.587  25.050  54.556  1.00  0.00    -0.271 OA
BRANCH  23  26
HETATM   26  C   UNL     1       8.027  23.532  53.891  1.00  0.00     0.052 A 
HETATM   27  C   UNL     1       8.685  23.188  55.069  1.00  0.00     0.145 A 
HETATM   28  N   UNL     1       9.077  21.924  55.380  1.00  0.00    -0.271 NA
HETATM   29  C   UNL     1       8.797  20.960  54.480  1.00  0.00     0.116 A 
HETATM   30  C   UNL     1       8.144  21.196  53.282  1.00  0.00     0.021 A 
HETATM   31  C   UNL     1       7.755  22.502  52.988  1.00  0.00     0.032 A 
ENDBRANCH  23  26
ENDBRANCH   1  22
TORSDOF 6
ENDMDL
MODEL 5
REMARK VINA RESULT:      -9.2      2.183      5.771
REMARK  6 active torsions:
REMARK  status: ('A' for Active; 'I' for Inactive)
REMARK    1  A    between atoms: C_8  and  C_9 
REMARK    2  A    between atoms: C_9  and  C_10 
REMARK    3  A    between atoms: C_10  and  N_11 
REMARK    4  A    between atoms: C_10  and  C_19 
REMARK       I    between atoms: N_11  and  C_12 
REMARK    5  A    between atoms: C_12  and  C_13 
REMARK       I    between atoms: C_19  and  N_20 
REMARK    6  A    between atoms: N_20  and  C_21 
ROOT
HETATM    1  C   UNL     1       7.396  26.375  55.630  1.00  0.00     0.181 C 
ENDROOT
BRANCH   1   2
HETATM    2  C   UNL     1       7.034  24.928  56.026  1.00  0.00     0.075 C 
BRANCH   2   3
HETATM    3  C   UNL     1       7.302  23.935  54.933  1.00  0.00    -0.028 A 
HETATM    4  C   UNL     1       7.751  22.580  55.071  1.00  0.00    -0.002 A 
HETATM    5  C   UNL     1       8.077  21.752  56.165  1.00  0.00     0.014 A 
HETATM    6  C   UNL     1       7.866  22.046  53.787  1.00  0.00     0.042 A 
HETATM    7  C   UNL     1       8.521  20.443  55.939  1.00  0.00     0.001 A 
HETATM    8  C   UNL     1       8.630  19.946  54.644  1.00  0.00     0.002 A 
HETATM    9  C   UNL     1       8.299  20.737  53.542  1.00  0.00     0.030 A 
HETATM   10  N   UNL     1       7.485  23.028  52.904  1.00  0.00    -0.365 N 
HETATM   11  H   UNL     1       7.460  22.914  51.900  1.00  0.00     0.165 HD
HETATM   12  C   UNL     1       7.145  24.167  53.579  1.00  0.00     0.096 A 
ENDBRANCH   2   3
ENDBRANCH   1   2
BRANCH   1  13
HETATM   13  N   UNL     1       6.295  27.106  54.992  1.00  0.00    -0.343 N 
HETATM   14  C   UNL     1       6.442  28.005  53.960  1.00  0.00     0.259 C 
HETATM   15  O   UNL     1       7.552  28.211  53.468  1.00  0.00    -0.267 OA
HETATM   16  H   UNL     1       5.353  26.902  55.305  1.00  0.00     0.163 HD
BRANCH  14  17
HETATM   17  C   UNL     1       5.227  28.659  53.497  1.00  0.00     0.072 A 
HETATM   18  S   UNL     1       4.495  29.949  54.359  1.00  0.00    -0.097 SA
HETATM   19  C   UNL     1       3.243  30.106  53.207  1.00  0.00     0.050 A 
HETATM   20  C   UNL     1       3.371  29.198  52.181  1.00  0.00     0.009 A 
HETATM   21  C   UNL     1       4.515  28.363  52.350  1.00  0.00     0.025 A 
ENDBRANCH  14  17
ENDBRANCH   1  13
BRANCH   1  22
HETATM   22  C   UNL     1       7.966  27.197  56.807  1.00  0.00     0.245 C 
HETATM   23  N   UNL     1       8.463  28.437  56.447  1.00  0.00    -0.324 N 
HETATM   24  H   UNL     1       8.554  28.613  55.445  1.00  0.00     0.169 HD
HETATM   25  O   UNL     1       7.976  26.737  57.947  1.00  0.00    -0.271 OA
BRANCH  23  26
HETATM   26  C   UNL     1       8.890  29.467  57.307  1.00  0.00     0.052 A 
HETATM   27  C   UNL     1       8.121  30.045  58.313  1.00  0.00     0.145 A 
HETATM   28  N   UNL     1       8.544  31.070  59.099  1.00  0.00    -0.271 NA
HETATM   29  C   UNL     1       9.789  31.537  58.875  1.00  0.00     0.116 A 
HETATM   30  C   UNL     1      10.634  31.030  57.903  1.00  0.00     0.021 A 
HETATM   31  C   UNL     1      10.174  29.979  57.110  1.00  0.00     0.032 A 
ENDBRANCH  23  26
ENDBRANCH   1  22
TORSDOF 6
ENDMDL
MODEL 6
REMARK VINA RESULT:      -9.0      1.763      6.592
REMARK  6 active torsions:
REMARK  status: ('A' for Active; 'I' for Inactive)
REMARK    1  A    between atoms: C_8  and  C_9 
REMARK    2  A    between atoms: C_9  and  C_10 
REMARK    3  A    between atoms: C_10  and  N_11 
REMARK    4  A    between atoms: C_10  and  C_19 
REMARK       I    between atoms: N_11  and  C_12 
REMARK    5  A    between atoms: C_12  and  C_13 
REMARK       I    between atoms: C_19  and  N_20 
REMARK    6  A    between atoms: N_20  and  C_21 
ROOT
HETATM    1  C   UNL     1       6.126  26.780  53.421  1.00  0.00     0.181 C 
ENDROOT
BRANCH   1   2
HETATM    2  C   UNL     1       4.850  27.396  52.810  1.00  0.00     0.075 C 
BRANCH   2   3
HETATM    3  C   UNL     1       5.109  28.138  51.532  1.00  0.00    -0.028 A 
HETATM    4  C   UNL     1       4.957  27.653  50.191  1.00  0.00    -0.002 A 
HETATM    5  C   UNL     1       4.551  26.428  49.622  1.00  0.00     0.014 A 
HETATM    6  C   UNL     1       5.318  28.690  49.329  1.00  0.00     0.042 A 
HETATM    7  C   UNL     1       4.541  26.278  48.230  1.00  0.00     0.001 A 
HETATM    8  C   UNL     1       4.914  27.331  47.400  1.00  0.00     0.002 A 
HETATM    9  C   UNL     1       5.304  28.561  47.935  1.00  0.00     0.030 A 
HETATM   10  N   UNL     1       5.656  29.768  50.111  1.00  0.00    -0.365 N 
HETATM   11  H   UNL     1       5.949  30.665  49.750  1.00  0.00     0.165 HD
HETATM   12  C   UNL     1       5.536  29.449  51.436  1.00  0.00     0.096 A 
ENDBRANCH   2   3
ENDBRANCH   1   2
BRANCH   1  13
HETATM   13  N   UNL     1       6.568  27.439  54.657  1.00  0.00    -0.343 N 
HETATM   14  C   UNL     1       7.707  28.201  54.776  1.00  0.00     0.259 C 
HETATM   15  O   UNL     1       8.417  28.418  53.794  1.00  0.00    -0.267 OA
HETATM   16  H   UNL     1       5.968  27.360  55.469  1.00  0.00     0.163 HD
BRANCH  14  17
HETATM   17  C   UNL     1       7.992  28.730  56.102  1.00  0.00     0.072 A 
HETATM   18  S   UNL     1       6.854  28.654  57.384  1.00  0.00    -0.097 SA
HETATM   19  C   UNL     1       7.919  29.425  58.474  1.00  0.00     0.050 A 
HETATM   20  C   UNL     1       9.123  29.739  57.883  1.00  0.00     0.009 A 
HETATM   21  C   UNL     1       9.163  29.338  56.515  1.00  0.00     0.025 A 
ENDBRANCH  14  17
ENDBRANCH   1  13
BRANCH   1  22
HETATM   22  C   UNL     1       6.011  25.255  53.644  1.00  0.00     0.245 C 
HETATM   23  N   UNL     1       7.226  24.597  53.709  1.00  0.00    -0.324 N 
HETATM   24  H   UNL     1       8.049  25.141  53.444  1.00  0.00     0.169 HD
HETATM   25  O   UNL     1       4.910  24.715  53.730  1.00  0.00    -0.271 OA
BRANCH  23  26
HETATM   26  C   UNL     1       7.450  23.254  54.064  1.00  0.00     0.052 A 
HETATM   27  C   UNL     1       7.434  22.751  55.362  1.00  0.00     0.145 A 
HETATM   28  N   UNL     1       7.699  21.456  55.680  1.00  0.00    -0.271 NA
HETATM   29  C   UNL     1       7.989  20.625  54.658  1.00  0.00     0.116 A 
HETATM   30  C   UNL     1       8.027  21.023  53.333  1.00  0.00     0.021 A 
HETATM   31  C   UNL     1       7.753  22.358  53.037  1.00  0.00     0.032 A 
ENDBRANCH  23  26
ENDBRANCH   1  22
TORSDOF 6
ENDMDL
MODEL 7
REMARK VINA RESULT:      -8.7      2.651      6.394
REMARK  6 active torsions:
REMARK  status: ('A' for Active; 'I' for Inactive)
REMARK    1  A    between atoms: C_8  and  C_9 
REMARK    2  A    between atoms: C_9  and  C_10 
REMARK    3  A    between atoms: C_10  and  N_11 
REMARK    4  A    between atoms: C_10  and  C_19 
REMARK       I    between atoms: N_11  and  C_12 
REMARK    5  A    between atoms: C_12  and  C_13 
REMARK       I    between atoms: C_19  and  N_20 
REMARK    6  A    between atoms: N_20  and  C_21 
ROOT
HETATM    1  C   UNL     1       6.940  25.924  55.078  1.00  0.00     0.181 C 
ENDROOT
BRANCH   1   2
HETATM    2  C   UNL     1       5.850  26.021  56.166  1.00  0.00     0.075 C 
BRANCH   2   3
HETATM    3  C   UNL     1       5.517  27.436  56.540  1.00  0.00    -0.028 A 
HETATM    4  C   UNL     1       6.350  28.380  57.227  1.00  0.00    -0.002 A 
HETATM    5  C   UNL     1       7.656  28.346  57.756  1.00  0.00     0.014 A 
HETATM    6  C   UNL     1       5.619  29.561  57.358  1.00  0.00     0.042 A 
HETATM    7  C   UNL     1       8.172  29.472  58.408  1.00  0.00     0.001 A 
HETATM    8  C   UNL     1       7.412  30.632  58.528  1.00  0.00     0.002 A 
HETATM    9  C   UNL     1       6.121  30.701  57.999  1.00  0.00     0.030 A 
HETATM   10  N   UNL     1       4.399  29.353  56.760  1.00  0.00    -0.365 N 
HETATM   11  H   UNL     1       3.668  30.049  56.697  1.00  0.00     0.165 HD
HETATM   12  C   UNL     1       4.325  28.080  56.266  1.00  0.00     0.096 A 
ENDBRANCH   2   3
ENDBRANCH   1   2
BRANCH   1  13
HETATM   13  N   UNL     1       7.229  24.549  54.652  1.00  0.00    -0.343 N 
HETATM   14  C   UNL     1       8.154  23.721  55.246  1.00  0.00     0.259 C 
HETATM   15  O   UNL     1       8.776  24.095  56.241  1.00  0.00    -0.267 OA
HETATM   16  H   UNL     1       6.677  24.168  53.893  1.00  0.00     0.163 HD
BRANCH  14  17
HETATM   17  C   UNL     1       8.323  22.407  54.643  1.00  0.00     0.072 A 
HETATM   18  S   UNL     1       8.943  21.068  55.520  1.00  0.00    -0.097 SA
HETATM   19  C   UNL     1       8.808  20.029  54.171  1.00  0.00     0.050 A 
HETATM   20  C   UNL     1       8.301  20.678  53.068  1.00  0.00     0.009 A 
HETATM   21  C   UNL     1       8.023  22.050  53.341  1.00  0.00     0.025 A 
ENDBRANCH  14  17
ENDBRANCH   1  13
BRANCH   1  22
HETATM   22  C   UNL     1       6.642  26.809  53.847  1.00  0.00     0.245 C 
HETATM   23  N   UNL     1       5.616  26.341  53.045  1.00  0.00    -0.324 N 
HETATM   24  H   UNL     1       5.279  25.398  53.248  1.00  0.00     0.169 HD
HETATM   25  O   UNL     1       7.302  27.823  53.629  1.00  0.00    -0.271 OA
BRANCH  23  26
HETATM   26  C   UNL     1       5.012  27.004  51.961  1.00  0.00     0.052 A 
HETATM   27  C   UNL     1       4.218  28.144  52.056  1.00  0.00     0.145 A 
HETATM   28  N   UNL     1       3.609  28.737  50.995  1.00  0.00    -0.271 NA
HETATM   29  C   UNL     1       3.803  28.172  49.786  1.00  0.00     0.116 A 
HETATM   30  C   UNL     1       4.577  27.042  49.584  1.00  0.00     0.021 A 
HETATM   31  C   UNL     1       5.188  26.454  50.690  1.00  0.00     0.032 A 
ENDBRANCH  23  26
ENDBRANCH   1  22
TORSDOF 6
ENDMDL
MODEL 8
REMARK VINA RESULT:      -8.6      2.241      6.511
REMARK  6 active torsions:
REMARK  status: ('A' for Active; 'I' for Inactive)
REMARK    1  A    between atoms: C_8  and  C_9 
REMARK    2  A    between atoms: C_9  and  C_10 
REMARK    3  A    between atoms: C_10  and  N_11 
REMARK    4  A    between atoms: C_10  and  C_19 
REMARK       I    between atoms: N_11  and  C_12 
REMARK    5  A    between atoms: C_12  and  C_13 
REMARK       I    between atoms: C_19  and  N_20 
REMARK    6  A    between atoms: N_20  and  C_21 
ROOT
HETATM    1  C   UNL     1       7.295  26.981  54.717  1.00  0.00     0.181 C 
ENDROOT
BRANCH   1   2
HETATM    2  C   UNL     1       7.307  27.646  56.110  1.00  0.00     0.075 C 
BRANCH   2   3
HETATM    3  C   UNL     1       8.418  28.642  56.276  1.00  0.00    -0.028 A 
HETATM    4  C   UNL     1       8.695  29.462  57.419  1.00  0.00    -0.002 A 
HETATM    5  C   UNL     1       8.098  29.629  58.686  1.00  0.00     0.014 A 
HETATM    6  C   UNL     1       9.818  30.233  57.115  1.00  0.00     0.042 A 
HETATM    7  C   UNL     1       8.625  30.564  59.584  1.00  0.00     0.001 A 
HETATM    8  C   UNL     1       9.742  31.323  59.245  1.00  0.00     0.002 A 
HETATM    9  C   UNL     1      10.364  31.167  58.005  1.00  0.00     0.030 A 
HETATM   10  N   UNL     1      10.220  29.885  55.848  1.00  0.00    -0.365 N 
HETATM   11  H   UNL     1      11.020  30.281  55.374  1.00  0.00     0.165 HD
HETATM   12  C   UNL     1       9.386  28.931  55.332  1.00  0.00     0.096 A 
ENDBRANCH   2   3
ENDBRANCH   1   2
BRANCH   1  13
HETATM   13  N   UNL     1       7.443  25.521  54.758  1.00  0.00    -0.343 N 
HETATM   14  C   UNL     1       7.816  24.739  53.688  1.00  0.00     0.259 C 
HETATM   15  O   UNL     1       8.105  25.257  52.609  1.00  0.00    -0.267 OA
HETATM   16  H   UNL     1       7.302  25.060  55.649  1.00  0.00     0.163 HD
BRANCH  14  17
HETATM   17  C   UNL     1       7.860  23.304  53.924  1.00  0.00     0.072 A 
HETATM   18  S   UNL     1       7.667  22.625  55.488  1.00  0.00    -0.097 SA
HETATM   19  C   UNL     1       7.834  21.031  54.897  1.00  0.00     0.050 A 
HETATM   20  C   UNL     1       8.034  21.004  53.536  1.00  0.00     0.009 A 
HETATM   21  C   UNL     1       8.050  22.315  52.976  1.00  0.00     0.025 A 
ENDBRANCH  14  17
ENDBRANCH   1  13
BRANCH   1  22
HETATM   22  C   UNL     1       6.057  27.365  53.877  1.00  0.00     0.245 C 
HETATM   23  N   UNL     1       6.351  27.809  52.600  1.00  0.00    -0.324 N 
HETATM   24  H   UNL     1       7.336  27.993  52.402  1.00  0.00     0.169 HD
HETATM   25  O   UNL     1       4.926  27.286  54.354  1.00  0.00    -0.271 OA
BRANCH  23  26
HETATM   26  C   UNL     1       5.442  28.070  51.558  1.00  0.00     0.052 A 
HETATM   27  C   UNL     1       4.701  29.239  51.411  1.00  0.00     0.145 A 
HETATM   28  N   UNL     1       3.795  29.447  50.418  1.00  0.00    -0.271 NA
HETATM   29  C   UNL     1       3.624  28.446  49.531  1.00  0.00     0.116 A 
HETATM   30  C   UNL     1       4.313  27.247  49.586  1.00  0.00     0.021 A 
HETATM   31  C   UNL     1       5.235  27.061  50.615  1.00  0.00     0.032 A 
ENDBRANCH  23  26
ENDBRANCH   1  22
TORSDOF 6
ENDMDL
MODEL 9
REMARK VINA RESULT:      -8.6      2.437      7.929
REMARK  6 active torsions:
REMARK  status: ('A' for Active; 'I' for Inactive)
REMARK    1  A    between atoms: C_8  and  C_9 
REMARK    2  A    between atoms: C_9  and  C_10 
REMARK    3  A    between atoms: C_10  and  N_11 
REMARK    4  A    between atoms: C_10  and  C_19 
REMARK       I    between atoms: N_11  and  C_12 
REMARK    5  A    between atoms: C_12  and  C_13 
REMARK       I    between atoms: C_19  and  N_20 
REMARK    6  A    between atoms: N_20  and  C_21 
ROOT
HETATM    1  C   UNL     1       5.827  27.513  53.892  1.00  0.00     0.181 C 
ENDROOT
BRANCH   1   2
HETATM    2  C   UNL     1       5.874  28.191  52.507  1.00  0.00     0.075 C 
BRANCH   2   3
HETATM    3  C   UNL     1       4.513  28.417  51.916  1.00  0.00    -0.028 A 
HETATM    4  C   UNL     1       4.150  28.422  50.529  1.00  0.00    -0.002 A 
HETATM    5  C   UNL     1       4.854  28.238  49.321  1.00  0.00     0.014 A 
HETATM    6  C   UNL     1       2.780  28.679  50.458  1.00  0.00     0.042 A 
HETATM    7  C   UNL     1       4.176  28.337  48.100  1.00  0.00     0.001 A 
HETATM    8  C   UNL     1       2.811  28.602  48.066  1.00  0.00     0.002 A 
HETATM    9  C   UNL     1       2.084  28.772  49.247  1.00  0.00     0.030 A 
HETATM   10  N   UNL     1       2.323  28.805  51.748  1.00  0.00    -0.365 N 
HETATM   11  H   UNL     1       1.360  28.984  51.998  1.00  0.00     0.165 HD
HETATM   12  C   UNL     1       3.354  28.651  52.633  1.00  0.00     0.096 A 
ENDBRANCH   2   3
ENDBRANCH   1   2
BRANCH   1  13
HETATM   13  N   UNL     1       6.570  26.248  53.957  1.00  0.00    -0.343 N 
HETATM   14  C   UNL     1       6.020  25.003  53.760  1.00  0.00     0.259 C 
HETATM   15  O   UNL     1       4.832  24.887  53.457  1.00  0.00    -0.267 OA
HETATM   16  H   UNL     1       7.569  26.300  54.117  1.00  0.00     0.163 HD
BRANCH  14  17
HETATM   17  C   UNL     1       6.920  23.869  53.913  1.00  0.00     0.072 A 
HETATM   18  S   UNL     1       7.343  23.235  55.451  1.00  0.00    -0.097 SA
HETATM   19  C   UNL     1       8.338  22.029  54.762  1.00  0.00     0.050 A 
HETATM   20  C   UNL     1       8.355  22.099  53.387  1.00  0.00     0.009 A 
HETATM   21  C   UNL     1       7.538  23.161  52.899  1.00  0.00     0.025 A 
ENDBRANCH  14  17
ENDBRANCH   1  13
BRANCH   1  22
HETATM   22  C   UNL     1       6.273  28.449  55.037  1.00  0.00     0.245 C 
HETATM   23  N   UNL     1       7.409  28.030  55.705  1.00  0.00    -0.324 N 
HETATM   24  H   UNL     1       7.735  27.085  55.492  1.00  0.00     0.169 HD
HETATM   25  O   UNL     1       5.628  29.461  55.308  1.00  0.00    -0.271 OA
BRANCH  23  26
HETATM   26  C   UNL     1       8.144  28.744  56.671  1.00  0.00     0.052 A 
HETATM   27  C   UNL     1       7.771  28.914  58.001  1.00  0.00     0.145 A 
HETATM   28  N   UNL     1       8.477  29.648  58.901  1.00  0.00    -0.271 NA
HETATM   29  C   UNL     1       9.607  30.235  58.457  1.00  0.00     0.116 A 
HETATM   30  C   UNL     1      10.067  30.124  57.156  1.00  0.00     0.021 A 
HETATM   31  C   UNL     1       9.322  29.367  56.254  1.00  0.00     0.032 A 
ENDBRANCH  23  26
ENDBRANCH   1  22
TORSDOF 6
ENDMDL
MODEL 10
REMARK VINA RESULT:      -8.4      2.625      3.395
REMARK  6 active torsions:
REMARK  status: ('A' for Active; 'I' for Inactive)
REMARK    1  A    between atoms: C_8  and  C_9 
REMARK    2  A    between atoms: C_9  and  C_10 
REMARK    3  A    between atoms: C_10  and  N_11 
REMARK    4  A    between atoms: C_10  and  C_19 
REMARK       I    between atoms: N_11  and  C_12 
REMARK    5  A    between atoms: C_12  and  C_13 
REMARK       I    between atoms: C_19  and  N_20 
REMARK    6  A    between atoms: N_20  and  C_21 
ROOT
HETATM    1  C   UNL     1       6.003  27.854  53.219  1.00  0.00     0.181 C 
ENDROOT
BRANCH   1   2
HETATM    2  C   UNL     1       7.347  27.102  53.310  1.00  0.00     0.075 C 
BRANCH   2   3
HETATM    3  C   UNL     1       7.319  25.963  54.287  1.00  0.00    -0.028 A 
HETATM    4  C   UNL     1       7.527  24.571  54.016  1.00  0.00    -0.002 A 
HETATM    5  C   UNL     1       7.807  23.820  52.856  1.00  0.00     0.014 A 
HETATM    6  C   UNL     1       7.400  23.887  55.226  1.00  0.00     0.042 A 
HETATM    7  C   UNL     1       7.927  22.427  52.942  1.00  0.00     0.001 A 
HETATM    8  C   UNL     1       7.788  21.777  54.164  1.00  0.00     0.002 A 
HETATM    9  C   UNL     1       7.527  22.497  55.333  1.00  0.00     0.030 A 
HETATM   10  N   UNL     1       7.146  24.825  56.198  1.00  0.00    -0.365 N 
HETATM   11  H   UNL     1       7.019  24.612  57.178  1.00  0.00     0.165 HD
HETATM   12  C   UNL     1       7.093  26.076  55.647  1.00  0.00     0.096 A 
ENDBRANCH   2   3
ENDBRANCH   1   2
BRANCH   1  13
HETATM   13  N   UNL     1       5.924  29.032  54.093  1.00  0.00    -0.343 N 
HETATM   14  C   UNL     1       5.033  29.181  55.131  1.00  0.00     0.259 C 
HETATM   15  O   UNL     1       4.257  28.270  55.421  1.00  0.00    -0.267 OA
HETATM   16  H   UNL     1       6.603  29.769  53.947  1.00  0.00     0.163 HD
BRANCH  14  17
HETATM   17  C   UNL     1       5.087  30.446  55.848  1.00  0.00     0.072 A 
HETATM   18  S   UNL     1       4.453  31.900  55.193  1.00  0.00    -0.097 SA
HETATM   19  C   UNL     1       4.892  32.801  56.576  1.00  0.00     0.050 A 
HETATM   20  C   UNL     1       5.510  32.020  57.526  1.00  0.00     0.009 A 
HETATM   21  C   UNL     1       5.623  30.662  57.105  1.00  0.00     0.025 A 
ENDBRANCH  14  17
ENDBRANCH   1  13
BRANCH   1  22
HETATM   22  C   UNL     1       5.626  28.241  51.772  1.00  0.00     0.245 C 
HETATM   23  N   UNL     1       4.994  27.237  51.061  1.00  0.00    -0.324 N 
HETATM   24  H   UNL     1       4.990  26.311  51.494  1.00  0.00     0.169 HD
HETATM   25  O   UNL     1       5.904  29.353  51.327  1.00  0.00    -0.271 OA
BRANCH  23  26
HETATM   26  C   UNL     1       4.391  27.339  49.793  1.00  0.00     0.052 A 
HETATM   27  C   UNL     1       4.799  26.657  48.651  1.00  0.00     0.145 A 
HETATM   28  N   UNL     1       4.226  26.810  47.427  1.00  0.00    -0.271 NA
HETATM   29  C   UNL     1       3.198  27.678  47.340  1.00  0.00     0.116 A 
HETATM   30  C   UNL     1       2.713  28.402  48.416  1.00  0.00     0.021 A 
HETATM   31  C   UNL     1       3.321  28.227  49.658  1.00  0.00     0.032 A 
ENDBRANCH  23  26
ENDBRANCH   1  22
TORSDOF 6
ENDMDL
