MODEL 1
REMARK VINA RESULT:      -9.6      0.000      0.000
REMARK  10 active torsions:
REMARK  status: ('A' for Active; 'I' for Inactive)
REMARK    1  A    between atoms: O_2  and  C_3 
REMARK    2  A    between atoms: C_3  and  C_4 
REMARK    3  A    between atoms: C_8  and  N_9 
REMARK       I    between atoms: N_9  and  C_10 
REMARK    4  A    between atoms: C_10  and  C_11 
REMARK    5  A    between atoms: C_12  and  C_13 
REMARK    6  A    between atoms: C_22  and  C_23 
REMARK    7  A    between atoms: C_23  and  N_24 
REMARK    8  A    between atoms: C_26  and  C_27 
REMARK    9  A    between atoms: C_27  and  C_28 
REMARK   10  A    between atoms: C_28  and  O_29 
ROOT
HETATM    1  C   UNL     1       8.700  30.665  58.307  1.00  0.00     0.110 C 
HETATM    2  S   UNL     1       9.117  29.882  56.843  1.00  0.00    -0.061 SA
HETATM    3  C   UNL     1       7.508  29.449  56.527  1.00  0.00     0.111 A 
HETATM    4  C   UNL     1       6.633  29.864  57.526  1.00  0.00     0.028 A 
HETATM    5  C   UNL     1       7.322  30.668  58.518  1.00  0.00     0.071 C 
HETATM    6  N   UNL     1       7.204  28.743  55.411  1.00  0.00    -0.243 NA
HETATM    7  C   UNL     1       5.899  28.392  55.310  1.00  0.00     0.061 A 
HETATM    8  C   UNL     1       4.933  28.685  56.260  1.00  0.00     0.030 A 
HETATM    9  C   UNL     1       5.302  29.410  57.387  1.00  0.00     0.019 A 
ENDROOT
BRANCH   5  10
HETATM   10  N   UNL     1       6.775  31.360  59.610  1.00  0.00    -0.321 N 
HETATM   11  C   UNL     1       5.995  32.494  59.536  1.00  0.00     0.245 C 
HETATM   12  O   UNL     1       5.709  33.111  58.518  1.00  0.00    -0.268 OA
HETATM   13  H   UNL     1       7.166  31.120  60.522  1.00  0.00     0.169 HD
BRANCH  11  14
HETATM   14  C   UNL     1       5.549  32.972  60.876  1.00  0.00     0.075 C 
HETATM   15  C   UNL     1       6.346  32.761  61.936  1.00  0.00     0.017 C 
BRANCH  15  16
HETATM   16  C   UNL     1       6.088  33.163  63.330  1.00  0.00    -0.036 A 
HETATM   17  C   UNL     1       4.807  33.411  63.843  1.00  0.00     0.014 A 
HETATM   18  C   UNL     1       4.637  33.810  65.173  1.00  0.00     0.043 A 
HETATM   19  C   UNL     1       5.748  33.969  65.992  1.00  0.00     0.116 A 
HETATM   20  F   UNL     1       5.582  34.355  67.264  1.00  0.00    -0.206 F 
HETATM   21  C   UNL     1       7.026  33.737  65.507  1.00  0.00     0.043 A 
HETATM   22  C   UNL     1       7.195  33.336  64.180  1.00  0.00     0.014 A 
ENDBRANCH  15  16
ENDBRANCH  11  14
ENDBRANCH   5  10
BRANCH   1  23
HETATM   23  C   UNL     1       9.703  31.281  59.164  1.00  0.00     0.302 C 
HETATM   24  O   UNL     1      10.540  32.081  58.759  1.00  0.00    -0.259 OA
BRANCH  23  25
HETATM   25  O   UNL     1       9.590  30.880  60.462  1.00  0.00    -0.322 OA
HETATM   26  C   UNL     1       9.833  31.911  61.421  1.00  0.00     0.213 C 
ENDBRANCH  23  25
ENDBRANCH   1  23
BRANCH   7  27
HETATM   27  C   UNL     1       5.482  27.689  54.036  1.00  0.00     0.294 C 
BRANCH  27  28
HETATM   28  N   UNL     1       6.424  26.579  53.580  1.00  0.00    -0.061 N 
HETATM   29  H   UNL     1       7.274  27.109  53.326  1.00  0.00     0.280 HD
HETATM   30  C   UNL     1       6.886  25.616  54.680  1.00  0.00     0.190 C 
HETATM   31  C   UNL     1       7.923  24.667  54.060  1.00  0.00     0.033 C 
HETATM   32  C   UNL     1       7.394  23.937  52.831  1.00  0.00     0.004 C 
HETATM   33  C   UNL     1       6.921  24.933  51.782  1.00  0.00     0.028 C 
HETATM   34  C   UNL     1       5.897  25.907  52.338  1.00  0.00     0.235 C 
BRANCH  30  35
HETATM   35  C   UNL     1       5.697  24.919  55.353  1.00  0.00     0.059 C 
BRANCH  35  36
HETATM   36  C   UNL     1       5.682  25.073  56.871  1.00  0.00     0.166 C 
BRANCH  36  37
HETATM   37  O   UNL     1       4.377  25.482  57.244  1.00  0.00    -0.401 OA
HETATM   38  H   UNL     1       3.739  24.984  56.699  1.00  0.00     0.209 HD
ENDBRANCH  36  37
ENDBRANCH  35  36
ENDBRANCH  30  35
ENDBRANCH  27  28
ENDBRANCH   7  27
TORSDOF 10
ENDMDL
MODEL 2
REMARK VINA RESULT:      -9.4      1.714      3.078
REMARK  10 active torsions:
REMARK  status: ('A' for Active; 'I' for Inactive)
REMARK    1  A    between atoms: O_2  and  C_3 
REMARK    2  A    between atoms: C_3  and  C_4 
REMARK    3  A    between atoms: C_8  and  N_9 
REMARK       I    between atoms: N_9  and  C_10 
REMARK    4  A    between atoms: C_10  and  C_11 
REMARK    5  A    between atoms: C_12  and  C_13 
REMARK    6  A    between atoms: C_22  and  C_23 
REMARK    7  A    between atoms: C_23  and  N_24 
REMARK    8  A    between atoms: C_26  and  C_27 
REMARK    9  A    between atoms: C_27  and  C_28 
REMARK   10  A    between atoms: C_28  and  O_29 
ROOT
HETATM    1  C   UNL     1       5.102  31.513  57.209  1.00  0.00     0.110 C 
HETATM    2  S   UNL     1       4.769  30.795  55.691  1.00  0.00    -0.061 SA
HETATM    3  C   UNL     1       5.968  29.614  55.902  1.00  0.00     0.111 A 
HETATM    4  C   UNL     1       6.654  29.752  57.104  1.00  0.00     0.028 A 
HETATM    5  C   UNL     1       6.073  30.805  57.915  1.00  0.00     0.071 C 
HETATM    6  N   UNL     1       6.188  28.693  54.932  1.00  0.00    -0.243 NA
HETATM    7  C   UNL     1       7.222  27.852  55.183  1.00  0.00     0.061 A 
HETATM    8  C   UNL     1       8.027  27.916  56.309  1.00  0.00     0.030 A 
HETATM    9  C   UNL     1       7.756  28.884  57.271  1.00  0.00     0.019 A 
ENDROOT
BRANCH   5  10
HETATM   10  N   UNL     1       6.403  31.175  59.228  1.00  0.00    -0.321 N 
HETATM   11  C   UNL     1       7.557  31.819  59.617  1.00  0.00     0.245 C 
HETATM   12  O   UNL     1       8.501  32.114  58.894  1.00  0.00    -0.268 OA
HETATM   13  H   UNL     1       5.840  30.741  59.962  1.00  0.00     0.169 HD
BRANCH  11  14
HETATM   14  C   UNL     1       7.596  32.095  61.082  1.00  0.00     0.075 C 
HETATM   15  C   UNL     1       6.581  32.777  61.638  1.00  0.00     0.017 C 
BRANCH  15  16
HETATM   16  C   UNL     1       6.432  33.139  63.059  1.00  0.00    -0.036 A 
HETATM   17  C   UNL     1       7.514  33.302  63.936  1.00  0.00     0.014 A 
HETATM   18  C   UNL     1       7.298  33.626  65.280  1.00  0.00     0.043 A 
HETATM   19  C   UNL     1       6.000  33.782  65.752  1.00  0.00     0.116 A 
HETATM   20  F   UNL     1       5.798  34.088  67.039  1.00  0.00    -0.206 F 
HETATM   21  C   UNL     1       4.913  33.618  64.906  1.00  0.00     0.043 A 
HETATM   22  C   UNL     1       5.129  33.297  63.564  1.00  0.00     0.014 A 
ENDBRANCH  15  16
ENDBRANCH  11  14
ENDBRANCH   5  10
BRANCH   1  23
HETATM   23  C   UNL     1       4.388  32.693  57.676  1.00  0.00     0.302 C 
HETATM   24  O   UNL     1       3.196  32.691  57.968  1.00  0.00    -0.259 OA
BRANCH  23  25
HETATM   25  O   UNL     1       5.198  33.785  57.766  1.00  0.00    -0.322 OA
HETATM   26  C   UNL     1       4.603  35.001  57.305  1.00  0.00     0.213 C 
ENDBRANCH  23  25
ENDBRANCH   1  23
BRANCH   7  27
HETATM   27  C   UNL     1       7.450  26.740  54.183  1.00  0.00     0.294 C 
BRANCH  27  28
HETATM   28  N   UNL     1       7.854  25.402  54.795  1.00  0.00    -0.061 N 
HETATM   29  H   UNL     1       8.838  25.574  55.059  1.00  0.00     0.280 HD
HETATM   30  C   UNL     1       7.159  25.047  56.115  1.00  0.00     0.190 C 
HETATM   31  C   UNL     1       7.790  23.747  56.636  1.00  0.00     0.033 C 
HETATM   32  C   UNL     1       7.729  22.612  55.620  1.00  0.00     0.004 C 
HETATM   33  C   UNL     1       8.404  23.023  54.320  1.00  0.00     0.028 C 
HETATM   34  C   UNL     1       7.827  24.310  53.757  1.00  0.00     0.235 C 
BRANCH  30  35
HETATM   35  C   UNL     1       5.634  25.001  55.953  1.00  0.00     0.059 C 
BRANCH  35  36
HETATM   36  C   UNL     1       4.878  25.509  57.176  1.00  0.00     0.166 C 
BRANCH  36  37
HETATM   37  O   UNL     1       4.322  26.770  56.840  1.00  0.00    -0.401 OA
HETATM   38  H   UNL     1       3.382  26.764  57.102  1.00  0.00     0.209 HD
ENDBRANCH  36  37
ENDBRANCH  35  36
ENDBRANCH  30  35
ENDBRANCH  27  28
ENDBRANCH   7  27
TORSDOF 10
ENDMDL
MODEL 3
REMARK VINA RESULT:      -9.2      1.492      2.044
REMARK  10 active torsions:
REMARK  status: ('A' for Active; 'I' for Inactive)
REMARK    1  A    between atoms: O_2  and  C_3 
REMARK    2  A    between atoms: C_3  and  C_4 
REMARK    3  A    between atoms: C_8  and  N_9 
REMARK       I    between atoms: N_9  and  C_10 
REMARK    4  A    between atoms: C_10  and  C_11 
REMARK    5  A    between atoms: C_12  and  C_13 
REMARK    6  A    between atoms: C_22  and  C_23 
REMARK    7  A    between atoms: C_23  and  N_24 
REMARK    8  A    between atoms: C_26  and  C_27 
REMARK    9  A    between atoms: C_27  and  C_28 
REMARK   10  A    between atoms: C_28  and  O_29 
ROOT
HETATM    1  C   UNL     1       8.650  30.642  58.318  1.00  0.00     0.110 C 
HETATM    2  S   UNL     1       9.078  29.920  56.826  1.00  0.00    -0.061 SA
HETATM    3  C   UNL     1       7.478  29.462  56.501  1.00  0.00     0.111 A 
HETATM    4  C   UNL     1       6.598  29.822  57.517  1.00  0.00     0.028 A 
HETATM    5  C   UNL     1       7.273  30.606  58.533  1.00  0.00     0.071 C 
HETATM    6  N   UNL     1       7.184  28.789  55.362  1.00  0.00    -0.243 NA
HETATM    7  C   UNL     1       5.887  28.412  55.253  1.00  0.00     0.061 A 
HETATM    8  C   UNL     1       4.919  28.651  56.216  1.00  0.00     0.030 A 
HETATM    9  C   UNL     1       5.277  29.345  57.367  1.00  0.00     0.019 A 
ENDROOT
BRANCH   5  10
HETATM   10  N   UNL     1       6.716  31.248  59.651  1.00  0.00    -0.321 N 
HETATM   11  C   UNL     1       5.978  32.411  59.627  1.00  0.00     0.245 C 
HETATM   12  O   UNL     1       5.746  33.102  58.642  1.00  0.00    -0.268 OA
HETATM   13  H   UNL     1       7.069  30.937  60.557  1.00  0.00     0.169 HD
BRANCH  11  14
HETATM   14  C   UNL     1       5.506  32.821  60.981  1.00  0.00     0.075 C 
HETATM   15  C   UNL     1       6.385  32.828  61.996  1.00  0.00     0.017 C 
BRANCH  15  16
HETATM   16  C   UNL     1       6.116  33.206  63.395  1.00  0.00    -0.036 A 
HETATM   17  C   UNL     1       4.830  33.443  63.903  1.00  0.00     0.014 A 
HETATM   18  C   UNL     1       4.650  33.819  65.238  1.00  0.00     0.043 A 
HETATM   19  C   UNL     1       5.755  33.967  66.068  1.00  0.00     0.116 A 
HETATM   20  F   UNL     1       5.579  34.332  67.344  1.00  0.00    -0.206 F 
HETATM   21  C   UNL     1       7.037  33.747  65.588  1.00  0.00     0.043 A 
HETATM   22  C   UNL     1       7.217  33.369  64.255  1.00  0.00     0.014 A 
ENDBRANCH  15  16
ENDBRANCH  11  14
ENDBRANCH   5  10
BRANCH   1  23
HETATM   23  C   UNL     1       9.642  31.249  59.193  1.00  0.00     0.302 C 
HETATM   24  O   UNL     1      10.447  32.096  58.817  1.00  0.00    -0.259 OA
BRANCH  23  25
HETATM   25  O   UNL     1       9.559  30.784  60.470  1.00  0.00    -0.322 OA
HETATM   26  C   UNL     1       9.739  31.785  61.475  1.00  0.00     0.213 C 
ENDBRANCH  23  25
ENDBRANCH   1  23
BRANCH   7  27
HETATM   27  C   UNL     1       5.480  27.745  53.957  1.00  0.00     0.294 C 
BRANCH  27  28
HETATM   28  N   UNL     1       5.842  26.267  53.858  1.00  0.00    -0.061 N 
HETATM   29  H   UNL     1       5.298  25.858  54.635  1.00  0.00     0.280 HD
HETATM   30  C   UNL     1       5.325  25.546  52.606  1.00  0.00     0.190 C 
HETATM   31  C   UNL     1       5.669  24.057  52.753  1.00  0.00     0.033 C 
HETATM   32  C   UNL     1       7.155  23.814  52.993  1.00  0.00     0.004 C 
HETATM   33  C   UNL     1       7.626  24.572  54.226  1.00  0.00     0.028 C 
HETATM   34  C   UNL     1       7.307  26.055  54.143  1.00  0.00     0.235 C 
BRANCH  30  35
HETATM   35  C   UNL     1       5.847  26.204  51.322  1.00  0.00     0.059 C 
BRANCH  35  36
HETATM   36  C   UNL     1       4.749  26.835  50.473  1.00  0.00     0.166 C 
BRANCH  36  37
HETATM   37  O   UNL     1       4.148  25.797  49.716  1.00  0.00    -0.401 OA
HETATM   38  H   UNL     1       4.232  24.968  50.222  1.00  0.00     0.209 HD
ENDBRANCH  36  37
ENDBRANCH  35  36
ENDBRANCH  30  35
ENDBRANCH  27  28
ENDBRANCH   7  27
TORSDOF 10
ENDMDL
MODEL 4
REMARK VINA RESULT:      -9.2      1.759      3.106
REMARK  10 active torsions:
REMARK  status: ('A' for Active; 'I' for Inactive)
REMARK    1  A    between atoms: O_2  and  C_3 
REMARK    2  A    between atoms: C_3  and  C_4 
REMARK    3  A    between atoms: C_8  and  N_9 
REMARK       I    between atoms: N_9  and  C_10 
REMARK    4  A    between atoms: C_10  and  C_11 
REMARK    5  A    between atoms: C_12  and  C_13 
REMARK    6  A    between atoms: C_22  and  C_23 
REMARK    7  A    between atoms: C_23  and  N_24 
REMARK    8  A    between atoms: C_26  and  C_27 
REMARK    9  A    between atoms: C_27  and  C_28 
REMARK   10  A    between atoms: C_28  and  O_29 
ROOT
HETATM    1  C   UNL     1       5.628  31.578  57.395  1.00  0.00     0.110 C 
HETATM    2  S   UNL     1       5.315  30.636  55.999  1.00  0.00    -0.061 SA
HETATM    3  C   UNL     1       6.304  29.369  56.540  1.00  0.00     0.111 A 
HETATM    4  C   UNL     1       6.905  29.640  57.765  1.00  0.00     0.028 A 
HETATM    5  C   UNL     1       6.423  30.894  58.313  1.00  0.00     0.071 C 
HETATM    6  N   UNL     1       6.462  28.261  55.777  1.00  0.00    -0.243 NA
HETATM    7  C   UNL     1       7.336  27.355  56.279  1.00  0.00     0.061 A 
HETATM    8  C   UNL     1       8.049  27.523  57.456  1.00  0.00     0.030 A 
HETATM    9  C   UNL     1       7.849  28.682  58.199  1.00  0.00     0.019 A 
ENDROOT
BRANCH   5  10
HETATM   10  N   UNL     1       6.697  31.459  59.569  1.00  0.00    -0.321 N 
HETATM   11  C   UNL     1       7.817  32.194  59.892  1.00  0.00     0.245 C 
HETATM   12  O   UNL     1       8.774  32.418  59.161  1.00  0.00    -0.268 OA
HETATM   13  H   UNL     1       6.126  31.113  60.340  1.00  0.00     0.169 HD
BRANCH  11  14
HETATM   14  C   UNL     1       7.799  32.676  61.303  1.00  0.00     0.075 C 
HETATM   15  C   UNL     1       6.627  32.708  61.960  1.00  0.00     0.017 C 
BRANCH  15  16
HETATM   16  C   UNL     1       6.405  33.141  63.352  1.00  0.00    -0.036 A 
HETATM   17  C   UNL     1       7.442  33.398  64.260  1.00  0.00     0.014 A 
HETATM   18  C   UNL     1       7.158  33.786  65.574  1.00  0.00     0.043 A 
HETATM   19  C   UNL     1       5.837  33.911  65.985  1.00  0.00     0.116 A 
HETATM   20  F   UNL     1       5.569  34.278  67.244  1.00  0.00    -0.206 F 
HETATM   21  C   UNL     1       4.793  33.655  65.108  1.00  0.00     0.043 A 
HETATM   22  C   UNL     1       5.077  33.270  63.795  1.00  0.00     0.014 A 
ENDBRANCH  15  16
ENDBRANCH  11  14
ENDBRANCH   5  10
BRANCH   1  23
HETATM   23  C   UNL     1       5.061  32.908  57.569  1.00  0.00     0.302 C 
HETATM   24  O   UNL     1       5.340  33.861  56.848  1.00  0.00    -0.259 OA
BRANCH  23  25
HETATM   25  O   UNL     1       4.179  32.962  58.605  1.00  0.00    -0.322 OA
HETATM   26  C   UNL     1       4.273  34.147  59.399  1.00  0.00     0.213 C 
ENDBRANCH  23  25
ENDBRANCH   1  23
BRANCH   7  27
HETATM   27  C   UNL     1       7.477  26.053  55.520  1.00  0.00     0.294 C 
BRANCH  27  28
HETATM   28  N   UNL     1       6.857  26.056  54.125  1.00  0.00    -0.061 N 
HETATM   29  H   UNL     1       7.164  26.971  53.755  1.00  0.00     0.280 HD
HETATM   30  C   UNL     1       7.439  25.030  53.146  1.00  0.00     0.190 C 
HETATM   31  C   UNL     1       6.791  25.277  51.776  1.00  0.00     0.033 C 
HETATM   32  C   UNL     1       5.268  25.237  51.826  1.00  0.00     0.004 C 
HETATM   33  C   UNL     1       4.741  26.251  52.832  1.00  0.00     0.028 C 
HETATM   34  C   UNL     1       5.352  26.061  54.209  1.00  0.00     0.235 C 
BRANCH  30  35
HETATM   35  C   UNL     1       7.291  23.598  53.678  1.00  0.00     0.059 C 
BRANCH  35  36
HETATM   36  C   UNL     1       8.605  22.823  53.709  1.00  0.00     0.166 C 
BRANCH  36  37
HETATM   37  O   UNL     1       9.095  22.870  55.039  1.00  0.00    -0.401 OA
HETATM   38  H   UNL     1       8.966  23.777  55.375  1.00  0.00     0.209 HD
ENDBRANCH  36  37
ENDBRANCH  35  36
ENDBRANCH  30  35
ENDBRANCH  27  28
ENDBRANCH   7  27
TORSDOF 10
ENDMDL
MODEL 5
REMARK VINA RESULT:      -9.2      4.234     10.669
REMARK  10 active torsions:
REMARK  status: ('A' for Active; 'I' for Inactive)
REMARK    1  A    between atoms: O_2  and  C_3 
REMARK    2  A    between atoms: C_3  and  C_4 
REMARK    3  A    between atoms: C_8  and  N_9 
REMARK       I    between atoms: N_9  and  C_10 
REMARK    4  A    between atoms: C_10  and  C_11 
REMARK    5  A    between atoms: C_12  and  C_13 
REMARK    6  A    between atoms: C_22  and  C_23 
REMARK    7  A    between atoms: C_23  and  N_24 
REMARK    8  A    between atoms: C_26  and  C_27 
REMARK    9  A    between atoms: C_27  and  C_28 
REMARK   10  A    between atoms: C_28  and  O_29 
ROOT
HETATM    1  C   UNL     1       4.930  29.665  54.869  1.00  0.00     0.110 C 
HETATM    2  S   UNL     1       4.720  31.216  55.563  1.00  0.00    -0.061 SA
HETATM    3  C   UNL     1       5.842  30.898  56.796  1.00  0.00     0.111 A 
HETATM    4  C   UNL     1       6.375  29.615  56.721  1.00  0.00     0.028 A 
HETATM    5  C   UNL     1       5.915  28.931  55.528  1.00  0.00     0.071 C 
HETATM    6  N   UNL     1       6.103  31.842  57.732  1.00  0.00    -0.243 NA
HETATM    7  C   UNL     1       6.956  31.442  58.707  1.00  0.00     0.061 A 
HETATM    8  C   UNL     1       7.513  30.176  58.789  1.00  0.00     0.030 A 
HETATM    9  C   UNL     1       7.208  29.246  57.801  1.00  0.00     0.019 A 
ENDROOT
BRANCH   5  10
HETATM   10  N   UNL     1       6.309  27.676  55.037  1.00  0.00    -0.321 N 
HETATM   11  C   UNL     1       5.929  26.456  55.553  1.00  0.00     0.245 C 
HETATM   12  O   UNL     1       5.245  26.272  56.551  1.00  0.00    -0.268 OA
HETATM   13  H   UNL     1       7.098  27.685  54.390  1.00  0.00     0.169 HD
BRANCH  11  14
HETATM   14  C   UNL     1       6.498  25.308  54.789  1.00  0.00     0.075 C 
HETATM   15  C   UNL     1       6.808  24.182  55.452  1.00  0.00     0.017 C 
BRANCH  15  16
HETATM   16  C   UNL     1       7.368  22.944  54.879  1.00  0.00    -0.036 A 
HETATM   17  C   UNL     1       7.707  21.818  55.643  1.00  0.00     0.014 A 
HETATM   18  C   UNL     1       8.255  20.684  55.034  1.00  0.00     0.043 A 
HETATM   19  C   UNL     1       8.470  20.674  53.662  1.00  0.00     0.116 A 
HETATM   20  F   UNL     1       8.998  19.587  53.084  1.00  0.00    -0.206 F 
HETATM   21  C   UNL     1       8.151  21.777  52.885  1.00  0.00     0.043 A 
HETATM   22  C   UNL     1       7.602  22.909  53.493  1.00  0.00     0.014 A 
ENDBRANCH  15  16
ENDBRANCH  11  14
ENDBRANCH   5  10
BRANCH   1  23
HETATM   23  C   UNL     1       4.177  29.237  53.698  1.00  0.00     0.302 C 
HETATM   24  O   UNL     1       3.554  28.181  53.643  1.00  0.00    -0.259 OA
BRANCH  23  25
HETATM   25  O   UNL     1       4.230  30.150  52.688  1.00  0.00    -0.322 OA
HETATM   26  C   UNL     1       5.026  29.747  51.571  1.00  0.00     0.213 C 
ENDBRANCH  23  25
ENDBRANCH   1  23
BRANCH   7  27
HETATM   27  C   UNL     1       7.362  32.487  59.723  1.00  0.00     0.294 C 
BRANCH  27  28
HETATM   28  N   UNL     1       6.526  32.497  60.999  1.00  0.00    -0.061 N 
HETATM   29  H   UNL     1       5.619  32.131  60.666  1.00  0.00     0.280 HD
HETATM   30  C   UNL     1       6.966  31.504  62.082  1.00  0.00     0.190 C 
HETATM   31  C   UNL     1       5.933  31.566  63.216  1.00  0.00     0.033 C 
HETATM   32  C   UNL     1       5.740  32.976  63.763  1.00  0.00     0.004 C 
HETATM   33  C   UNL     1       5.333  33.928  62.648  1.00  0.00     0.028 C 
HETATM   34  C   UNL     1       6.315  33.907  61.489  1.00  0.00     0.235 C 
BRANCH  30  35
HETATM   35  C   UNL     1       8.416  31.753  62.517  1.00  0.00     0.059 C 
BRANCH  35  36
HETATM   36  C   UNL     1       9.396  30.710  61.990  1.00  0.00     0.166 C 
BRANCH  36  37
HETATM   37  O   UNL     1       8.960  29.443  62.455  1.00  0.00    -0.401 OA
HETATM   38  H   UNL     1       8.032  29.532  62.743  1.00  0.00     0.209 HD
ENDBRANCH  36  37
ENDBRANCH  35  36
ENDBRANCH  30  35
ENDBRANCH  27  28
ENDBRANCH   7  27
TORSDOF 10
ENDMDL
MODEL 6
REMARK VINA RESULT:      -8.8      4.055     10.789
REMARK  10 active torsions:
REMARK  status: ('A' for Active; 'I' for Inactive)
REMARK    1  A    between atoms: O_2  and  C_3 
REMARK    2  A    between atoms: C_3  and  C_4 
REMARK    3  A    between atoms: C_8  and  N_9 
REMARK       I    between atoms: N_9  and  C_10 
REMARK    4  A    between atoms: C_10  and  C_11 
REMARK    5  A    between atoms: C_12  and  C_13 
REMARK    6  A    between atoms: C_22  and  C_23 
REMARK    7  A    between atoms: C_23  and  N_24 
REMARK    8  A    between atoms: C_26  and  C_27 
REMARK    9  A    between atoms: C_27  and  C_28 
REMARK   10  A    between atoms: C_28  and  O_29 
ROOT
HETATM    1  C   UNL     1       9.045  31.426  59.610  1.00  0.00     0.110 C 
HETATM    2  S   UNL     1       9.748  31.975  61.071  1.00  0.00    -0.061 SA
HETATM    3  C   UNL     1       8.236  32.194  61.806  1.00  0.00     0.111 A 
HETATM    4  C   UNL     1       7.176  31.881  60.960  1.00  0.00     0.028 A 
HETATM    5  C   UNL     1       7.658  31.331  59.707  1.00  0.00     0.071 C 
HETATM    6  N   UNL     1       8.161  32.661  63.076  1.00  0.00    -0.243 NA
HETATM    7  C   UNL     1       6.898  32.866  63.524  1.00  0.00     0.061 A 
HETATM    8  C   UNL     1       5.756  32.655  62.768  1.00  0.00     0.030 A 
HETATM    9  C   UNL     1       5.891  32.176  61.470  1.00  0.00     0.019 A 
ENDROOT
BRANCH   5  10
HETATM   10  N   UNL     1       6.910  30.794  58.647  1.00  0.00    -0.321 N 
HETATM   11  C   UNL     1       6.130  31.513  57.767  1.00  0.00     0.245 C 
HETATM   12  O   UNL     1       5.916  32.718  57.807  1.00  0.00    -0.268 OA
HETATM   13  H   UNL     1       6.774  29.783  58.674  1.00  0.00     0.169 HD
BRANCH  11  14
HETATM   14  C   UNL     1       5.483  30.650  56.737  1.00  0.00     0.075 C 
HETATM   15  C   UNL     1       6.166  29.600  56.253  1.00  0.00     0.017 C 
BRANCH  15  16
HETATM   16  C   UNL     1       5.700  28.631  55.244  1.00  0.00    -0.036 A 
HETATM   17  C   UNL     1       4.593  28.850  54.411  1.00  0.00     0.014 A 
HETATM   18  C   UNL     1       4.193  27.876  53.489  1.00  0.00     0.043 A 
HETATM   19  C   UNL     1       4.895  26.680  53.401  1.00  0.00     0.116 A 
HETATM   20  F   UNL     1       4.507  25.750  52.520  1.00  0.00    -0.206 F 
HETATM   21  C   UNL     1       5.989  26.438  54.218  1.00  0.00     0.043 A 
HETATM   22  C   UNL     1       6.389  27.410  55.138  1.00  0.00     0.014 A 
ENDBRANCH  15  16
ENDBRANCH  11  14
ENDBRANCH   5  10
BRANCH   1  23
HETATM   23  C   UNL     1       9.853  31.067  58.454  1.00  0.00     0.302 C 
HETATM   24  O   UNL     1      10.676  31.821  57.943  1.00  0.00    -0.259 OA
BRANCH  23  25
HETATM   25  O   UNL     1       9.603  29.799  58.022  1.00  0.00    -0.322 OA
HETATM   26  C   UNL     1      10.156  29.493  56.739  1.00  0.00     0.213 C 
ENDBRANCH  23  25
ENDBRANCH   1  23
BRANCH   7  27
HETATM   27  C   UNL     1       6.751  33.292  64.968  1.00  0.00     0.294 C 
BRANCH  27  28
HETATM   28  N   UNL     1       5.497  34.106  65.270  1.00  0.00    -0.061 N 
HETATM   29  H   UNL     1       4.786  33.632  64.689  1.00  0.00     0.280 HD
HETATM   30  C   UNL     1       4.964  33.985  66.704  1.00  0.00     0.190 C 
HETATM   31  C   UNL     1       3.639  34.757  66.773  1.00  0.00     0.033 C 
HETATM   32  C   UNL     1       3.776  36.207  66.322  1.00  0.00     0.004 C 
HETATM   33  C   UNL     1       4.334  36.275  64.908  1.00  0.00     0.028 C 
HETATM   34  C   UNL     1       5.645  35.522  64.774  1.00  0.00     0.235 C 
BRANCH  30  35
HETATM   35  C   UNL     1       6.016  34.419  67.733  1.00  0.00     0.059 C 
BRANCH  35  36
HETATM   36  C   UNL     1       5.767  33.859  69.129  1.00  0.00     0.166 C 
BRANCH  36  37
HETATM   37  O   UNL     1       5.271  34.919  69.930  1.00  0.00    -0.401 OA
HETATM   38  H   UNL     1       4.415  34.638  70.304  1.00  0.00     0.209 HD
ENDBRANCH  36  37
ENDBRANCH  35  36
ENDBRANCH  30  35
ENDBRANCH  27  28
ENDBRANCH   7  27
TORSDOF 10
ENDMDL
MODEL 7
REMARK VINA RESULT:      -8.6      4.372     10.434
REMARK  10 active torsions:
REMARK  status: ('A' for Active; 'I' for Inactive)
REMARK    1  A    between atoms: O_2  and  C_3 
REMARK    2  A    between atoms: C_3  and  C_4 
REMARK    3  A    between atoms: C_8  and  N_9 
REMARK       I    between atoms: N_9  and  C_10 
REMARK    4  A    between atoms: C_10  and  C_11 
REMARK    5  A    between atoms: C_12  and  C_13 
REMARK    6  A    between atoms: C_22  and  C_23 
REMARK    7  A    between atoms: C_23  and  N_24 
REMARK    8  A    between atoms: C_26  and  C_27 
REMARK    9  A    between atoms: C_27  and  C_28 
REMARK   10  A    between atoms: C_28  and  O_29 
ROOT
HETATM    1  C   UNL     1       4.588  29.722  53.943  1.00  0.00     0.110 C 
HETATM    2  S   UNL     1       4.240  31.260  54.610  1.00  0.00    -0.061 SA
HETATM    3  C   UNL     1       5.151  30.945  56.005  1.00  0.00     0.111 A 
HETATM    4  C   UNL     1       5.713  29.672  56.006  1.00  0.00     0.028 A 
HETATM    5  C   UNL     1       5.466  28.996  54.746  1.00  0.00     0.071 C 
HETATM    6  N   UNL     1       5.239  31.880  56.982  1.00  0.00    -0.243 NA
HETATM    7  C   UNL     1       5.930  31.482  58.078  1.00  0.00     0.061 A 
HETATM    8  C   UNL     1       6.488  30.224  58.237  1.00  0.00     0.030 A 
HETATM    9  C   UNL     1       6.366  29.302  57.203  1.00  0.00     0.019 A 
ENDROOT
BRANCH   5  10
HETATM   10  N   UNL     1       5.957  27.754  54.314  1.00  0.00    -0.321 N 
HETATM   11  C   UNL     1       7.254  27.493  53.925  1.00  0.00     0.245 C 
HETATM   12  O   UNL     1       8.162  28.310  53.835  1.00  0.00    -0.268 OA
HETATM   13  H   UNL     1       5.249  27.061  54.072  1.00  0.00     0.169 HD
BRANCH  11  14
HETATM   14  C   UNL     1       7.463  26.067  53.544  1.00  0.00     0.075 C 
HETATM   15  C   UNL     1       7.621  25.155  54.518  1.00  0.00     0.017 C 
BRANCH  15  16
HETATM   16  C   UNL     1       7.829  23.706  54.347  1.00  0.00    -0.036 A 
HETATM   17  C   UNL     1       7.949  23.081  53.097  1.00  0.00     0.014 A 
HETATM   18  C   UNL     1       8.125  21.695  53.009  1.00  0.00     0.043 A 
HETATM   19  C   UNL     1       8.175  20.931  54.168  1.00  0.00     0.116 A 
HETATM   20  F   UNL     1       8.339  19.605  54.079  1.00  0.00    -0.206 F 
HETATM   21  C   UNL     1       8.051  21.525  55.415  1.00  0.00     0.043 A 
HETATM   22  C   UNL     1       7.878  22.908  55.504  1.00  0.00     0.014 A 
ENDBRANCH  15  16
ENDBRANCH  11  14
ENDBRANCH   5  10
BRANCH   1  23
HETATM   23  C   UNL     1       4.043  29.298  52.661  1.00  0.00     0.302 C 
HETATM   24  O   UNL     1       3.853  28.123  52.363  1.00  0.00    -0.259 OA
BRANCH  23  25
HETATM   25  O   UNL     1       3.755  30.352  51.848  1.00  0.00    -0.322 OA
HETATM   26  C   UNL     1       2.581  30.178  51.051  1.00  0.00     0.213 C 
ENDBRANCH  23  25
ENDBRANCH   1  23
BRANCH   7  27
HETATM   27  C   UNL     1       6.145  32.520  59.158  1.00  0.00     0.294 C 
BRANCH  27  28
HETATM   28  N   UNL     1       6.652  31.965  60.486  1.00  0.00    -0.061 N 
HETATM   29  H   UNL     1       6.019  31.163  60.640  1.00  0.00     0.280 HD
HETATM   30  C   UNL     1       8.054  31.347  60.448  1.00  0.00     0.190 C 
HETATM   31  C   UNL     1       8.327  30.730  61.828  1.00  0.00     0.033 C 
HETATM   32  C   UNL     1       8.162  31.731  62.966  1.00  0.00     0.004 C 
HETATM   33  C   UNL     1       6.766  32.337  62.943  1.00  0.00     0.028 C 
HETATM   34  C   UNL     1       6.434  32.959  61.598  1.00  0.00     0.235 C 
BRANCH  30  35
HETATM   35  C   UNL     1       9.104  32.363  59.979  1.00  0.00     0.059 C 
BRANCH  35  36
HETATM   36  C   UNL     1       9.966  31.857  58.826  1.00  0.00     0.166 C 
BRANCH  36  37
HETATM   37  O   UNL     1       9.762  30.458  58.725  1.00  0.00    -0.401 OA
HETATM   38  H   UNL     1       8.804  30.287  58.793  1.00  0.00     0.209 HD
ENDBRANCH  36  37
ENDBRANCH  35  36
ENDBRANCH  30  35
ENDBRANCH  27  28
ENDBRANCH   7  27
TORSDOF 10
ENDMDL
MODEL 8
REMARK VINA RESULT:      -8.6      4.206      6.620
REMARK  10 active torsions:
REMARK  status: ('A' for Active; 'I' for Inactive)
REMARK    1  A    between atoms: O_2  and  C_3 
REMARK    2  A    between atoms: C_3  and  C_4 
REMARK    3  A    between atoms: C_8  and  N_9 
REMARK       I    between atoms: N_9  and  C_10 
REMARK    4  A    between atoms: C_10  and  C_11 
REMARK    5  A    between atoms: C_12  and  C_13 
REMARK    6  A    between atoms: C_22  and  C_23 
REMARK    7  A    between atoms: C_23  and  N_24 
REMARK    8  A    between atoms: C_26  and  C_27 
REMARK    9  A    between atoms: C_27  and  C_28 
REMARK   10  A    between atoms: C_28  and  O_29 
ROOT
HETATM    1  C   UNL     1       7.023  25.499  54.912  1.00  0.00     0.110 C 
HETATM    2  S   UNL     1       6.874  24.978  53.288  1.00  0.00    -0.061 SA
HETATM    3  C   UNL     1       6.303  26.491  52.776  1.00  0.00     0.111 A 
HETATM    4  C   UNL     1       6.192  27.406  53.818  1.00  0.00     0.028 A 
HETATM    5  C   UNL     1       6.714  26.851  55.052  1.00  0.00     0.071 C 
HETATM    6  N   UNL     1       5.981  26.688  51.474  1.00  0.00    -0.243 NA
HETATM    7  C   UNL     1       5.464  27.911  51.204  1.00  0.00     0.061 A 
HETATM    8  C   UNL     1       5.242  28.895  52.155  1.00  0.00     0.030 A 
HETATM    9  C   UNL     1       5.590  28.638  53.477  1.00  0.00     0.019 A 
ENDROOT
BRANCH   5  10
HETATM   10  N   UNL     1       6.884  27.490  56.291  1.00  0.00    -0.321 N 
HETATM   11  C   UNL     1       7.754  28.527  56.549  1.00  0.00     0.245 C 
HETATM   12  O   UNL     1       8.557  29.011  55.762  1.00  0.00    -0.268 OA
HETATM   13  H   UNL     1       6.486  27.003  57.095  1.00  0.00     0.169 HD
BRANCH  11  14
HETATM   14  C   UNL     1       7.678  29.003  57.960  1.00  0.00     0.075 C 
HETATM   15  C   UNL     1       8.162  30.220  58.258  1.00  0.00     0.017 C 
BRANCH  15  16
HETATM   16  C   UNL     1       8.171  30.867  59.582  1.00  0.00    -0.036 A 
HETATM   17  C   UNL     1       7.214  31.806  59.995  1.00  0.00     0.014 A 
HETATM   18  C   UNL     1       7.296  32.397  61.260  1.00  0.00     0.043 A 
HETATM   19  C   UNL     1       8.338  32.057  62.114  1.00  0.00     0.116 A 
HETATM   20  F   UNL     1       8.416  32.629  63.322  1.00  0.00    -0.206 F 
HETATM   21  C   UNL     1       9.302  31.138  61.726  1.00  0.00     0.043 A 
HETATM   22  C   UNL     1       9.218  30.546  60.464  1.00  0.00     0.014 A 
ENDBRANCH  15  16
ENDBRANCH  11  14
ENDBRANCH   5  10
BRANCH   1  23
HETATM   23  C   UNL     1       7.471  24.604  55.969  1.00  0.00     0.302 C 
HETATM   24  O   UNL     1       7.005  24.611  57.105  1.00  0.00    -0.259 OA
BRANCH  23  25
HETATM   25  O   UNL     1       8.448  23.754  55.546  1.00  0.00    -0.322 OA
HETATM   26  C   UNL     1       8.503  22.516  56.261  1.00  0.00     0.213 C 
ENDBRANCH  23  25
ENDBRANCH   1  23
BRANCH   7  27
HETATM   27  C   UNL     1       5.180  28.222  49.751  1.00  0.00     0.294 C 
BRANCH  27  28
HETATM   28  N   UNL     1       4.022  27.436  49.143  1.00  0.00    -0.061 N 
HETATM   29  H   UNL     1       3.674  26.902  49.956  1.00  0.00     0.280 HD
HETATM   30  C   UNL     1       2.822  28.277  48.692  1.00  0.00     0.190 C 
HETATM   31  C   UNL     1       1.719  27.307  48.241  1.00  0.00     0.033 C 
HETATM   32  C   UNL     1       2.190  26.337  47.163  1.00  0.00     0.004 C 
HETATM   33  C   UNL     1       3.399  25.549  47.647  1.00  0.00     0.028 C 
HETATM   34  C   UNL     1       4.524  26.455  48.114  1.00  0.00     0.235 C 
BRANCH  30  35
HETATM   35  C   UNL     1       3.228  29.320  47.644  1.00  0.00     0.059 C 
BRANCH  35  36
HETATM   36  C   UNL     1       2.103  30.282  47.276  1.00  0.00     0.166 C 
BRANCH  36  37
HETATM   37  O   UNL     1       1.774  30.052  45.916  1.00  0.00    -0.401 OA
HETATM   38  H   UNL     1       1.108  30.713  45.652  1.00  0.00     0.209 HD
ENDBRANCH  36  37
ENDBRANCH  35  36
ENDBRANCH  30  35
ENDBRANCH  27  28
ENDBRANCH   7  27
TORSDOF 10
ENDMDL
MODEL 9
REMARK VINA RESULT:      -8.6      2.235      3.274
REMARK  10 active torsions:
REMARK  status: ('A' for Active; 'I' for Inactive)
REMARK    1  A    between atoms: O_2  and  C_3 
REMARK    2  A    between atoms: C_3  and  C_4 
REMARK    3  A    between atoms: C_8  and  N_9 
REMARK       I    between atoms: N_9  and  C_10 
REMARK    4  A    between atoms: C_10  and  C_11 
REMARK    5  A    between atoms: C_12  and  C_13 
REMARK    6  A    between atoms: C_22  and  C_23 
REMARK    7  A    between atoms: C_23  and  N_24 
REMARK    8  A    between atoms: C_26  and  C_27 
REMARK    9  A    between atoms: C_27  and  C_28 
REMARK   10  A    between atoms: C_28  and  O_29 
ROOT
HETATM    1  C   UNL     1       8.036  29.924  57.485  1.00  0.00     0.110 C 
HETATM    2  S   UNL     1       8.187  29.156  55.962  1.00  0.00    -0.061 SA
HETATM    3  C   UNL     1       6.507  29.102  55.737  1.00  0.00     0.111 A 
HETATM    4  C   UNL     1       5.803  29.638  56.811  1.00  0.00     0.028 A 
HETATM    5  C   UNL     1       6.706  30.214  57.788  1.00  0.00     0.071 C 
HETATM    6  N   UNL     1       5.992  28.545  54.614  1.00  0.00    -0.243 NA
HETATM    7  C   UNL     1       4.638  28.492  54.586  1.00  0.00     0.061 A 
HETATM    8  C   UNL     1       3.816  28.932  55.611  1.00  0.00     0.030 A 
HETATM    9  C   UNL     1       4.399  29.494  56.742  1.00  0.00     0.019 A 
ENDROOT
BRANCH   5  10
HETATM   10  N   UNL     1       6.388  30.944  58.945  1.00  0.00    -0.321 N 
HETATM   11  C   UNL     1       5.979  32.259  58.979  1.00  0.00     0.245 C 
HETATM   12  O   UNL     1       5.889  33.015  58.020  1.00  0.00    -0.268 OA
HETATM   13  H   UNL     1       6.690  30.525  59.825  1.00  0.00     0.169 HD
BRANCH  11  14
HETATM   14  C   UNL     1       5.693  32.736  60.363  1.00  0.00     0.075 C 
HETATM   15  C   UNL     1       6.648  32.608  61.300  1.00  0.00     0.017 C 
BRANCH  15  16
HETATM   16  C   UNL     1       6.561  33.024  62.711  1.00  0.00    -0.036 A 
HETATM   17  C   UNL     1       7.644  32.979  63.601  1.00  0.00     0.014 A 
HETATM   18  C   UNL     1       7.485  33.370  64.936  1.00  0.00     0.043 A 
HETATM   19  C   UNL     1       6.243  33.799  65.385  1.00  0.00     0.116 A 
HETATM   20  F   UNL     1       6.094  34.168  66.663  1.00  0.00    -0.206 F 
HETATM   21  C   UNL     1       5.155  33.845  64.526  1.00  0.00     0.043 A 
HETATM   22  C   UNL     1       5.314  33.457  63.194  1.00  0.00     0.014 A 
ENDBRANCH  15  16
ENDBRANCH  11  14
ENDBRANCH   5  10
BRANCH   1  23
HETATM   23  C   UNL     1       9.196  30.256  58.298  1.00  0.00     0.302 C 
HETATM   24  O   UNL     1       9.259  30.046  59.506  1.00  0.00    -0.259 OA
BRANCH  23  25
HETATM   25  O   UNL     1      10.202  30.806  57.563  1.00  0.00    -0.322 OA
HETATM   26  C   UNL     1      11.340  29.957  57.391  1.00  0.00     0.213 C 
ENDBRANCH  23  25
ENDBRANCH   1  23
BRANCH   7  27
HETATM   27  C   UNL     1       4.005  27.972  53.314  1.00  0.00     0.294 C 
BRANCH  27  28
HETATM   28  N   UNL     1       4.263  28.825  52.076  1.00  0.00    -0.061 N 
HETATM   29  H   UNL     1       4.721  29.659  52.480  1.00  0.00     0.280 HD
HETATM   30  C   UNL     1       5.293  28.260  51.091  1.00  0.00     0.190 C 
HETATM   31  C   UNL     1       5.513  29.313  49.995  1.00  0.00     0.033 C 
HETATM   32  C   UNL     1       4.218  29.730  49.308  1.00  0.00     0.004 C 
HETATM   33  C   UNL     1       3.218  30.255  50.328  1.00  0.00     0.028 C 
HETATM   34  C   UNL     1       2.964  29.258  51.446  1.00  0.00     0.235 C 
BRANCH  30  35
HETATM   35  C   UNL     1       4.880  26.874  50.579  1.00  0.00     0.059 C 
BRANCH  35  36
HETATM   36  C   UNL     1       5.614  25.728  51.268  1.00  0.00     0.166 C 
BRANCH  36  37
HETATM   37  O   UNL     1       4.633  24.882  51.846  1.00  0.00    -0.401 OA
HETATM   38  H   UNL     1       4.606  24.056  51.328  1.00  0.00     0.209 HD
ENDBRANCH  36  37
ENDBRANCH  35  36
ENDBRANCH  30  35
ENDBRANCH  27  28
ENDBRANCH   7  27
TORSDOF 10
ENDMDL
MODEL 10
REMARK VINA RESULT:      -8.5      3.931      6.258
REMARK  10 active torsions:
REMARK  status: ('A' for Active; 'I' for Inactive)
REMARK    1  A    between atoms: O_2  and  C_3 
REMARK    2  A    between atoms: C_3  and  C_4 
REMARK    3  A    between atoms: C_8  and  N_9 
REMARK       I    between atoms: N_9  and  C_10 
REMARK    4  A    between atoms: C_10  and  C_11 
REMARK    5  A    between atoms: C_12  and  C_13 
REMARK    6  A    between atoms: C_22  and  C_23 
REMARK    7  A    between atoms: C_23  and  N_24 
REMARK    8  A    between atoms: C_26  and  C_27 
REMARK    9  A    between atoms: C_27  and  C_28 
REMARK   10  A    between atoms: C_28  and  O_29 
ROOT
HETATM    1  C   UNL     1       6.103  25.890  55.336  1.00  0.00     0.110 C 
HETATM    2  S   UNL     1       5.416  25.464  53.827  1.00  0.00    -0.061 SA
HETATM    3  C   UNL     1       4.818  27.031  53.572  1.00  0.00     0.111 A 
HETATM    4  C   UNL     1       5.103  27.894  54.625  1.00  0.00     0.028 A 
HETATM    5  C   UNL     1       5.947  27.248  55.611  1.00  0.00     0.071 C 
HETATM    6  N   UNL     1       4.117  27.313  52.447  1.00  0.00    -0.243 NA
HETATM    7  C   UNL     1       3.626  28.575  52.394  1.00  0.00     0.061 A 
HETATM    8  C   UNL     1       3.782  29.518  53.398  1.00  0.00     0.030 A 
HETATM    9  C   UNL     1       4.510  29.173  54.532  1.00  0.00     0.019 A 
ENDROOT
BRANCH   5  10
HETATM   10  N   UNL     1       6.541  27.811  56.752  1.00  0.00    -0.321 N 
HETATM   11  C   UNL     1       7.602  28.691  56.756  1.00  0.00     0.245 C 
HETATM   12  O   UNL     1       8.232  29.071  55.777  1.00  0.00    -0.268 OA
HETATM   13  H   UNL     1       6.301  27.365  57.638  1.00  0.00     0.169 HD
BRANCH  11  14
HETATM   14  C   UNL     1       7.982  29.125  58.131  1.00  0.00     0.075 C 
HETATM   15  C   UNL     1       7.671  30.372  58.524  1.00  0.00     0.017 C 
BRANCH  15  16
HETATM   16  C   UNL     1       7.952  30.981  59.836  1.00  0.00    -0.036 A 
HETATM   17  C   UNL     1       9.054  30.637  60.632  1.00  0.00     0.014 A 
HETATM   18  C   UNL     1       9.248  31.242  61.879  1.00  0.00     0.043 A 
HETATM   19  C   UNL     1       8.337  32.187  62.336  1.00  0.00     0.116 A 
HETATM   20  F   UNL     1       8.524  32.760  63.531  1.00  0.00    -0.206 F 
HETATM   21  C   UNL     1       7.235  32.538  61.571  1.00  0.00     0.043 A 
HETATM   22  C   UNL     1       7.043  31.936  60.325  1.00  0.00     0.014 A 
ENDBRANCH  15  16
ENDBRANCH  11  14
ENDBRANCH   5  10
BRANCH   1  23
HETATM   23  C   UNL     1       6.800  24.918  56.167  1.00  0.00     0.302 C 
HETATM   24  O   UNL     1       6.966  25.056  57.375  1.00  0.00    -0.259 OA
BRANCH  23  25
HETATM   25  O   UNL     1       7.223  23.838  55.453  1.00  0.00    -0.322 OA
HETATM   26  C   UNL     1       8.631  23.598  55.526  1.00  0.00     0.213 C 
ENDBRANCH  23  25
ENDBRANCH   1  23
BRANCH   7  27
HETATM   27  C   UNL     1       2.921  28.977  51.117  1.00  0.00     0.294 C 
BRANCH  27  28
HETATM   28  N   UNL     1       3.844  29.230  49.929  1.00  0.00    -0.061 N 
HETATM   29  H   UNL     1       4.726  29.500  50.395  1.00  0.00     0.280 HD
HETATM   30  C   UNL     1       4.209  27.990  49.104  1.00  0.00     0.190 C 
HETATM   31  C   UNL     1       5.240  28.421  48.051  1.00  0.00     0.033 C 
HETATM   32  C   UNL     1       4.751  29.575  47.183  1.00  0.00     0.004 C 
HETATM   33  C   UNL     1       4.374  30.769  48.048  1.00  0.00     0.028 C 
HETATM   34  C   UNL     1       3.359  30.404  49.117  1.00  0.00     0.235 C 
BRANCH  30  35
HETATM   35  C   UNL     1       2.959  27.303  48.538  1.00  0.00     0.059 C 
BRANCH  35  36
HETATM   36  C   UNL     1       3.242  25.934  47.928  1.00  0.00     0.166 C 
BRANCH  36  37
HETATM   37  O   UNL     1       2.931  26.012  46.547  1.00  0.00    -0.401 OA
HETATM   38  H   UNL     1       3.516  26.681  46.144  1.00  0.00     0.209 HD
ENDBRANCH  36  37
ENDBRANCH  35  36
ENDBRANCH  30  35
ENDBRANCH  27  28
ENDBRANCH   7  27
TORSDOF 10
ENDMDL
