MODEL 1
REMARK VINA RESULT:      -9.5      0.000      0.000
REMARK  2 active torsions:
REMARK  status: ('A' for Active; 'I' for Inactive)
REMARK       I    between atoms: N_5  and  C_6 
REMARK    1  A    between atoms: C_6  and  C_7 
REMARK    2  A    between atoms: N_11  and  C_12 
ROOT
HETATM    1  C   UNL     1       7.689  22.391  55.452  1.00  0.00     0.050 C 
HETATM    2  C   UNL     1       7.691  23.817  55.930  1.00  0.00    -0.030 A 
HETATM    3  C   UNL     1       6.965  24.838  55.286  1.00  0.00     0.087 A 
HETATM    4  C   UNL     1       7.006  26.153  55.790  1.00  0.00     0.160 A 
HETATM    5  N   UNL     1       6.316  27.197  55.114  1.00  0.00    -0.287 N 
HETATM    6  C   UNL     1       6.249  28.554  55.483  1.00  0.00     0.263 C 
HETATM    7  O   UNL     1       5.420  29.295  54.943  1.00  0.00    -0.267 OA
HETATM    8  C   UNL     1       5.423  26.839  54.016  1.00  0.00     0.237 C 
HETATM    9  C   UNL     1       5.437  25.420  53.487  1.00  0.00     0.240 C 
HETATM   10  O   UNL     1       4.763  25.064  52.522  1.00  0.00    -0.271 OA
HETATM   11  N   UNL     1       6.204  24.518  54.155  1.00  0.00    -0.322 N 
HETATM   12  N   UNL     1       7.694  26.428  56.914  1.00  0.00    -0.241 NA
HETATM   13  C   UNL     1       8.384  25.444  57.527  1.00  0.00     0.119 A 
HETATM   14  C   UNL     1       8.418  24.143  57.075  1.00  0.00     0.028 A 
HETATM   15  H   UNL     1       6.167  23.572  53.798  1.00  0.00     0.169 HD
ENDROOT
BRANCH   6  16
HETATM   16  C   UNL     1       7.119  29.133  56.492  1.00  0.00     0.076 C 
HETATM   17  C   UNL     1       8.506  29.405  56.368  1.00  0.00     0.068 C 
HETATM   18  C   UNL     1       9.379  29.165  55.192  1.00  0.00     0.073 C 
HETATM   19  N   UNL     1       9.014  29.948  57.479  1.00  0.00    -0.172 NA
HETATM   20  N   UNL     1       7.959  30.057  58.326  1.00  0.00    -0.244 N 
HETATM   21  C   UNL     1       6.843  29.436  57.812  1.00  0.00     0.138 C 
BRANCH  20  22
HETATM   22  C   UNL     1       8.083  30.767  59.554  1.00  0.00     0.058 A 
HETATM   23  C   UNL     1       9.178  30.503  60.393  1.00  0.00     0.031 A 
HETATM   24  C   UNL     1       9.346  31.219  61.580  1.00  0.00     0.002 A 
HETATM   25  C   UNL     1       8.425  32.201  61.938  1.00  0.00     0.000 A 
HETATM   26  C   UNL     1       7.334  32.466  61.112  1.00  0.00     0.002 A 
HETATM   27  C   UNL     1       7.158  31.753  59.922  1.00  0.00     0.031 A 
ENDBRANCH  20  22
ENDBRANCH   6  16
TORSDOF 2
ENDMDL
MODEL 2
REMARK VINA RESULT:      -9.3      1.976      7.060
REMARK  2 active torsions:
REMARK  status: ('A' for Active; 'I' for Inactive)
REMARK       I    between atoms: N_5  and  C_6 
REMARK    1  A    between atoms: C_6  and  C_7 
REMARK    2  A    between atoms: N_11  and  C_12 
ROOT
HETATM    1  C   UNL     1       9.475  31.426  59.203  1.00  0.00     0.050 C 
HETATM    2  C   UNL     1       8.898  30.485  58.183  1.00  0.00    -0.030 A 
HETATM    3  C   UNL     1       7.512  30.357  57.962  1.00  0.00     0.087 A 
HETATM    4  C   UNL     1       7.038  29.459  56.985  1.00  0.00     0.160 A 
HETATM    5  N   UNL     1       5.638  29.289  56.793  1.00  0.00    -0.287 N 
HETATM    6  C   UNL     1       5.001  28.445  55.864  1.00  0.00     0.263 C 
HETATM    7  O   UNL     1       3.792  28.579  55.643  1.00  0.00    -0.267 OA
HETATM    8  C   UNL     1       4.730  30.196  57.487  1.00  0.00     0.237 C 
HETATM    9  C   UNL     1       5.281  31.121  58.552  1.00  0.00     0.240 C 
HETATM   10  O   UNL     1       4.566  31.862  59.225  1.00  0.00    -0.271 OA
HETATM   11  N   UNL     1       6.631  31.139  58.717  1.00  0.00    -0.322 N 
HETATM   12  N   UNL     1       7.904  28.761  56.226  1.00  0.00    -0.241 NA
HETATM   13  C   UNL     1       9.229  28.892  56.441  1.00  0.00     0.119 A 
HETATM   14  C   UNL     1       9.766  29.724  57.399  1.00  0.00     0.028 A 
HETATM   15  H   UNL     1       6.971  31.791  59.412  1.00  0.00     0.169 HD
ENDROOT
BRANCH   6  16
HETATM   16  C   UNL     1       5.712  27.409  55.133  1.00  0.00     0.076 C 
HETATM   17  C   UNL     1       6.133  27.457  53.779  1.00  0.00     0.068 C 
HETATM   18  C   UNL     1       5.947  28.563  52.806  1.00  0.00     0.073 C 
HETATM   19  N   UNL     1       6.772  26.342  53.411  1.00  0.00    -0.172 NA
HETATM   20  N   UNL     1       6.796  25.570  54.527  1.00  0.00    -0.244 N 
HETATM   21  C   UNL     1       6.034  26.126  55.531  1.00  0.00     0.138 C 
BRANCH  20  22
HETATM   22  C   UNL     1       7.562  24.372  54.566  1.00  0.00     0.058 A 
HETATM   23  C   UNL     1       8.036  23.898  55.800  1.00  0.00     0.031 A 
HETATM   24  C   UNL     1       8.751  22.700  55.869  1.00  0.00     0.002 A 
HETATM   25  C   UNL     1       9.000  21.969  54.710  1.00  0.00     0.000 A 
HETATM   26  C   UNL     1       8.536  22.435  53.481  1.00  0.00     0.002 A 
HETATM   27  C   UNL     1       7.819  23.633  53.403  1.00  0.00     0.031 A 
ENDBRANCH  20  22
ENDBRANCH   6  16
TORSDOF 2
ENDMDL
MODEL 3
REMARK VINA RESULT:      -9.0      3.309      5.228
REMARK  2 active torsions:
REMARK  status: ('A' for Active; 'I' for Inactive)
REMARK       I    between atoms: N_5  and  C_6 
REMARK    1  A    between atoms: C_6  and  C_7 
REMARK    2  A    between atoms: N_11  and  C_12 
ROOT
HETATM    1  C   UNL     1       8.030  21.671  52.583  1.00  0.00     0.050 C 
HETATM    2  C   UNL     1       7.863  23.012  53.241  1.00  0.00    -0.030 A 
HETATM    3  C   UNL     1       7.936  23.191  54.636  1.00  0.00     0.087 A 
HETATM    4  C   UNL     1       7.775  24.478  55.188  1.00  0.00     0.160 A 
HETATM    5  N   UNL     1       7.797  24.656  56.600  1.00  0.00    -0.287 N 
HETATM    6  C   UNL     1       7.659  25.864  57.309  1.00  0.00     0.263 C 
HETATM    7  O   UNL     1       7.940  25.902  58.512  1.00  0.00    -0.267 OA
HETATM    8  C   UNL     1       8.177  23.520  57.434  1.00  0.00     0.237 C 
HETATM    9  C   UNL     1       8.307  22.150  56.802  1.00  0.00     0.240 C 
HETATM   10  O   UNL     1       8.555  21.138  57.454  1.00  0.00    -0.271 OA
HETATM   11  N   UNL     1       8.178  22.078  55.450  1.00  0.00    -0.322 N 
HETATM   12  N   UNL     1       7.604  25.545  54.385  1.00  0.00    -0.241 NA
HETATM   13  C   UNL     1       7.540  25.366  53.049  1.00  0.00     0.119 A 
HETATM   14  C   UNL     1       7.655  24.135  52.439  1.00  0.00     0.028 A 
HETATM   15  H   UNL     1       8.302  21.155  55.054  1.00  0.00     0.169 HD
ENDROOT
BRANCH   6  16
HETATM   16  C   UNL     1       7.202  27.091  56.680  1.00  0.00     0.076 C 
HETATM   17  C   UNL     1       7.943  28.289  56.509  1.00  0.00     0.068 C 
HETATM   18  C   UNL     1       9.341  28.563  56.928  1.00  0.00     0.073 C 
HETATM   19  N   UNL     1       7.235  29.234  55.883  1.00  0.00    -0.172 NA
HETATM   20  N   UNL     1       6.037  28.652  55.617  1.00  0.00    -0.244 N 
HETATM   21  C   UNL     1       5.941  27.418  56.221  1.00  0.00     0.138 C 
BRANCH  20  22
HETATM   22  C   UNL     1       5.081  29.303  54.789  1.00  0.00     0.058 A 
HETATM   23  C   UNL     1       4.674  30.610  55.104  1.00  0.00     0.031 A 
HETATM   24  C   UNL     1       3.772  31.286  54.280  1.00  0.00     0.002 A 
HETATM   25  C   UNL     1       3.269  30.665  53.139  1.00  0.00     0.000 A 
HETATM   26  C   UNL     1       3.665  29.367  52.822  1.00  0.00     0.002 A 
HETATM   27  C   UNL     1       4.568  28.683  53.642  1.00  0.00     0.031 A 
ENDBRANCH  20  22
ENDBRANCH   6  16
TORSDOF 2
ENDMDL
MODEL 4
REMARK VINA RESULT:      -8.8      2.272      7.184
REMARK  2 active torsions:
REMARK  status: ('A' for Active; 'I' for Inactive)
REMARK       I    between atoms: N_5  and  C_6 
REMARK    1  A    between atoms: C_6  and  C_7 
REMARK    2  A    between atoms: N_11  and  C_12 
ROOT
HETATM    1  C   UNL     1       7.352  31.037  58.544  1.00  0.00     0.050 C 
HETATM    2  C   UNL     1       7.116  30.071  57.416  1.00  0.00    -0.030 A 
HETATM    3  C   UNL     1       5.902  30.014  56.703  1.00  0.00     0.087 A 
HETATM    4  C   UNL     1       5.750  29.087  55.652  1.00  0.00     0.160 A 
HETATM    5  N   UNL     1       4.509  28.991  54.962  1.00  0.00    -0.287 N 
HETATM    6  C   UNL     1       4.193  28.131  53.893  1.00  0.00     0.263 C 
HETATM    7  O   UNL     1       3.164  28.324  53.236  1.00  0.00    -0.267 OA
HETATM    8  C   UNL     1       3.484  29.992  55.239  1.00  0.00     0.237 C 
HETATM    9  C   UNL     1       3.678  30.946  56.399  1.00  0.00     0.240 C 
HETATM   10  O   UNL     1       2.827  31.768  56.733  1.00  0.00    -0.271 OA
HETATM   11  N   UNL     1       4.870  30.893  57.050  1.00  0.00    -0.322 N 
HETATM   12  N   UNL     1       6.776  28.293  55.292  1.00  0.00    -0.241 NA
HETATM   13  C   UNL     1       7.936  28.357  55.978  1.00  0.00     0.119 A 
HETATM   14  C   UNL     1       8.148  29.213  57.037  1.00  0.00     0.028 A 
HETATM   15  H   UNL     1       4.982  31.564  57.799  1.00  0.00     0.169 HD
ENDROOT
BRANCH   6  16
HETATM   16  C   UNL     1       5.038  27.012  53.514  1.00  0.00     0.076 C 
HETATM   17  C   UNL     1       5.725  26.840  52.285  1.00  0.00     0.068 C 
HETATM   18  C   UNL     1       5.740  27.753  51.114  1.00  0.00     0.073 C 
HETATM   19  N   UNL     1       6.427  25.703  52.255  1.00  0.00    -0.172 NA
HETATM   20  N   UNL     1       6.224  25.137  53.472  1.00  0.00    -0.244 N 
HETATM   21  C   UNL     1       5.273  25.829  54.188  1.00  0.00     0.138 C 
BRANCH  20  22
HETATM   22  C   UNL     1       6.968  23.992  53.874  1.00  0.00     0.058 A 
HETATM   23  C   UNL     1       7.612  23.213  52.899  1.00  0.00     0.031 A 
HETATM   24  C   UNL     1       8.385  22.112  53.273  1.00  0.00     0.002 A 
HETATM   25  C   UNL     1       8.520  21.780  54.619  1.00  0.00     0.000 A 
HETATM   26  C   UNL     1       7.880  22.545  55.592  1.00  0.00     0.002 A 
HETATM   27  C   UNL     1       7.104  23.649  55.226  1.00  0.00     0.031 A 
ENDBRANCH  20  22
ENDBRANCH   6  16
TORSDOF 2
ENDMDL
MODEL 5
REMARK VINA RESULT:      -8.6      1.526      2.054
REMARK  2 active torsions:
REMARK  status: ('A' for Active; 'I' for Inactive)
REMARK       I    between atoms: N_5  and  C_6 
REMARK    1  A    between atoms: C_6  and  C_7 
REMARK    2  A    between atoms: N_11  and  C_12 
ROOT
HETATM    1  C   UNL     1       8.922  22.568  55.870  1.00  0.00     0.050 C 
HETATM    2  C   UNL     1       8.335  23.936  56.080  1.00  0.00    -0.030 A 
HETATM    3  C   UNL     1       7.913  24.756  55.014  1.00  0.00     0.087 A 
HETATM    4  C   UNL     1       7.366  26.027  55.282  1.00  0.00     0.160 A 
HETATM    5  N   UNL     1       6.986  26.879  54.207  1.00  0.00    -0.287 N 
HETATM    6  C   UNL     1       6.422  28.166  54.298  1.00  0.00     0.263 C 
HETATM    7  O   UNL     1       5.921  28.687  53.296  1.00  0.00    -0.267 OA
HETATM    8  C   UNL     1       6.999  26.334  52.854  1.00  0.00     0.237 C 
HETATM    9  C   UNL     1       7.627  24.977  52.611  1.00  0.00     0.240 C 
HETATM   10  O   UNL     1       7.735  24.487  51.488  1.00  0.00    -0.271 OA
HETATM   11  N   UNL     1       8.041  24.282  53.703  1.00  0.00    -0.322 N 
HETATM   12  N   UNL     1       7.195  26.439  56.552  1.00  0.00    -0.241 NA
HETATM   13  C   UNL     1       7.597  25.647  57.566  1.00  0.00     0.119 A 
HETATM   14  C   UNL     1       8.171  24.407  57.383  1.00  0.00     0.028 A 
HETATM   15  H   UNL     1       8.425  23.367  53.511  1.00  0.00     0.169 HD
ENDROOT
BRANCH   6  16
HETATM   16  C   UNL     1       6.394  28.921  55.540  1.00  0.00     0.076 C 
HETATM   17  C   UNL     1       5.284  29.100  56.404  1.00  0.00     0.068 C 
HETATM   18  C   UNL     1       3.909  28.563  56.243  1.00  0.00     0.073 C 
HETATM   19  N   UNL     1       5.591  29.843  57.471  1.00  0.00    -0.172 NA
HETATM   20  N   UNL     1       6.909  30.134  57.325  1.00  0.00    -0.244 N 
HETATM   21  C   UNL     1       7.375  29.718  56.098  1.00  0.00     0.138 C 
BRANCH  20  22
HETATM   22  C   UNL     1       7.635  30.763  58.374  1.00  0.00     0.058 A 
HETATM   23  C   UNL     1       9.022  30.563  58.468  1.00  0.00     0.031 A 
HETATM   24  C   UNL     1       9.764  31.207  59.461  1.00  0.00     0.002 A 
HETATM   25  C   UNL     1       9.128  32.052  60.367  1.00  0.00     0.000 A 
HETATM   26  C   UNL     1       7.751  32.253  60.284  1.00  0.00     0.002 A 
HETATM   27  C   UNL     1       7.002  31.612  59.292  1.00  0.00     0.031 A 
ENDBRANCH  20  22
ENDBRANCH   6  16
TORSDOF 2
ENDMDL
MODEL 6
REMARK VINA RESULT:      -8.6      3.180      5.398
REMARK  2 active torsions:
REMARK  status: ('A' for Active; 'I' for Inactive)
REMARK       I    between atoms: N_5  and  C_6 
REMARK    1  A    between atoms: C_6  and  C_7 
REMARK    2  A    between atoms: N_11  and  C_12 
ROOT
HETATM    1  C   UNL     1       2.551  31.826  55.413  1.00  0.00     0.050 C 
HETATM    2  C   UNL     1       3.728  31.880  56.346  1.00  0.00    -0.030 A 
HETATM    3  C   UNL     1       4.633  30.810  56.496  1.00  0.00     0.087 A 
HETATM    4  C   UNL     1       5.719  30.931  57.385  1.00  0.00     0.160 A 
HETATM    5  N   UNL     1       6.606  29.834  57.578  1.00  0.00    -0.287 N 
HETATM    6  C   UNL     1       7.735  29.788  58.418  1.00  0.00     0.263 C 
HETATM    7  O   UNL     1       8.547  28.863  58.303  1.00  0.00    -0.267 OA
HETATM    8  C   UNL     1       6.474  28.675  56.702  1.00  0.00     0.237 C 
HETATM    9  C   UNL     1       5.272  28.576  55.785  1.00  0.00     0.240 C 
HETATM   10  O   UNL     1       5.060  27.597  55.071  1.00  0.00    -0.271 OA
HETATM   11  N   UNL     1       4.435  29.646  55.744  1.00  0.00    -0.322 N 
HETATM   12  N   UNL     1       5.927  32.081  58.053  1.00  0.00    -0.241 NA
HETATM   13  C   UNL     1       5.059  33.102  57.901  1.00  0.00     0.119 A 
HETATM   14  C   UNL     1       3.957  33.047  57.076  1.00  0.00     0.028 A 
HETATM   15  H   UNL     1       3.661  29.563  55.099  1.00  0.00     0.169 HD
ENDROOT
BRANCH   6  16
HETATM   16  C   UNL     1       8.001  30.800  59.426  1.00  0.00     0.076 C 
HETATM   17  C   UNL     1       9.093  31.705  59.459  1.00  0.00     0.068 C 
HETATM   18  C   UNL     1      10.204  31.827  58.482  1.00  0.00     0.073 C 
HETATM   19  N   UNL     1       9.042  32.517  60.519  1.00  0.00    -0.172 NA
HETATM   20  N   UNL     1       7.904  32.166  61.172  1.00  0.00    -0.244 N 
HETATM   21  C   UNL     1       7.343  31.038  60.617  1.00  0.00     0.138 C 
BRANCH  20  22
HETATM   22  C   UNL     1       7.421  32.945  62.260  1.00  0.00     0.058 A 
HETATM   23  C   UNL     1       7.915  32.703  63.553  1.00  0.00     0.031 A 
HETATM   24  C   UNL     1       7.491  33.484  64.629  1.00  0.00     0.002 A 
HETATM   25  C   UNL     1       6.571  34.510  64.426  1.00  0.00     0.000 A 
HETATM   26  C   UNL     1       6.073  34.755  63.147  1.00  0.00     0.002 A 
HETATM   27  C   UNL     1       6.493  33.977  62.064  1.00  0.00     0.031 A 
ENDBRANCH  20  22
ENDBRANCH   6  16
TORSDOF 2
ENDMDL
MODEL 7
REMARK VINA RESULT:      -8.4      2.747      7.872
REMARK  2 active torsions:
REMARK  status: ('A' for Active; 'I' for Inactive)
REMARK       I    between atoms: N_5  and  C_6 
REMARK    1  A    between atoms: C_6  and  C_7 
REMARK    2  A    between atoms: N_11  and  C_12 
ROOT
HETATM    1  C   UNL     1       3.968  32.695  58.670  1.00  0.00     0.050 C 
HETATM    2  C   UNL     1       4.374  31.451  57.929  1.00  0.00    -0.030 A 
HETATM    3  C   UNL     1       5.615  30.815  58.130  1.00  0.00     0.087 A 
HETATM    4  C   UNL     1       5.929  29.647  57.406  1.00  0.00     0.160 A 
HETATM    5  N   UNL     1       7.201  29.030  57.568  1.00  0.00    -0.287 N 
HETATM    6  C   UNL     1       7.671  27.865  56.932  1.00  0.00     0.263 C 
HETATM    7  O   UNL     1       8.695  27.312  57.347  1.00  0.00    -0.267 OA
HETATM    8  C   UNL     1       8.078  29.520  58.627  1.00  0.00     0.237 C 
HETATM    9  C   UNL     1       7.714  30.796  59.356  1.00  0.00     0.240 C 
HETATM   10  O   UNL     1       8.438  31.304  60.210  1.00  0.00    -0.271 OA
HETATM   11  N   UNL     1       6.511  31.356  59.059  1.00  0.00    -0.322 N 
HETATM   12  N   UNL     1       5.029  29.108  56.563  1.00  0.00    -0.241 NA
HETATM   13  C   UNL     1       3.842  29.721  56.379  1.00  0.00     0.119 A 
HETATM   14  C   UNL     1       3.476  30.882  57.026  1.00  0.00     0.028 A 
HETATM   15  H   UNL     1       6.282  32.189  59.586  1.00  0.00     0.169 HD
ENDROOT
BRANCH   6  16
HETATM   16  C   UNL     1       6.992  27.269  55.794  1.00  0.00     0.076 C 
HETATM   17  C   UNL     1       6.174  26.110  55.802  1.00  0.00     0.068 C 
HETATM   18  C   UNL     1       5.826  25.248  56.959  1.00  0.00     0.073 C 
HETATM   19  N   UNL     1       5.689  25.828  54.588  1.00  0.00    -0.172 NA
HETATM   20  N   UNL     1       6.165  26.814  53.786  1.00  0.00    -0.244 N 
HETATM   21  C   UNL     1       7.072  27.604  54.457  1.00  0.00     0.138 C 
BRANCH  20  22
HETATM   22  C   UNL     1       5.704  26.947  52.446  1.00  0.00     0.058 A 
HETATM   23  C   UNL     1       5.654  28.223  51.860  1.00  0.00     0.031 A 
HETATM   24  C   UNL     1       5.249  28.373  50.532  1.00  0.00     0.002 A 
HETATM   25  C   UNL     1       4.889  27.256  49.781  1.00  0.00     0.000 A 
HETATM   26  C   UNL     1       4.932  25.988  50.358  1.00  0.00     0.002 A 
HETATM   27  C   UNL     1       5.337  25.828  51.686  1.00  0.00     0.031 A 
ENDBRANCH  20  22
ENDBRANCH   6  16
TORSDOF 2
ENDMDL
MODEL 8
REMARK VINA RESULT:      -8.3      3.100      5.463
REMARK  2 active torsions:
REMARK  status: ('A' for Active; 'I' for Inactive)
REMARK       I    between atoms: N_5  and  C_6 
REMARK    1  A    between atoms: C_6  and  C_7 
REMARK    2  A    between atoms: N_11  and  C_12 
ROOT
HETATM    1  C   UNL     1       1.814  29.866  50.337  1.00  0.00     0.050 C 
HETATM    2  C   UNL     1       2.937  29.478  51.257  1.00  0.00    -0.030 A 
HETATM    3  C   UNL     1       3.766  28.364  51.021  1.00  0.00     0.087 A 
HETATM    4  C   UNL     1       4.806  28.061  51.923  1.00  0.00     0.160 A 
HETATM    5  N   UNL     1       5.614  26.907  51.716  1.00  0.00    -0.287 N 
HETATM    6  C   UNL     1       6.689  26.466  52.510  1.00  0.00     0.263 C 
HETATM    7  O   UNL     1       7.449  25.591  52.080  1.00  0.00    -0.267 OA
HETATM    8  C   UNL     1       5.463  26.172  50.464  1.00  0.00     0.237 C 
HETATM    9  C   UNL     1       4.311  26.514  49.542  1.00  0.00     0.240 C 
HETATM   10  O   UNL     1       4.082  25.892  48.506  1.00  0.00    -0.271 OA
HETATM   11  N   UNL     1       3.543  27.583  49.881  1.00  0.00    -0.322 N 
HETATM   12  N   UNL     1       5.044  28.859  52.980  1.00  0.00    -0.241 NA
HETATM   13  C   UNL     1       4.248  29.927  53.197  1.00  0.00     0.119 A 
HETATM   14  C   UNL     1       3.192  30.268  52.379  1.00  0.00     0.028 A 
HETATM   15  H   UNL     1       2.803  27.806  49.229  1.00  0.00     0.169 HD
ENDROOT
BRANCH   6  16
HETATM   16  C   UNL     1       6.956  27.005  53.833  1.00  0.00     0.076 C 
HETATM   17  C   UNL     1       6.423  26.547  55.064  1.00  0.00     0.068 C 
HETATM   18  C   UNL     1       5.479  25.422  55.286  1.00  0.00     0.073 C 
HETATM   19  N   UNL     1       6.875  27.255  56.104  1.00  0.00    -0.172 NA
HETATM   20  N   UNL     1       7.726  28.163  55.562  1.00  0.00    -0.244 N 
HETATM   21  C   UNL     1       7.675  28.131  54.186  1.00  0.00     0.138 C 
BRANCH  20  22
HETATM   22  C   UNL     1       8.544  28.979  56.393  1.00  0.00     0.058 A 
HETATM   23  C   UNL     1       8.103  29.304  57.686  1.00  0.00     0.031 A 
HETATM   24  C   UNL     1       8.909  30.064  58.536  1.00  0.00     0.002 A 
HETATM   25  C   UNL     1      10.157  30.506  58.104  1.00  0.00     0.000 A 
HETATM   26  C   UNL     1      10.600  30.191  56.820  1.00  0.00     0.002 A 
HETATM   27  C   UNL     1       9.800  29.430  55.963  1.00  0.00     0.031 A 
ENDBRANCH  20  22
ENDBRANCH   6  16
TORSDOF 2
ENDMDL
MODEL 9
REMARK VINA RESULT:      -8.2      3.320      8.289
REMARK  2 active torsions:
REMARK  status: ('A' for Active; 'I' for Inactive)
REMARK       I    between atoms: N_5  and  C_6 
REMARK    1  A    between atoms: C_6  and  C_7 
REMARK    2  A    between atoms: N_11  and  C_12 
ROOT
HETATM    1  C   UNL     1       3.943  34.823  60.684  1.00  0.00     0.050 C 
HETATM    2  C   UNL     1       4.809  33.729  60.126  1.00  0.00    -0.030 A 
HETATM    3  C   UNL     1       5.856  33.136  60.858  1.00  0.00     0.087 A 
HETATM    4  C   UNL     1       6.627  32.110  60.275  1.00  0.00     0.160 A 
HETATM    5  N   UNL     1       7.718  31.543  60.992  1.00  0.00    -0.287 N 
HETATM    6  C   UNL     1       8.578  30.515  60.563  1.00  0.00     0.263 C 
HETATM    7  O   UNL     1       9.323  29.960  61.378  1.00  0.00    -0.267 OA
HETATM    8  C   UNL     1       7.891  31.912  62.394  1.00  0.00     0.237 C 
HETATM    9  C   UNL     1       7.062  33.042  62.967  1.00  0.00     0.240 C 
HETATM   10  O   UNL     1       7.202  33.453  64.118  1.00  0.00    -0.271 OA
HETATM   11  N   UNL     1       6.104  33.576  62.164  1.00  0.00    -0.322 N 
HETATM   12  N   UNL     1       6.334  31.658  59.042  1.00  0.00    -0.241 NA
HETATM   13  C   UNL     1       5.327  32.228  58.348  1.00  0.00     0.119 A 
HETATM   14  C   UNL     1       4.552  33.256  58.838  1.00  0.00     0.028 A 
HETATM   15  H   UNL     1       5.546  34.307  62.586  1.00  0.00     0.169 HD
ENDROOT
BRANCH   6  16
HETATM   16  C   UNL     1       8.627  30.063  59.183  1.00  0.00     0.076 C 
HETATM   17  C   UNL     1       9.449  30.576  58.147  1.00  0.00     0.068 C 
HETATM   18  C   UNL     1      10.437  31.680  58.230  1.00  0.00     0.073 C 
HETATM   19  N   UNL     1       9.259  29.933  56.990  1.00  0.00    -0.172 NA
HETATM   20  N   UNL     1       8.334  28.981  57.269  1.00  0.00    -0.244 N 
HETATM   21  C   UNL     1       7.829  29.137  58.540  1.00  0.00     0.138 C 
BRANCH  20  22
HETATM   22  C   UNL     1       8.015  27.976  56.313  1.00  0.00     0.058 A 
HETATM   23  C   UNL     1       7.939  26.635  56.724  1.00  0.00     0.031 A 
HETATM   24  C   UNL     1       7.582  25.637  55.815  1.00  0.00     0.002 A 
HETATM   25  C   UNL     1       7.301  25.967  54.491  1.00  0.00     0.000 A 
HETATM   26  C   UNL     1       7.379  27.295  54.074  1.00  0.00     0.002 A 
HETATM   27  C   UNL     1       7.735  28.301  54.979  1.00  0.00     0.031 A 
ENDBRANCH  20  22
ENDBRANCH   6  16
TORSDOF 2
ENDMDL
MODEL 10
REMARK VINA RESULT:      -8.1      1.823      3.522
REMARK  2 active torsions:
REMARK  status: ('A' for Active; 'I' for Inactive)
REMARK       I    between atoms: N_5  and  C_6 
REMARK    1  A    between atoms: C_6  and  C_7 
REMARK    2  A    between atoms: N_11  and  C_12 
ROOT
HETATM    1  C   UNL     1       3.160  28.637  53.291  1.00  0.00     0.050 C 
HETATM    2  C   UNL     1       4.304  28.921  54.224  1.00  0.00    -0.030 A 
HETATM    3  C   UNL     1       5.196  27.922  54.662  1.00  0.00     0.087 A 
HETATM    4  C   UNL     1       6.252  28.258  55.533  1.00  0.00     0.160 A 
HETATM    5  N   UNL     1       7.125  27.244  56.018  1.00  0.00    -0.287 N 
HETATM    6  C   UNL     1       8.224  27.408  56.882  1.00  0.00     0.263 C 
HETATM    7  O   UNL     1       9.033  26.484  57.025  1.00  0.00    -0.267 OA
HETATM    8  C   UNL     1       7.016  25.906  55.446  1.00  0.00     0.237 C 
HETATM    9  C   UNL     1       5.847  25.583  54.540  1.00  0.00     0.240 C 
HETATM   10  O   UNL     1       5.653  24.460  54.079  1.00  0.00    -0.271 OA
HETATM   11  N   UNL     1       5.018  26.609  54.210  1.00  0.00    -0.322 N 
HETATM   12  N   UNL     1       6.444  29.537  55.907  1.00  0.00    -0.241 NA
HETATM   13  C   UNL     1       5.588  30.488  55.479  1.00  0.00     0.119 A 
HETATM   14  C   UNL     1       4.514  30.231  54.654  1.00  0.00     0.028 A 
HETATM   15  H   UNL     1       4.266  26.369  53.578  1.00  0.00     0.169 HD
ENDROOT
BRANCH   6  16
HETATM   16  C   UNL     1       8.461  28.636  57.622  1.00  0.00     0.076 C 
HETATM   17  C   UNL     1       9.397  29.654  57.307  1.00  0.00     0.068 C 
HETATM   18  C   UNL     1      10.341  29.700  56.163  1.00  0.00     0.073 C 
HETATM   19  N   UNL     1       9.361  30.660  58.186  1.00  0.00    -0.172 NA
HETATM   20  N   UNL     1       8.384  30.320  59.065  1.00  0.00    -0.244 N 
HETATM   21  C   UNL     1       7.934  29.039  58.834  1.00  0.00     0.138 C 
BRANCH  20  22
HETATM   22  C   UNL     1       7.933  31.247  60.045  1.00  0.00     0.058 A 
HETATM   23  C   UNL     1       6.739  31.954  59.826  1.00  0.00     0.031 A 
HETATM   24  C   UNL     1       6.252  32.835  60.794  1.00  0.00     0.002 A 
HETATM   25  C   UNL     1       6.951  33.019  61.984  1.00  0.00     0.000 A 
HETATM   26  C   UNL     1       8.140  32.324  62.208  1.00  0.00     0.002 A 
HETATM   27  C   UNL     1       8.634  31.440  61.244  1.00  0.00     0.031 A 
ENDBRANCH  20  22
ENDBRANCH   6  16
TORSDOF 2
ENDMDL
