MODEL 1
REMARK VINA RESULT:      -9.8      0.000      0.000
REMARK  7 active torsions:
REMARK  status: ('A' for Active; 'I' for Inactive)
REMARK    1  A    between atoms: O_2  and  C_3 
REMARK    2  A    between atoms: C_6  and  C_7 
REMARK    3  A    between atoms: C_7  and  N_8 
REMARK    4  A    between atoms: C_7  and  C_23 
REMARK       I    between atoms: N_8  and  C_9 
REMARK    5  A    between atoms: C_9  and  C_10 
REMARK    6  A    between atoms: C_10  and  S_11 
REMARK    7  A    between atoms: S_11  and  C_12 
ROOT
HETATM    1  N   UNL     1       7.584  24.809  56.094  1.00  0.00    -0.348 N 
HETATM    2  C   UNL     1       6.939  25.692  56.930  1.00  0.00     0.228 C 
HETATM    3  O   UNL     1       5.715  25.795  56.974  1.00  0.00    -0.273 OA
HETATM    4  H   UNL     1       8.593  24.768  56.117  1.00  0.00     0.163 HD
ENDROOT
BRANCH   1   5
HETATM    5  C   UNL     1       6.851  23.861  55.273  1.00  0.00     0.151 C 
BRANCH   5   6
HETATM    6  C   UNL     1       6.467  24.450  53.920  1.00  0.00    -0.031 A 
HETATM    7  C   UNL     1       5.135  24.586  53.503  1.00  0.00     0.012 A 
HETATM    8  C   UNL     1       4.829  25.185  52.277  1.00  0.00     0.037 A 
HETATM    9  C   UNL     1       5.841  25.673  51.448  1.00  0.00     0.068 A 
HETATM   10  C   UNL     1       7.170  25.527  51.840  1.00  0.00     0.037 A 
HETATM   11  C   UNL     1       7.478  24.924  53.066  1.00  0.00     0.012 A 
BRANCH   9  12
HETATM   12  O   UNL     1       5.408  26.257  50.290  1.00  0.00    -0.356 OA
HETATM   13  C   UNL     1       5.220  27.667  50.328  1.00  0.00     0.210 C 
ENDBRANCH   9  12
ENDBRANCH   5   6
BRANCH   5  14
HETATM   14  C   UNL     1       7.600  22.539  55.141  1.00  0.00    -0.031 A 
HETATM   15  C   UNL     1       8.191  21.961  56.278  1.00  0.00     0.009 A 
HETATM   16  C   UNL     1       8.870  20.744  56.192  1.00  0.00     0.001 A 
HETATM   17  C   UNL     1       8.965  20.083  54.971  1.00  0.00     0.000 A 
HETATM   18  C   UNL     1       8.384  20.640  53.833  1.00  0.00     0.001 A 
HETATM   19  C   UNL     1       7.707  21.858  53.916  1.00  0.00     0.009 A 
ENDBRANCH   5  14
ENDBRANCH   1   5
BRANCH   2  20
HETATM   20  C   UNL     1       7.831  26.485  57.870  1.00  0.00     0.185 C 
BRANCH  20  21
HETATM   21  S   UNL     1       8.599  27.912  57.039  1.00  0.00    -0.081 SA
BRANCH  21  22
HETATM   22  C   UNL     1       7.516  29.162  57.548  1.00  0.00     0.192 A 
HETATM   23  N   UNL     1       7.854  30.186  58.395  1.00  0.00    -0.311 N 
HETATM   24  C   UNL     1       6.712  30.949  58.513  1.00  0.00     0.130 A 
HETATM   25  C   UNL     1       9.127  30.390  59.055  1.00  0.00     0.133 C 
HETATM   26  C   UNL     1       6.560  32.198  59.311  1.00  0.00     0.081 C 
HETATM   27  N   UNL     1       5.757  30.401  57.787  1.00  0.00    -0.134 NA
HETATM   28  C   UNL     1       7.292  32.158  60.646  1.00  0.00     0.008 C 
HETATM   29  C   UNL     1       8.788  32.455  60.532  1.00  0.00     0.002 C 
HETATM   30  C   UNL     1       9.495  31.847  59.322  1.00  0.00     0.020 C 
HETATM   31  N   UNL     1       6.262  29.278  57.187  1.00  0.00    -0.123 NA
ENDBRANCH  21  22
ENDBRANCH  20  21
ENDBRANCH   2  20
TORSDOF 7
ENDMDL
MODEL 2
REMARK VINA RESULT:      -9.7      1.890      2.985
REMARK  7 active torsions:
REMARK  status: ('A' for Active; 'I' for Inactive)
REMARK    1  A    between atoms: O_2  and  C_3 
REMARK    2  A    between atoms: C_6  and  C_7 
REMARK    3  A    between atoms: C_7  and  N_8 
REMARK    4  A    between atoms: C_7  and  C_23 
REMARK       I    between atoms: N_8  and  C_9 
REMARK    5  A    between atoms: C_9  and  C_10 
REMARK    6  A    between atoms: C_10  and  S_11 
REMARK    7  A    between atoms: S_11  and  C_12 
ROOT
HETATM    1  N   UNL     1       7.491  24.833  55.916  1.00  0.00    -0.348 N 
HETATM    2  C   UNL     1       6.874  25.527  56.933  1.00  0.00     0.228 C 
HETATM    3  O   UNL     1       5.664  25.465  57.143  1.00  0.00    -0.273 OA
HETATM    4  H   UNL     1       8.491  24.920  55.807  1.00  0.00     0.163 HD
ENDROOT
BRANCH   1   5
HETATM    5  C   UNL     1       6.762  23.896  55.079  1.00  0.00     0.151 C 
BRANCH   5   6
HETATM    6  C   UNL     1       6.368  24.509  53.739  1.00  0.00    -0.031 A 
HETATM    7  C   UNL     1       5.063  24.445  53.230  1.00  0.00     0.012 A 
HETATM    8  C   UNL     1       4.736  25.072  52.024  1.00  0.00     0.037 A 
HETATM    9  C   UNL     1       5.697  25.787  51.308  1.00  0.00     0.068 A 
HETATM   10  C   UNL     1       7.002  25.843  51.791  1.00  0.00     0.037 A 
HETATM   11  C   UNL     1       7.333  25.213  52.997  1.00  0.00     0.012 A 
BRANCH   9  12
HETATM   12  O   UNL     1       5.243  26.372  50.158  1.00  0.00    -0.356 OA
HETATM   13  C   UNL     1       5.228  27.795  50.139  1.00  0.00     0.210 C 
ENDBRANCH   9  12
ENDBRANCH   5   6
BRANCH   5  14
HETATM   14  C   UNL     1       7.521  22.583  54.918  1.00  0.00    -0.031 A 
HETATM   15  C   UNL     1       8.047  21.943  56.053  1.00  0.00     0.009 A 
HETATM   16  C   UNL     1       8.733  20.732  55.939  1.00  0.00     0.001 A 
HETATM   17  C   UNL     1       8.899  20.140  54.690  1.00  0.00     0.000 A 
HETATM   18  C   UNL     1       8.382  20.758  53.554  1.00  0.00     0.001 A 
HETATM   19  C   UNL     1       7.699  21.970  53.664  1.00  0.00     0.009 A 
ENDBRANCH   5  14
ENDBRANCH   1   5
BRANCH   2  20
HETATM   20  C   UNL     1       7.793  26.318  57.847  1.00  0.00     0.185 C 
BRANCH  20  21
HETATM   21  S   UNL     1       8.507  27.767  57.007  1.00  0.00    -0.081 SA
BRANCH  21  22
HETATM   22  C   UNL     1       7.151  28.838  57.072  1.00  0.00     0.192 A 
HETATM   23  N   UNL     1       6.200  28.949  56.090  1.00  0.00    -0.311 N 
HETATM   24  C   UNL     1       5.308  29.892  56.555  1.00  0.00     0.130 A 
HETATM   25  C   UNL     1       6.171  28.254  54.819  1.00  0.00     0.133 C 
HETATM   26  C   UNL     1       4.073  30.359  55.864  1.00  0.00     0.081 C 
HETATM   27  N   UNL     1       5.715  30.316  57.735  1.00  0.00    -0.134 NA
HETATM   28  C   UNL     1       4.241  30.508  54.358  1.00  0.00     0.008 C 
HETATM   29  C   UNL     1       4.123  29.188  53.596  1.00  0.00     0.002 C 
HETATM   30  C   UNL     1       4.778  27.978  54.261  1.00  0.00     0.020 C 
HETATM   31  N   UNL     1       6.872  29.658  58.055  1.00  0.00    -0.123 NA
ENDBRANCH  21  22
ENDBRANCH  20  21
ENDBRANCH   2  20
TORSDOF 7
ENDMDL
MODEL 3
REMARK VINA RESULT:      -9.3      2.288      4.704
REMARK  7 active torsions:
REMARK  status: ('A' for Active; 'I' for Inactive)
REMARK    1  A    between atoms: O_2  and  C_3 
REMARK    2  A    between atoms: C_6  and  C_7 
REMARK    3  A    between atoms: C_7  and  N_8 
REMARK    4  A    between atoms: C_7  and  C_23 
REMARK       I    between atoms: N_8  and  C_9 
REMARK    5  A    between atoms: C_9  and  C_10 
REMARK    6  A    between atoms: C_10  and  S_11 
REMARK    7  A    between atoms: S_11  and  C_12 
ROOT
HETATM    1  N   UNL     1       7.306  27.077  55.773  1.00  0.00    -0.348 N 
HETATM    2  C   UNL     1       7.884  28.270  56.143  1.00  0.00     0.228 C 
HETATM    3  O   UNL     1       8.518  28.974  55.360  1.00  0.00    -0.273 OA
HETATM    4  H   UNL     1       6.788  26.553  56.464  1.00  0.00     0.163 HD
ENDROOT
BRANCH   1   5
HETATM    5  C   UNL     1       7.322  26.615  54.396  1.00  0.00     0.151 C 
BRANCH   5   6
HETATM    6  C   UNL     1       7.448  25.098  54.300  1.00  0.00    -0.031 A 
HETATM    7  C   UNL     1       7.926  24.449  53.153  1.00  0.00     0.012 A 
HETATM    8  C   UNL     1       8.079  23.059  53.131  1.00  0.00     0.037 A 
HETATM    9  C   UNL     1       7.774  22.290  54.255  1.00  0.00     0.068 A 
HETATM   10  C   UNL     1       7.280  22.919  55.396  1.00  0.00     0.037 A 
HETATM   11  C   UNL     1       7.122  24.310  55.417  1.00  0.00     0.012 A 
BRANCH   9  12
HETATM   12  O   UNL     1       7.990  20.947  54.113  1.00  0.00    -0.356 OA
HETATM   13  C   UNL     1       8.194  20.479  52.784  1.00  0.00     0.210 C 
ENDBRANCH   9  12
ENDBRANCH   5   6
BRANCH   5  14
HETATM   14  C   UNL     1       6.127  27.150  53.613  1.00  0.00    -0.031 A 
HETATM   15  C   UNL     1       4.959  27.522  54.300  1.00  0.00     0.009 A 
HETATM   16  C   UNL     1       3.854  28.030  53.613  1.00  0.00     0.001 A 
HETATM   17  C   UNL     1       3.901  28.177  52.230  1.00  0.00     0.000 A 
HETATM   18  C   UNL     1       5.051  27.816  51.531  1.00  0.00     0.001 A 
HETATM   19  C   UNL     1       6.156  27.305  52.215  1.00  0.00     0.009 A 
ENDBRANCH   5  14
ENDBRANCH   1   5
BRANCH   2  20
HETATM   20  C   UNL     1       7.621  28.718  57.570  1.00  0.00     0.185 C 
BRANCH  20  21
HETATM   21  S   UNL     1       8.839  29.949  58.133  1.00  0.00    -0.081 SA
BRANCH  21  22
HETATM   22  C   UNL     1       7.770  31.122  58.821  1.00  0.00     0.192 A 
HETATM   23  N   UNL     1       7.790  31.517  60.134  1.00  0.00    -0.311 N 
HETATM   24  C   UNL     1       6.796  32.466  60.242  1.00  0.00     0.130 A 
HETATM   25  C   UNL     1       8.646  31.008  61.187  1.00  0.00     0.133 C 
HETATM   26  C   UNL     1       6.425  33.224  61.470  1.00  0.00     0.081 C 
HETATM   27  N   UNL     1       6.219  32.614  59.065  1.00  0.00    -0.134 NA
HETATM   28  C   UNL     1       6.474  32.384  62.739  1.00  0.00     0.008 C 
HETATM   29  C   UNL     1       7.883  32.221  63.309  1.00  0.00     0.002 C 
HETATM   30  C   UNL     1       8.994  32.011  62.283  1.00  0.00     0.020 C 
HETATM   31  N   UNL     1       6.828  31.767  58.177  1.00  0.00    -0.123 NA
ENDBRANCH  21  22
ENDBRANCH  20  21
ENDBRANCH   2  20
TORSDOF 7
ENDMDL
MODEL 4
REMARK VINA RESULT:      -9.3      3.791      8.326
REMARK  7 active torsions:
REMARK  status: ('A' for Active; 'I' for Inactive)
REMARK    1  A    between atoms: O_2  and  C_3 
REMARK    2  A    between atoms: C_6  and  C_7 
REMARK    3  A    between atoms: C_7  and  N_8 
REMARK    4  A    between atoms: C_7  and  C_23 
REMARK       I    between atoms: N_8  and  C_9 
REMARK    5  A    between atoms: C_9  and  C_10 
REMARK    6  A    between atoms: C_10  and  S_11 
REMARK    7  A    between atoms: S_11  and  C_12 
ROOT
HETATM    1  N   UNL     1       5.454  27.304  53.620  1.00  0.00    -0.348 N 
HETATM    2  C   UNL     1       4.431  28.206  53.807  1.00  0.00     0.228 C 
HETATM    3  O   UNL     1       3.909  28.403  54.903  1.00  0.00    -0.273 OA
HETATM    4  H   UNL     1       5.845  27.200  52.695  1.00  0.00     0.163 HD
ENDROOT
BRANCH   1   5
HETATM    5  C   UNL     1       6.058  26.593  54.734  1.00  0.00     0.151 C 
BRANCH   5   6
HETATM    6  C   UNL     1       6.705  25.283  54.295  1.00  0.00    -0.031 A 
HETATM    7  C   UNL     1       7.273  25.107  53.025  1.00  0.00     0.012 A 
HETATM    8  C   UNL     1       7.907  23.907  52.688  1.00  0.00     0.037 A 
HETATM    9  C   UNL     1       7.999  22.865  53.611  1.00  0.00     0.068 A 
HETATM   10  C   UNL     1       7.422  23.018  54.869  1.00  0.00     0.037 A 
HETATM   11  C   UNL     1       6.784  24.217  55.208  1.00  0.00     0.012 A 
BRANCH   9  12
HETATM   12  O   UNL     1       8.664  21.755  53.165  1.00  0.00    -0.356 OA
HETATM   13  C   UNL     1       7.910  20.550  53.109  1.00  0.00     0.210 C 
ENDBRANCH   9  12
ENDBRANCH   5   6
BRANCH   5  14
HETATM   14  C   UNL     1       7.020  27.485  55.511  1.00  0.00    -0.031 A 
HETATM   15  C   UNL     1       7.016  27.450  56.916  1.00  0.00     0.009 A 
HETATM   16  C   UNL     1       7.896  28.243  57.656  1.00  0.00     0.001 A 
HETATM   17  C   UNL     1       8.797  29.079  57.003  1.00  0.00     0.000 A 
HETATM   18  C   UNL     1       8.818  29.126  55.611  1.00  0.00     0.001 A 
HETATM   19  C   UNL     1       7.937  28.336  54.869  1.00  0.00     0.009 A 
ENDBRANCH   5  14
ENDBRANCH   1   5
BRANCH   2  20
HETATM   20  C   UNL     1       4.032  29.017  52.587  1.00  0.00     0.185 C 
BRANCH  20  21
HETATM   21  S   UNL     1       5.317  28.985  51.298  1.00  0.00    -0.081 SA
BRANCH  21  22
HETATM   22  C   UNL     1       4.703  27.708  50.306  1.00  0.00     0.192 A 
HETATM   23  N   UNL     1       3.817  27.882  49.274  1.00  0.00    -0.311 N 
HETATM   24  C   UNL     1       3.616  26.621  48.754  1.00  0.00     0.130 A 
HETATM   25  C   UNL     1       3.196  29.122  48.856  1.00  0.00     0.133 C 
HETATM   26  C   UNL     1       2.748  26.270  47.594  1.00  0.00     0.081 C 
HETATM   27  N   UNL     1       4.333  25.756  49.444  1.00  0.00    -0.134 NA
HETATM   28  C   UNL     1       1.446  27.058  47.551  1.00  0.00     0.008 C 
HETATM   29  C   UNL     1       1.601  28.461  46.963  1.00  0.00     0.002 C 
HETATM   30  C   UNL     1       2.867  29.214  47.369  1.00  0.00     0.020 C 
HETATM   31  N   UNL     1       5.010  26.438  50.420  1.00  0.00    -0.123 NA
ENDBRANCH  21  22
ENDBRANCH  20  21
ENDBRANCH   2  20
TORSDOF 7
ENDMDL
MODEL 5
REMARK VINA RESULT:      -9.2      2.534      5.061
REMARK  7 active torsions:
REMARK  status: ('A' for Active; 'I' for Inactive)
REMARK    1  A    between atoms: O_2  and  C_3 
REMARK    2  A    between atoms: C_6  and  C_7 
REMARK    3  A    between atoms: C_7  and  N_8 
REMARK    4  A    between atoms: C_7  and  C_23 
REMARK       I    between atoms: N_8  and  C_9 
REMARK    5  A    between atoms: C_9  and  C_10 
REMARK    6  A    between atoms: C_10  and  S_11 
REMARK    7  A    between atoms: S_11  and  C_12 
ROOT
HETATM    1  N   UNL     1       7.413  27.199  56.122  1.00  0.00    -0.348 N 
HETATM    2  C   UNL     1       8.026  28.356  56.547  1.00  0.00     0.228 C 
HETATM    3  O   UNL     1       8.699  29.065  55.802  1.00  0.00    -0.273 OA
HETATM    4  H   UNL     1       6.865  26.669  56.784  1.00  0.00     0.163 HD
ENDROOT
BRANCH   1   5
HETATM    5  C   UNL     1       7.438  26.790  54.728  1.00  0.00     0.151 C 
BRANCH   5   6
HETATM    6  C   UNL     1       7.451  25.272  54.576  1.00  0.00    -0.031 A 
HETATM    7  C   UNL     1       7.626  24.636  53.338  1.00  0.00     0.012 A 
HETATM    8  C   UNL     1       7.689  23.242  53.255  1.00  0.00     0.037 A 
HETATM    9  C   UNL     1       7.594  22.454  54.403  1.00  0.00     0.068 A 
HETATM   10  C   UNL     1       7.401  23.070  55.637  1.00  0.00     0.037 A 
HETATM   11  C   UNL     1       7.334  24.466  55.721  1.00  0.00     0.012 A 
BRANCH   9  12
HETATM   12  O   UNL     1       7.694  21.106  54.188  1.00  0.00    -0.356 OA
HETATM   13  C   UNL     1       8.210  20.707  52.924  1.00  0.00     0.210 C 
ENDBRANCH   9  12
ENDBRANCH   5   6
BRANCH   5  14
HETATM   14  C   UNL     1       6.313  27.444  53.933  1.00  0.00    -0.031 A 
HETATM   15  C   UNL     1       5.007  27.445  54.453  1.00  0.00     0.009 A 
HETATM   16  C   UNL     1       3.960  28.050  53.756  1.00  0.00     0.001 A 
HETATM   17  C   UNL     1       4.201  28.668  52.532  1.00  0.00     0.000 A 
HETATM   18  C   UNL     1       5.489  28.679  52.002  1.00  0.00     0.001 A 
HETATM   19  C   UNL     1       6.538  28.072  52.695  1.00  0.00     0.009 A 
ENDBRANCH   5  14
ENDBRANCH   1   5
BRANCH   2  20
HETATM   20  C   UNL     1       7.753  28.759  57.985  1.00  0.00     0.185 C 
BRANCH  20  21
HETATM   21  S   UNL     1       7.568  30.562  58.164  1.00  0.00    -0.081 SA
BRANCH  21  22
HETATM   22  C   UNL     1       8.093  30.748  59.802  1.00  0.00     0.192 A 
HETATM   23  N   UNL     1       7.431  31.482  60.752  1.00  0.00    -0.311 N 
HETATM   24  C   UNL     1       8.180  31.344  61.901  1.00  0.00     0.130 A 
HETATM   25  C   UNL     1       6.229  32.269  60.568  1.00  0.00     0.133 C 
HETATM   26  C   UNL     1       7.873  31.936  63.235  1.00  0.00     0.081 C 
HETATM   27  N   UNL     1       9.224  30.581  61.641  1.00  0.00    -0.134 NA
HETATM   28  C   UNL     1       7.308  33.347  63.155  1.00  0.00     0.008 C 
HETATM   29  C   UNL     1       5.814  33.390  62.833  1.00  0.00     0.002 C 
HETATM   30  C   UNL     1       5.330  32.378  61.795  1.00  0.00     0.020 C 
HETATM   31  N   UNL     1       9.170  30.212  60.323  1.00  0.00    -0.123 NA
ENDBRANCH  21  22
ENDBRANCH  20  21
ENDBRANCH   2  20
TORSDOF 7
ENDMDL
MODEL 6
REMARK VINA RESULT:      -9.1      1.682      2.455
REMARK  7 active torsions:
REMARK  status: ('A' for Active; 'I' for Inactive)
REMARK    1  A    between atoms: O_2  and  C_3 
REMARK    2  A    between atoms: C_6  and  C_7 
REMARK    3  A    between atoms: C_7  and  N_8 
REMARK    4  A    between atoms: C_7  and  C_23 
REMARK       I    between atoms: N_8  and  C_9 
REMARK    5  A    between atoms: C_9  and  C_10 
REMARK    6  A    between atoms: C_10  and  S_11 
REMARK    7  A    between atoms: S_11  and  C_12 
ROOT
HETATM    1  N   UNL     1       7.144  27.444  54.290  1.00  0.00    -0.348 N 
HETATM    2  C   UNL     1       6.896  28.104  55.473  1.00  0.00     0.228 C 
HETATM    3  O   UNL     1       5.898  27.889  56.159  1.00  0.00    -0.273 OA
HETATM    4  H   UNL     1       7.989  27.661  53.782  1.00  0.00     0.163 HD
ENDROOT
BRANCH   1   5
HETATM    5  C   UNL     1       6.286  26.370  53.821  1.00  0.00     0.151 C 
BRANCH   5   6
HETATM    6  C   UNL     1       5.760  26.629  52.413  1.00  0.00    -0.031 A 
HETATM    7  C   UNL     1       5.186  25.623  51.622  1.00  0.00     0.012 A 
HETATM    8  C   UNL     1       4.664  25.920  50.359  1.00  0.00     0.037 A 
HETATM    9  C   UNL     1       4.691  27.225  49.864  1.00  0.00     0.068 A 
HETATM   10  C   UNL     1       5.275  28.230  50.630  1.00  0.00     0.037 A 
HETATM   11  C   UNL     1       5.801  27.934  51.894  1.00  0.00     0.012 A 
BRANCH   9  12
HETATM   12  O   UNL     1       4.127  27.386  48.628  1.00  0.00    -0.356 OA
HETATM   13  C   UNL     1       3.535  26.228  48.050  1.00  0.00     0.210 C 
ENDBRANCH   9  12
ENDBRANCH   5   6
BRANCH   5  14
HETATM   14  C   UNL     1       6.971  25.013  53.945  1.00  0.00    -0.031 A 
HETATM   15  C   UNL     1       6.721  24.211  55.073  1.00  0.00     0.009 A 
HETATM   16  C   UNL     1       7.321  22.958  55.208  1.00  0.00     0.001 A 
HETATM   17  C   UNL     1       8.175  22.483  54.216  1.00  0.00     0.000 A 
HETATM   18  C   UNL     1       8.432  23.262  53.090  1.00  0.00     0.001 A 
HETATM   19  C   UNL     1       7.837  24.517  52.954  1.00  0.00     0.009 A 
ENDBRANCH   5  14
ENDBRANCH   1   5
BRANCH   2  20
HETATM   20  C   UNL     1       7.978  29.064  55.935  1.00  0.00     0.185 C 
BRANCH  20  21
HETATM   21  S   UNL     1       8.356  28.864  57.705  1.00  0.00    -0.081 SA
BRANCH  21  22
HETATM   22  C   UNL     1       7.505  30.229  58.340  1.00  0.00     0.192 A 
HETATM   23  N   UNL     1       7.812  30.859  59.519  1.00  0.00    -0.311 N 
HETATM   24  C   UNL     1       6.904  31.890  59.626  1.00  0.00     0.130 A 
HETATM   25  C   UNL     1       8.844  30.485  60.465  1.00  0.00     0.133 C 
HETATM   26  C   UNL     1       6.828  32.892  60.727  1.00  0.00     0.081 C 
HETATM   27  N   UNL     1       6.104  31.863  58.578  1.00  0.00    -0.134 NA
HETATM   28  C   UNL     1       7.101  32.302  62.103  1.00  0.00     0.008 C 
HETATM   29  C   UNL     1       8.589  32.131  62.410  1.00  0.00     0.002 C 
HETATM   30  C   UNL     1       9.455  31.642  61.251  1.00  0.00     0.020 C 
HETATM   31  N   UNL     1       6.479  30.819  57.775  1.00  0.00    -0.123 NA
ENDBRANCH  21  22
ENDBRANCH  20  21
ENDBRANCH   2  20
TORSDOF 7
ENDMDL
MODEL 7
REMARK VINA RESULT:      -9.1      3.981      8.359
REMARK  7 active torsions:
REMARK  status: ('A' for Active; 'I' for Inactive)
REMARK    1  A    between atoms: O_2  and  C_3 
REMARK    2  A    between atoms: C_6  and  C_7 
REMARK    3  A    between atoms: C_7  and  N_8 
REMARK    4  A    between atoms: C_7  and  C_23 
REMARK       I    between atoms: N_8  and  C_9 
REMARK    5  A    between atoms: C_9  and  C_10 
REMARK    6  A    between atoms: C_10  and  S_11 
REMARK    7  A    between atoms: S_11  and  C_12 
ROOT
HETATM    1  N   UNL     1       5.542  27.594  53.895  1.00  0.00    -0.348 N 
HETATM    2  C   UNL     1       4.495  28.440  54.182  1.00  0.00     0.228 C 
HETATM    3  O   UNL     1       3.980  28.507  55.296  1.00  0.00    -0.273 OA
HETATM    4  H   UNL     1       5.927  27.597  52.961  1.00  0.00     0.163 HD
ENDROOT
BRANCH   1   5
HETATM    5  C   UNL     1       6.179  26.791  54.924  1.00  0.00     0.151 C 
BRANCH   5   6
HETATM    6  C   UNL     1       6.787  25.511  54.359  1.00  0.00    -0.031 A 
HETATM    7  C   UNL     1       6.827  24.309  55.081  1.00  0.00     0.012 A 
HETATM    8  C   UNL     1       7.342  23.145  54.500  1.00  0.00     0.037 A 
HETATM    9  C   UNL     1       7.813  23.152  53.187  1.00  0.00     0.068 A 
HETATM   10  C   UNL     1       7.797  24.342  52.464  1.00  0.00     0.037 A 
HETATM   11  C   UNL     1       7.286  25.509  53.045  1.00  0.00     0.012 A 
BRANCH   9  12
HETATM   12  O   UNL     1       8.268  21.945  52.730  1.00  0.00    -0.356 OA
HETATM   13  C   UNL     1       7.840  20.797  53.453  1.00  0.00     0.210 C 
ENDBRANCH   9  12
ENDBRANCH   5   6
BRANCH   5  14
HETATM   14  C   UNL     1       7.186  27.607  55.727  1.00  0.00    -0.031 A 
HETATM   15  C   UNL     1       8.071  28.469  55.057  1.00  0.00     0.009 A 
HETATM   16  C   UNL     1       8.993  29.242  55.766  1.00  0.00     0.001 A 
HETATM   17  C   UNL     1       9.043  29.168  57.155  1.00  0.00     0.000 A 
HETATM   18  C   UNL     1       8.172  28.321  57.837  1.00  0.00     0.001 A 
HETATM   19  C   UNL     1       7.251  27.546  57.131  1.00  0.00     0.009 A 
ENDBRANCH   5  14
ENDBRANCH   1   5
BRANCH   2  20
HETATM   20  C   UNL     1       4.059  29.360  53.055  1.00  0.00     0.185 C 
BRANCH  20  21
HETATM   21  S   UNL     1       4.781  28.868  51.457  1.00  0.00    -0.081 SA
BRANCH  21  22
HETATM   22  C   UNL     1       3.339  28.756  50.508  1.00  0.00     0.192 A 
HETATM   23  N   UNL     1       3.128  27.831  49.519  1.00  0.00    -0.311 N 
HETATM   24  C   UNL     1       1.859  28.089  49.046  1.00  0.00     0.130 A 
HETATM   25  C   UNL     1       4.062  26.829  49.047  1.00  0.00     0.133 C 
HETATM   26  C   UNL     1       1.146  27.342  47.972  1.00  0.00     0.081 C 
HETATM   27  N   UNL     1       1.357  29.111  49.711  1.00  0.00    -0.134 NA
HETATM   28  C   UNL     1       2.049  26.926  46.820  1.00  0.00     0.008 C 
HETATM   29  C   UNL     1       2.863  25.664  47.106  1.00  0.00     0.002 C 
HETATM   30  C   UNL     1       3.427  25.545  48.521  1.00  0.00     0.020 C 
HETATM   31  N   UNL     1       2.288  29.531  50.624  1.00  0.00    -0.123 NA
ENDBRANCH  21  22
ENDBRANCH  20  21
ENDBRANCH   2  20
TORSDOF 7
ENDMDL
MODEL 8
REMARK VINA RESULT:      -8.9      3.015      9.220
REMARK  7 active torsions:
REMARK  status: ('A' for Active; 'I' for Inactive)
REMARK    1  A    between atoms: O_2  and  C_3 
REMARK    2  A    between atoms: C_6  and  C_7 
REMARK    3  A    between atoms: C_7  and  N_8 
REMARK    4  A    between atoms: C_7  and  C_23 
REMARK       I    between atoms: N_8  and  C_9 
REMARK    5  A    between atoms: C_9  and  C_10 
REMARK    6  A    between atoms: C_10  and  S_11 
REMARK    7  A    between atoms: S_11  and  C_12 
ROOT
HETATM    1  N   UNL     1       6.485  30.026  58.273  1.00  0.00    -0.348 N 
HETATM    2  C   UNL     1       5.468  30.261  57.375  1.00  0.00     0.228 C 
HETATM    3  O   UNL     1       5.355  31.320  56.759  1.00  0.00    -0.273 OA
HETATM    4  H   UNL     1       6.525  29.129  58.736  1.00  0.00     0.163 HD
ENDROOT
BRANCH   1   5
HETATM    5  C   UNL     1       7.557  30.983  58.480  1.00  0.00     0.151 C 
BRANCH   5   6
HETATM    6  C   UNL     1       7.660  31.424  59.937  1.00  0.00    -0.031 A 
HETATM    7  C   UNL     1       6.983  32.545  60.439  1.00  0.00     0.012 A 
HETATM    8  C   UNL     1       7.061  32.877  61.795  1.00  0.00     0.037 A 
HETATM    9  C   UNL     1       7.803  32.093  62.680  1.00  0.00     0.068 A 
HETATM   10  C   UNL     1       8.497  30.988  62.192  1.00  0.00     0.037 A 
HETATM   11  C   UNL     1       8.422  30.656  60.834  1.00  0.00     0.012 A 
BRANCH   9  12
HETATM   12  O   UNL     1       7.778  32.512  63.982  1.00  0.00    -0.356 OA
HETATM   13  C   UNL     1       6.649  33.283  64.375  1.00  0.00     0.210 C 
ENDBRANCH   9  12
ENDBRANCH   5   6
BRANCH   5  14
HETATM   14  C   UNL     1       8.883  30.464  57.935  1.00  0.00    -0.031 A 
HETATM   15  C   UNL     1      10.065  31.182  58.186  1.00  0.00     0.009 A 
HETATM   16  C   UNL     1      11.297  30.724  57.714  1.00  0.00     0.001 A 
HETATM   17  C   UNL     1      11.368  29.538  56.988  1.00  0.00     0.000 A 
HETATM   18  C   UNL     1      10.207  28.811  56.731  1.00  0.00     0.001 A 
HETATM   19  C   UNL     1       8.974  29.268  57.199  1.00  0.00     0.009 A 
ENDBRANCH   5  14
ENDBRANCH   1   5
BRANCH   2  20
HETATM   20  C   UNL     1       4.529  29.096  57.118  1.00  0.00     0.185 C 
BRANCH  20  21
HETATM   21  S   UNL     1       5.429  27.525  56.926  1.00  0.00    -0.081 SA
BRANCH  21  22
HETATM   22  C   UNL     1       5.253  27.296  55.220  1.00  0.00     0.192 A 
HETATM   23  N   UNL     1       5.878  26.311  54.499  1.00  0.00    -0.311 N 
HETATM   24  C   UNL     1       5.447  26.484  53.201  1.00  0.00     0.130 A 
HETATM   25  C   UNL     1       6.822  25.330  54.995  1.00  0.00     0.133 C 
HETATM   26  C   UNL     1       5.821  25.649  52.025  1.00  0.00     0.081 C 
HETATM   27  N   UNL     1       4.626  27.515  53.159  1.00  0.00    -0.134 NA
HETATM   28  C   UNL     1       7.280  25.215  52.029  1.00  0.00     0.008 C 
HETATM   29  C   UNL     1       7.557  24.010  52.927  1.00  0.00     0.002 C 
HETATM   30  C   UNL     1       6.814  23.992  54.262  1.00  0.00     0.020 C 
HETATM   31  N   UNL     1       4.509  28.025  54.425  1.00  0.00    -0.123 NA
ENDBRANCH  21  22
ENDBRANCH  20  21
ENDBRANCH   2  20
TORSDOF 7
ENDMDL
MODEL 9
REMARK VINA RESULT:      -8.7      1.933      3.108
REMARK  7 active torsions:
REMARK  status: ('A' for Active; 'I' for Inactive)
REMARK    1  A    between atoms: O_2  and  C_3 
REMARK    2  A    between atoms: C_6  and  C_7 
REMARK    3  A    between atoms: C_7  and  N_8 
REMARK    4  A    between atoms: C_7  and  C_23 
REMARK       I    between atoms: N_8  and  C_9 
REMARK    5  A    between atoms: C_9  and  C_10 
REMARK    6  A    between atoms: C_10  and  S_11 
REMARK    7  A    between atoms: S_11  and  C_12 
ROOT
HETATM    1  N   UNL     1       7.147  27.612  55.540  1.00  0.00    -0.348 N 
HETATM    2  C   UNL     1       6.685  28.448  56.532  1.00  0.00     0.228 C 
HETATM    3  O   UNL     1       5.634  28.246  57.137  1.00  0.00    -0.273 OA
HETATM    4  H   UNL     1       8.025  27.831  55.092  1.00  0.00     0.163 HD
ENDROOT
BRANCH   1   5
HETATM    5  C   UNL     1       6.467  26.372  55.209  1.00  0.00     0.151 C 
BRANCH   5   6
HETATM    6  C   UNL     1       5.992  26.347  53.760  1.00  0.00    -0.031 A 
HETATM    7  C   UNL     1       6.365  27.322  52.823  1.00  0.00     0.012 A 
HETATM    8  C   UNL     1       5.952  27.226  51.491  1.00  0.00     0.037 A 
HETATM    9  C   UNL     1       5.172  26.152  51.061  1.00  0.00     0.068 A 
HETATM   10  C   UNL     1       4.777  25.186  51.984  1.00  0.00     0.037 A 
HETATM   11  C   UNL     1       5.186  25.283  53.319  1.00  0.00     0.012 A 
BRANCH   9  12
HETATM   12  O   UNL     1       4.856  26.164  49.730  1.00  0.00    -0.356 OA
HETATM   13  C   UNL     1       3.915  27.147  49.315  1.00  0.00     0.210 C 
ENDBRANCH   9  12
ENDBRANCH   5   6
BRANCH   5  14
HETATM   14  C   UNL     1       7.317  25.157  55.564  1.00  0.00    -0.031 A 
HETATM   15  C   UNL     1       7.870  24.374  54.535  1.00  0.00     0.009 A 
HETATM   16  C   UNL     1       8.665  23.265  54.828  1.00  0.00     0.001 A 
HETATM   17  C   UNL     1       8.925  22.922  56.152  1.00  0.00     0.000 A 
HETATM   18  C   UNL     1       8.388  23.688  57.185  1.00  0.00     0.001 A 
HETATM   19  C   UNL     1       7.590  24.795  56.895  1.00  0.00     0.009 A 
ENDBRANCH   5  14
ENDBRANCH   1   5
BRANCH   2  20
HETATM   20  C   UNL     1       7.599  29.603  56.903  1.00  0.00     0.185 C 
BRANCH  20  21
HETATM   21  S   UNL     1       6.733  30.867  57.886  1.00  0.00    -0.081 SA
BRANCH  21  22
HETATM   22  C   UNL     1       7.636  30.759  59.358  1.00  0.00     0.192 A 
HETATM   23  N   UNL     1       7.302  31.400  60.524  1.00  0.00    -0.311 N 
HETATM   24  C   UNL     1       8.270  31.025  61.431  1.00  0.00     0.130 A 
HETATM   25  C   UNL     1       6.195  32.309  60.735  1.00  0.00     0.133 C 
HETATM   26  C   UNL     1       8.349  31.437  62.862  1.00  0.00     0.081 C 
HETATM   27  N   UNL     1       9.126  30.221  60.833  1.00  0.00    -0.134 NA
HETATM   28  C   UNL     1       7.957  32.889  63.097  1.00  0.00     0.008 C 
HETATM   29  C   UNL     1       6.445  33.112  63.155  1.00  0.00     0.002 C 
HETATM   30  C   UNL     1       5.618  32.314  62.148  1.00  0.00     0.020 C 
HETATM   31  N   UNL     1       8.729  30.059  59.532  1.00  0.00    -0.123 NA
ENDBRANCH  21  22
ENDBRANCH  20  21
ENDBRANCH   2  20
TORSDOF 7
ENDMDL
MODEL 10
REMARK VINA RESULT:      -8.5      2.507      8.717
REMARK  7 active torsions:
REMARK  status: ('A' for Active; 'I' for Inactive)
REMARK    1  A    between atoms: O_2  and  C_3 
REMARK    2  A    between atoms: C_6  and  C_7 
REMARK    3  A    between atoms: C_7  and  N_8 
REMARK    4  A    between atoms: C_7  and  C_23 
REMARK       I    between atoms: N_8  and  C_9 
REMARK    5  A    between atoms: C_9  and  C_10 
REMARK    6  A    between atoms: C_10  and  S_11 
REMARK    7  A    between atoms: S_11  and  C_12 
ROOT
HETATM    1  N   UNL     1       7.538  28.454  57.924  1.00  0.00    -0.348 N 
HETATM    2  C   UNL     1       7.882  27.544  56.950  1.00  0.00     0.228 C 
HETATM    3  O   UNL     1       8.215  27.878  55.815  1.00  0.00    -0.273 OA
HETATM    4  H   UNL     1       7.286  28.112  58.840  1.00  0.00     0.163 HD
ENDROOT
BRANCH   1   5
HETATM    5  C   UNL     1       7.644  29.886  57.703  1.00  0.00     0.151 C 
BRANCH   5   6
HETATM    6  C   UNL     1       6.289  30.525  57.420  1.00  0.00    -0.031 A 
HETATM    7  C   UNL     1       5.738  31.525  58.235  1.00  0.00     0.012 A 
HETATM    8  C   UNL     1       4.518  32.123  57.904  1.00  0.00     0.037 A 
HETATM    9  C   UNL     1       3.829  31.747  56.750  1.00  0.00     0.068 A 
HETATM   10  C   UNL     1       4.354  30.742  55.941  1.00  0.00     0.037 A 
HETATM   11  C   UNL     1       5.574  30.139  56.273  1.00  0.00     0.012 A 
BRANCH   9  12
HETATM   12  O   UNL     1       2.661  32.424  56.528  1.00  0.00    -0.356 OA
HETATM   13  C   UNL     1       2.077  32.267  55.240  1.00  0.00     0.210 C 
ENDBRANCH   9  12
ENDBRANCH   5   6
BRANCH   5  14
HETATM   14  C   UNL     1       8.385  30.574  58.845  1.00  0.00    -0.031 A 
HETATM   15  C   UNL     1       9.439  31.457  58.554  1.00  0.00     0.009 A 
HETATM   16  C   UNL     1      10.126  32.115  59.576  1.00  0.00     0.001 A 
HETATM   17  C   UNL     1       9.767  31.905  60.905  1.00  0.00     0.000 A 
HETATM   18  C   UNL     1       8.723  31.035  61.213  1.00  0.00     0.001 A 
HETATM   19  C   UNL     1       8.037  30.374  60.193  1.00  0.00     0.009 A 
ENDBRANCH   5  14
ENDBRANCH   1   5
BRANCH   2  20
HETATM   20  C   UNL     1       7.909  26.089  57.383  1.00  0.00     0.185 C 
BRANCH  20  21
HETATM   21  S   UNL     1       6.311  25.264  57.100  1.00  0.00    -0.081 SA
BRANCH  21  22
HETATM   22  C   UNL     1       6.584  24.638  55.511  1.00  0.00     0.192 A 
HETATM   23  N   UNL     1       7.204  23.445  55.240  1.00  0.00    -0.311 N 
HETATM   24  C   UNL     1       7.192  23.335  53.866  1.00  0.00     0.130 A 
HETATM   25  C   UNL     1       7.784  22.525  56.197  1.00  0.00     0.133 C 
HETATM   26  C   UNL     1       7.729  22.199  53.064  1.00  0.00     0.081 C 
HETATM   27  N   UNL     1       6.609  24.403  53.359  1.00  0.00    -0.134 NA
HETATM   28  C   UNL     1       9.029  21.630  53.615  1.00  0.00     0.008 C 
HETATM   29  C   UNL     1       8.827  20.663  54.782  1.00  0.00     0.002 C 
HETATM   30  C   UNL     1       7.748  21.055  55.790  1.00  0.00     0.020 C 
HETATM   31  N   UNL     1       6.233  25.221  54.391  1.00  0.00    -0.123 NA
ENDBRANCH  21  22
ENDBRANCH  20  21
ENDBRANCH   2  20
TORSDOF 7
ENDMDL
