MODEL 1
REMARK VINA RESULT:      -9.6      0.000      0.000
REMARK  5 active torsions:
REMARK  status: ('A' for Active; 'I' for Inactive)
REMARK    1  A    between atoms: C_3  and  N_4 
REMARK       I    between atoms: N_4  and  C_5 
REMARK    2  A    between atoms: C_9  and  N_10 
REMARK       I    between atoms: N_10  and  C_11 
REMARK    3  A    between atoms: C_11  and  C_12 
REMARK    4  A    between atoms: C_17  and  C_18 
REMARK    5  A    between atoms: C_24  and  C_25 
ROOT
HETATM    1  C   UNL     1       8.432  29.402  57.736  1.00  0.00     0.148 A 
HETATM    2  N   UNL     1       8.001  28.123  57.839  1.00  0.00    -0.165 NA
HETATM    3  N   UNL     1       7.799  27.755  56.558  1.00  0.00    -0.240 N 
HETATM    4  C   UNL     1       8.120  28.724  55.648  1.00  0.00     0.123 A 
HETATM    5  N   UNL     1       8.027  28.509  54.319  1.00  0.00    -0.364 N 
HETATM    6  C   UNL     1       7.380  27.315  53.777  1.00  0.00     0.143 C 
HETATM    7  C   UNL     1       7.607  26.123  54.723  1.00  0.00     0.068 C 
HETATM    8  C   UNL     1       7.330  26.427  56.209  1.00  0.00     0.221 C 
HETATM    9  C   UNL     1       8.525  29.808  56.378  1.00  0.00     0.089 A 
HETATM   10  H   UNL     1       8.109  29.286  53.663  1.00  0.00     0.162 HD
ENDROOT
BRANCH   1  11
HETATM   11  C   UNL     1       8.749  30.220  58.920  1.00  0.00     0.276 C 
HETATM   12  N   UNL     1       7.622  30.512  59.664  1.00  0.00    -0.322 N 
HETATM   13  H   UNL     1       6.767  30.121  59.273  1.00  0.00     0.169 HD
HETATM   14  O   UNL     1       9.897  30.582  59.157  1.00  0.00    -0.266 OA
BRANCH  12  15
HETATM   15  C   UNL     1       7.522  31.286  60.833  1.00  0.00     0.037 A 
HETATM   16  C   UNL     1       6.621  32.341  60.995  1.00  0.00     0.059 A 
HETATM   17  C   UNL     1       6.538  33.076  62.196  1.00  0.00     0.042 A 
HETATM   18  C   UNL     1       7.439  32.787  63.234  1.00  0.00    -0.035 A 
HETATM   19  C   UNL     1       7.565  33.573  64.509  1.00  0.00     0.050 C 
HETATM   20  C   UNL     1       8.328  31.707  63.072  1.00  0.00     0.011 A 
HETATM   21  C   UNL     1       8.370  30.967  61.889  1.00  0.00     0.030 A 
BRANCH  17  22
HETATM   22  N   UNL     1       5.551  34.091  62.195  1.00  0.00    -0.327 N 
HETATM   23  C   UNL     1       4.318  34.089  62.817  1.00  0.00     0.218 C 
HETATM   24  C   UNL     1       3.587  35.399  62.646  1.00  0.00     0.117 C 
HETATM   25  O   UNL     1       3.804  33.170  63.442  1.00  0.00    -0.274 OA
HETATM   26  H   UNL     1       5.659  34.785  61.465  1.00  0.00     0.169 HD
ENDBRANCH  17  22
ENDBRANCH  12  15
ENDBRANCH   1  11
BRANCH   8  27
HETATM   27  C   UNL     1       5.880  26.266  56.609  1.00  0.00     0.409 C 
HETATM   28  F   UNL     1       5.756  25.667  57.818  1.00  0.00    -0.169 F 
HETATM   29  F   UNL     1       5.199  27.425  56.666  1.00  0.00    -0.169 F 
HETATM   30  F   UNL     1       5.235  25.461  55.726  1.00  0.00    -0.169 F 
ENDBRANCH   8  27
BRANCH   6  31
HETATM   31  C   UNL     1       5.947  27.495  53.388  1.00  0.00     0.075 A 
HETATM   32  O   UNL     1       5.356  28.659  53.787  1.00  0.00    -0.325 OA
HETATM   33  C   UNL     1       4.067  28.617  53.362  1.00  0.00     0.142 A 
HETATM   34  C   UNL     1       3.816  27.441  52.698  1.00  0.00     0.027 A 
HETATM   35  C   UNL     1       5.028  26.710  52.721  1.00  0.00     0.037 A 
ENDBRANCH   6  31
TORSDOF 5
ENDMDL
MODEL 2
REMARK VINA RESULT:      -9.4      2.390      3.069
REMARK  5 active torsions:
REMARK  status: ('A' for Active; 'I' for Inactive)
REMARK    1  A    between atoms: C_3  and  N_4 
REMARK       I    between atoms: N_4  and  C_5 
REMARK    2  A    between atoms: C_9  and  N_10 
REMARK       I    between atoms: N_10  and  C_11 
REMARK    3  A    between atoms: C_11  and  C_12 
REMARK    4  A    between atoms: C_17  and  C_18 
REMARK    5  A    between atoms: C_24  and  C_25 
ROOT
HETATM    1  C   UNL     1       5.936  30.482  57.378  1.00  0.00     0.148 A 
HETATM    2  N   UNL     1       6.692  30.371  56.261  1.00  0.00    -0.165 NA
HETATM    3  N   UNL     1       6.185  29.287  55.642  1.00  0.00    -0.240 N 
HETATM    4  C   UNL     1       5.118  28.730  56.291  1.00  0.00     0.123 A 
HETATM    5  N   UNL     1       4.455  27.668  55.786  1.00  0.00    -0.364 N 
HETATM    6  C   UNL     1       4.962  26.920  54.636  1.00  0.00     0.143 C 
HETATM    7  C   UNL     1       5.707  27.872  53.684  1.00  0.00     0.068 C 
HETATM    8  C   UNL     1       6.714  28.810  54.378  1.00  0.00     0.221 C 
HETATM    9  C   UNL     1       4.935  29.474  57.425  1.00  0.00     0.089 A 
HETATM   10  H   UNL     1       3.774  27.166  56.356  1.00  0.00     0.162 HD
ENDROOT
BRANCH   1  11
HETATM   11  C   UNL     1       6.169  31.534  58.382  1.00  0.00     0.276 C 
HETATM   12  N   UNL     1       6.480  31.007  59.620  1.00  0.00    -0.322 N 
HETATM   13  H   UNL     1       6.494  29.989  59.635  1.00  0.00     0.169 HD
HETATM   14  O   UNL     1       6.068  32.723  58.095  1.00  0.00    -0.266 OA
BRANCH  12  15
HETATM   15  C   UNL     1       6.736  31.691  60.822  1.00  0.00     0.037 A 
HETATM   16  C   UNL     1       5.849  32.596  61.408  1.00  0.00     0.059 A 
HETATM   17  C   UNL     1       6.138  33.242  62.629  1.00  0.00     0.042 A 
HETATM   18  C   UNL     1       7.385  33.025  63.235  1.00  0.00    -0.035 A 
HETATM   19  C   UNL     1       7.888  33.746  64.455  1.00  0.00     0.050 C 
HETATM   20  C   UNL     1       8.265  32.093  62.650  1.00  0.00     0.011 A 
HETATM   21  C   UNL     1       7.946  31.436  61.460  1.00  0.00     0.030 A 
BRANCH  17  22
HETATM   22  N   UNL     1       5.115  34.105  63.091  1.00  0.00    -0.327 N 
HETATM   23  C   UNL     1       4.383  34.019  64.259  1.00  0.00     0.218 C 
HETATM   24  C   UNL     1       3.437  35.183  64.432  1.00  0.00     0.117 C 
HETATM   25  O   UNL     1       4.431  33.131  65.101  1.00  0.00    -0.274 OA
HETATM   26  H   UNL     1       4.713  34.703  62.380  1.00  0.00     0.169 HD
ENDBRANCH  17  22
ENDBRANCH  12  15
ENDBRANCH   1  11
BRANCH   8  27
HETATM   27  C   UNL     1       8.082  28.199  54.584  1.00  0.00     0.409 C 
HETATM   28  F   UNL     1       9.070  29.113  54.426  1.00  0.00    -0.169 F 
HETATM   29  F   UNL     1       8.250  27.636  55.795  1.00  0.00    -0.169 F 
HETATM   30  F   UNL     1       8.313  27.236  53.655  1.00  0.00    -0.169 F 
ENDBRANCH   8  27
BRANCH   6  31
HETATM   31  C   UNL     1       5.745  25.694  54.977  1.00  0.00     0.075 A 
HETATM   32  O   UNL     1       6.165  24.933  53.924  1.00  0.00    -0.325 OA
HETATM   33  C   UNL     1       6.827  23.867  54.441  1.00  0.00     0.142 A 
HETATM   34  C   UNL     1       6.838  23.925  55.813  1.00  0.00     0.027 A 
HETATM   35  C   UNL     1       6.132  25.101  56.163  1.00  0.00     0.037 A 
ENDBRANCH   6  31
TORSDOF 5
ENDMDL
MODEL 3
REMARK VINA RESULT:      -9.3      2.525      3.818
REMARK  5 active torsions:
REMARK  status: ('A' for Active; 'I' for Inactive)
REMARK    1  A    between atoms: C_3  and  N_4 
REMARK       I    between atoms: N_4  and  C_5 
REMARK    2  A    between atoms: C_9  and  N_10 
REMARK       I    between atoms: N_10  and  C_11 
REMARK    3  A    between atoms: C_11  and  C_12 
REMARK    4  A    between atoms: C_17  and  C_18 
REMARK    5  A    between atoms: C_24  and  C_25 
ROOT
HETATM    1  C   UNL     1       5.885  29.970  57.200  1.00  0.00     0.148 A 
HETATM    2  N   UNL     1       6.508  29.879  56.001  1.00  0.00    -0.165 NA
HETATM    3  N   UNL     1       6.066  28.707  55.503  1.00  0.00    -0.240 N 
HETATM    4  C   UNL     1       5.161  28.071  56.309  1.00  0.00     0.123 A 
HETATM    5  N   UNL     1       4.577  26.912  55.944  1.00  0.00    -0.364 N 
HETATM    6  C   UNL     1       5.028  26.158  54.774  1.00  0.00     0.143 C 
HETATM    7  C   UNL     1       5.530  27.129  53.691  1.00  0.00     0.068 C 
HETATM    8  C   UNL     1       6.491  28.218  54.206  1.00  0.00     0.221 C 
HETATM    9  C   UNL     1       5.028  28.858  57.421  1.00  0.00     0.089 A 
HETATM   10  H   UNL     1       4.037  26.370  56.619  1.00  0.00     0.162 HD
ENDROOT
BRANCH   1  11
HETATM   11  C   UNL     1       6.108  31.102  58.115  1.00  0.00     0.276 C 
HETATM   12  N   UNL     1       4.948  31.477  58.765  1.00  0.00    -0.322 N 
HETATM   13  H   UNL     1       4.138  30.918  58.503  1.00  0.00     0.169 HD
HETATM   14  O   UNL     1       7.214  31.619  58.233  1.00  0.00    -0.266 OA
BRANCH  12  15
HETATM   15  C   UNL     1       4.760  32.525  59.683  1.00  0.00     0.037 A 
HETATM   16  C   UNL     1       5.509  32.681  60.852  1.00  0.00     0.059 A 
HETATM   17  C   UNL     1       5.301  33.762  61.734  1.00  0.00     0.042 A 
HETATM   18  C   UNL     1       4.262  34.667  61.468  1.00  0.00    -0.035 A 
HETATM   19  C   UNL     1       3.832  35.779  62.385  1.00  0.00     0.050 C 
HETATM   20  C   UNL     1       3.527  34.517  60.276  1.00  0.00     0.011 A 
HETATM   21  C   UNL     1       3.771  33.460  59.397  1.00  0.00     0.030 A 
BRANCH  17  22
HETATM   22  N   UNL     1       6.168  33.778  62.854  1.00  0.00    -0.327 N 
HETATM   23  C   UNL     1       5.947  33.264  64.116  1.00  0.00     0.218 C 
HETATM   24  C   UNL     1       7.154  33.407  65.014  1.00  0.00     0.117 C 
HETATM   25  O   UNL     1       4.921  32.746  64.538  1.00  0.00    -0.274 OA
HETATM   26  H   UNL     1       6.925  34.448  62.793  1.00  0.00     0.169 HD
ENDBRANCH  17  22
ENDBRANCH  12  15
ENDBRANCH   1  11
BRANCH   8  27
HETATM   27  C   UNL     1       7.939  27.783  54.263  1.00  0.00     0.409 C 
HETATM   28  F   UNL     1       8.202  26.794  53.375  1.00  0.00    -0.169 F 
HETATM   29  F   UNL     1       8.816  28.776  54.027  1.00  0.00    -0.169 F 
HETATM   30  F   UNL     1       8.228  27.271  55.487  1.00  0.00    -0.169 F 
ENDBRANCH   8  27
BRANCH   6  31
HETATM   31  C   UNL     1       5.991  25.053  55.069  1.00  0.00     0.075 A 
HETATM   32  O   UNL     1       6.376  24.288  54.005  1.00  0.00    -0.325 OA
HETATM   33  C   UNL     1       7.220  23.338  54.482  1.00  0.00     0.142 A 
HETATM   34  C   UNL     1       7.384  23.476  55.840  1.00  0.00     0.027 A 
HETATM   35  C   UNL     1       6.583  24.578  56.222  1.00  0.00     0.037 A 
ENDBRANCH   6  31
TORSDOF 5
ENDMDL
MODEL 4
REMARK VINA RESULT:      -9.0      2.668      4.012
REMARK  5 active torsions:
REMARK  status: ('A' for Active; 'I' for Inactive)
REMARK    1  A    between atoms: C_3  and  N_4 
REMARK       I    between atoms: N_4  and  C_5 
REMARK    2  A    between atoms: C_9  and  N_10 
REMARK       I    between atoms: N_10  and  C_11 
REMARK    3  A    between atoms: C_11  and  C_12 
REMARK    4  A    between atoms: C_17  and  C_18 
REMARK    5  A    between atoms: C_24  and  C_25 
ROOT
HETATM    1  C   UNL     1       4.892  30.785  57.885  1.00  0.00     0.148 A 
HETATM    2  N   UNL     1       6.237  30.693  57.765  1.00  0.00    -0.165 NA
HETATM    3  N   UNL     1       6.405  29.761  56.806  1.00  0.00    -0.240 N 
HETATM    4  C   UNL     1       5.232  29.289  56.283  1.00  0.00     0.123 A 
HETATM    5  N   UNL     1       5.214  28.389  55.278  1.00  0.00    -0.364 N 
HETATM    6  C   UNL     1       6.429  27.706  54.835  1.00  0.00     0.143 C 
HETATM    7  C   UNL     1       7.640  28.643  54.991  1.00  0.00     0.068 C 
HETATM    8  C   UNL     1       7.723  29.355  56.356  1.00  0.00     0.221 C 
HETATM    9  C   UNL     1       4.232  29.925  56.966  1.00  0.00     0.089 A 
HETATM   10  H   UNL     1       4.343  27.926  55.015  1.00  0.00     0.162 HD
ENDROOT
BRANCH   1  11
HETATM   11  C   UNL     1       4.252  31.682  58.863  1.00  0.00     0.276 C 
HETATM   12  N   UNL     1       5.136  32.619  59.361  1.00  0.00    -0.322 N 
HETATM   13  H   UNL     1       6.075  32.534  58.977  1.00  0.00     0.169 HD
HETATM   14  O   UNL     1       3.071  31.553  59.170  1.00  0.00    -0.266 OA
BRANCH  12  15
HETATM   15  C   UNL     1       4.903  33.616  60.325  1.00  0.00     0.037 A 
HETATM   16  C   UNL     1       5.508  33.638  61.584  1.00  0.00     0.059 A 
HETATM   17  C   UNL     1       5.263  34.672  62.513  1.00  0.00     0.042 A 
HETATM   18  C   UNL     1       4.327  35.668  62.191  1.00  0.00    -0.035 A 
HETATM   19  C   UNL     1       3.860  36.746  63.128  1.00  0.00     0.050 C 
HETATM   20  C   UNL     1       3.740  35.651  60.910  1.00  0.00     0.011 A 
HETATM   21  C   UNL     1       4.022  34.639  59.991  1.00  0.00     0.030 A 
BRANCH  17  22
HETATM   22  N   UNL     1       5.981  34.550  63.727  1.00  0.00    -0.327 N 
HETATM   23  C   UNL     1       5.700  33.743  64.811  1.00  0.00     0.218 C 
HETATM   24  C   UNL     1       6.756  33.837  65.886  1.00  0.00     0.117 C 
HETATM   25  O   UNL     1       4.726  33.016  64.964  1.00  0.00    -0.274 OA
HETATM   26  H   UNL     1       6.624  35.309  63.916  1.00  0.00     0.169 HD
ENDBRANCH  17  22
ENDBRANCH  12  15
ENDBRANCH   1  11
BRANCH   8  27
HETATM   27  C   UNL     1       8.412  28.543  57.431  1.00  0.00     0.409 C 
HETATM   28  F   UNL     1       9.170  29.321  58.240  1.00  0.00    -0.169 F 
HETATM   29  F   UNL     1       7.565  27.854  58.219  1.00  0.00    -0.169 F 
HETATM   30  F   UNL     1       9.263  27.646  56.871  1.00  0.00    -0.169 F 
ENDBRANCH   8  27
BRANCH   6  31
HETATM   31  C   UNL     1       6.647  26.354  55.434  1.00  0.00     0.075 A 
HETATM   32  O   UNL     1       7.700  25.638  54.940  1.00  0.00    -0.325 OA
HETATM   33  C   UNL     1       7.710  24.445  55.589  1.00  0.00     0.142 A 
HETATM   34  C   UNL     1       6.677  24.380  56.493  1.00  0.00     0.027 A 
HETATM   35  C   UNL     1       5.984  25.609  56.388  1.00  0.00     0.037 A 
ENDBRANCH   6  31
TORSDOF 5
ENDMDL
MODEL 5
REMARK VINA RESULT:      -9.0      3.883     10.038
REMARK  5 active torsions:
REMARK  status: ('A' for Active; 'I' for Inactive)
REMARK    1  A    between atoms: C_3  and  N_4 
REMARK       I    between atoms: N_4  and  C_5 
REMARK    2  A    between atoms: C_9  and  N_10 
REMARK       I    between atoms: N_10  and  C_11 
REMARK    3  A    between atoms: C_11  and  C_12 
REMARK    4  A    between atoms: C_17  and  C_18 
REMARK    5  A    between atoms: C_24  and  C_25 
ROOT
HETATM    1  C   UNL     1       6.156  32.318  60.380  1.00  0.00     0.148 A 
HETATM    2  N   UNL     1       6.464  32.052  61.671  1.00  0.00    -0.165 NA
HETATM    3  N   UNL     1       5.624  32.844  62.366  1.00  0.00    -0.240 N 
HETATM    4  C   UNL     1       4.771  33.568  61.581  1.00  0.00     0.123 A 
HETATM    5  N   UNL     1       3.829  34.375  62.111  1.00  0.00    -0.364 N 
HETATM    6  C   UNL     1       3.801  34.690  63.539  1.00  0.00     0.143 C 
HETATM    7  C   UNL     1       4.310  33.484  64.348  1.00  0.00     0.068 C 
HETATM    8  C   UNL     1       5.618  32.865  63.817  1.00  0.00     0.221 C 
HETATM    9  C   UNL     1       5.094  33.258  60.287  1.00  0.00     0.089 A 
HETATM   10  H   UNL     1       3.316  35.028  61.519  1.00  0.00     0.162 HD
ENDROOT
BRANCH   1  11
HETATM   11  C   UNL     1       6.866  31.683  59.257  1.00  0.00     0.276 C 
HETATM   12  N   UNL     1       6.134  30.653  58.698  1.00  0.00    -0.322 N 
HETATM   13  H   UNL     1       5.235  30.503  59.153  1.00  0.00     0.169 HD
HETATM   14  O   UNL     1       7.982  32.058  58.913  1.00  0.00    -0.266 OA
BRANCH  12  15
HETATM   15  C   UNL     1       6.490  29.802  57.638  1.00  0.00     0.037 A 
HETATM   16  C   UNL     1       7.239  28.633  57.794  1.00  0.00     0.059 A 
HETATM   17  C   UNL     1       7.553  27.795  56.704  1.00  0.00     0.042 A 
HETATM   18  C   UNL     1       7.165  28.185  55.412  1.00  0.00    -0.035 A 
HETATM   19  C   UNL     1       7.549  27.472  54.145  1.00  0.00     0.050 C 
HETATM   20  C   UNL     1       6.390  29.352  55.265  1.00  0.00     0.011 A 
HETATM   21  C   UNL     1       6.058  30.150  56.362  1.00  0.00     0.030 A 
BRANCH  17  22
HETATM   22  N   UNL     1       8.295  26.639  57.048  1.00  0.00    -0.327 N 
HETATM   23  C   UNL     1       7.839  25.347  57.217  1.00  0.00     0.218 C 
HETATM   24  C   UNL     1       8.960  24.375  57.502  1.00  0.00     0.117 C 
HETATM   25  O   UNL     1       6.680  24.956  57.166  1.00  0.00    -0.274 OA
HETATM   26  H   UNL     1       9.206  26.825  57.450  1.00  0.00     0.169 HD
ENDBRANCH  17  22
ENDBRANCH  12  15
ENDBRANCH   1  11
BRANCH   8  27
HETATM   27  C   UNL     1       6.871  33.539  64.332  1.00  0.00     0.409 C 
HETATM   28  F   UNL     1       7.922  32.686  64.369  1.00  0.00    -0.169 F 
HETATM   29  F   UNL     1       7.250  34.609  63.609  1.00  0.00    -0.169 F 
HETATM   30  F   UNL     1       6.687  33.961  65.610  1.00  0.00    -0.169 F 
ENDBRANCH   8  27
BRANCH   6  31
HETATM   31  C   UNL     1       4.465  35.975  63.914  1.00  0.00     0.075 A 
HETATM   32  O   UNL     1       5.010  36.695  62.890  1.00  0.00    -0.325 OA
HETATM   33  C   UNL     1       5.579  37.800  63.437  1.00  0.00     0.142 A 
HETATM   34  C   UNL     1       5.413  37.802  64.801  1.00  0.00     0.027 A 
HETATM   35  C   UNL     1       4.701  36.619  65.113  1.00  0.00     0.037 A 
ENDBRANCH   6  31
TORSDOF 5
ENDMDL
MODEL 6
REMARK VINA RESULT:      -8.8      4.184     10.174
REMARK  5 active torsions:
REMARK  status: ('A' for Active; 'I' for Inactive)
REMARK    1  A    between atoms: C_3  and  N_4 
REMARK       I    between atoms: N_4  and  C_5 
REMARK    2  A    between atoms: C_9  and  N_10 
REMARK       I    between atoms: N_10  and  C_11 
REMARK    3  A    between atoms: C_11  and  C_12 
REMARK    4  A    between atoms: C_17  and  C_18 
REMARK    5  A    between atoms: C_24  and  C_25 
ROOT
HETATM    1  C   UNL     1       5.620  32.925  60.943  1.00  0.00     0.148 A 
HETATM    2  N   UNL     1       6.036  32.518  62.165  1.00  0.00    -0.165 NA
HETATM    3  N   UNL     1       5.276  33.238  63.013  1.00  0.00    -0.240 N 
HETATM    4  C   UNL     1       4.369  34.050  62.388  1.00  0.00     0.123 A 
HETATM    5  N   UNL     1       3.493  34.804  63.084  1.00  0.00    -0.364 N 
HETATM    6  C   UNL     1       3.598  34.964  64.534  1.00  0.00     0.143 C 
HETATM    7  C   UNL     1       4.154  33.673  65.162  1.00  0.00     0.068 C 
HETATM    8  C   UNL     1       5.398  33.104  64.452  1.00  0.00     0.221 C 
HETATM    9  C   UNL     1       4.571  33.878  61.046  1.00  0.00     0.089 A 
HETATM   10  H   UNL     1       2.942  35.522  62.614  1.00  0.00     0.162 HD
ENDROOT
BRANCH   1  11
HETATM   11  C   UNL     1       6.216  32.408  59.699  1.00  0.00     0.276 C 
HETATM   12  N   UNL     1       7.239  31.513  59.949  1.00  0.00    -0.322 N 
HETATM   13  H   UNL     1       7.412  31.364  60.941  1.00  0.00     0.169 HD
HETATM   14  O   UNL     1       5.818  32.777  58.599  1.00  0.00    -0.266 OA
BRANCH  12  15
HETATM   15  C   UNL     1       8.058  30.840  59.025  1.00  0.00     0.037 A 
HETATM   16  C   UNL     1       7.658  29.710  58.309  1.00  0.00     0.059 A 
HETATM   17  C   UNL     1       8.505  29.079  57.373  1.00  0.00     0.042 A 
HETATM   18  C   UNL     1       9.815  29.558  57.210  1.00  0.00    -0.035 A 
HETATM   19  C   UNL     1      10.870  28.907  56.361  1.00  0.00     0.050 C 
HETATM   20  C   UNL     1      10.202  30.712  57.919  1.00  0.00     0.011 A 
HETATM   21  C   UNL     1       9.337  31.343  58.814  1.00  0.00     0.030 A 
BRANCH  17  22
HETATM   22  N   UNL     1       7.927  27.964  56.719  1.00  0.00    -0.327 N 
HETATM   23  C   UNL     1       7.664  26.710  57.234  1.00  0.00     0.218 C 
HETATM   24  C   UNL     1       6.962  25.817  56.239  1.00  0.00     0.117 C 
HETATM   25  O   UNL     1       7.944  26.292  58.350  1.00  0.00    -0.274 OA
HETATM   26  H   UNL     1       7.933  28.017  55.707  1.00  0.00     0.169 HD
ENDBRANCH  17  22
ENDBRANCH  12  15
ENDBRANCH   1  11
BRANCH   8  27
HETATM   27  C   UNL     1       6.703  33.708  64.922  1.00  0.00     0.409 C 
HETATM   28  F   UNL     1       7.740  32.851  64.760  1.00  0.00    -0.169 F 
HETATM   29  F   UNL     1       7.030  34.853  64.294  1.00  0.00    -0.169 F 
HETATM   30  F   UNL     1       6.646  33.978  66.251  1.00  0.00    -0.169 F 
ENDBRANCH   8  27
BRANCH   6  31
HETATM   31  C   UNL     1       4.316  36.196  64.983  1.00  0.00     0.075 A 
HETATM   32  O   UNL     1       4.750  37.034  63.996  1.00  0.00    -0.325 OA
HETATM   33  C   UNL     1       5.391  38.066  64.604  1.00  0.00     0.142 A 
HETATM   34  C   UNL     1       5.380  37.904  65.968  1.00  0.00     0.027 A 
HETATM   35  C   UNL     1       4.694  36.691  66.215  1.00  0.00     0.037 A 
ENDBRANCH   6  31
TORSDOF 5
ENDMDL
MODEL 7
REMARK VINA RESULT:      -8.7      1.372      2.340
REMARK  5 active torsions:
REMARK  status: ('A' for Active; 'I' for Inactive)
REMARK    1  A    between atoms: C_3  and  N_4 
REMARK       I    between atoms: N_4  and  C_5 
REMARK    2  A    between atoms: C_9  and  N_10 
REMARK       I    between atoms: N_10  and  C_11 
REMARK    3  A    between atoms: C_11  and  C_12 
REMARK    4  A    between atoms: C_17  and  C_18 
REMARK    5  A    between atoms: C_24  and  C_25 
ROOT
HETATM    1  C   UNL     1       7.419  29.383  57.500  1.00  0.00     0.148 A 
HETATM    2  N   UNL     1       6.948  28.118  57.593  1.00  0.00    -0.165 NA
HETATM    3  N   UNL     1       7.204  27.596  56.377  1.00  0.00    -0.240 N 
HETATM    4  C   UNL     1       7.851  28.456  55.532  1.00  0.00     0.123 A 
HETATM    5  N   UNL     1       8.231  28.083  54.293  1.00  0.00    -0.364 N 
HETATM    6  C   UNL     1       7.789  26.821  53.700  1.00  0.00     0.143 C 
HETATM    7  C   UNL     1       7.636  25.755  54.799  1.00  0.00     0.068 C 
HETATM    8  C   UNL     1       6.857  26.228  56.043  1.00  0.00     0.221 C 
HETATM    9  C   UNL     1       7.998  29.627  56.226  1.00  0.00     0.089 A 
HETATM   10  H   UNL     1       8.559  28.778  53.622  1.00  0.00     0.162 HD
ENDROOT
BRANCH   1  11
HETATM   11  C   UNL     1       7.315  30.342  58.615  1.00  0.00     0.276 C 
HETATM   12  N   UNL     1       6.172  31.114  58.528  1.00  0.00    -0.322 N 
HETATM   13  H   UNL     1       5.598  30.897  57.715  1.00  0.00     0.169 HD
HETATM   14  O   UNL     1       8.182  30.411  59.480  1.00  0.00    -0.266 OA
BRANCH  12  15
HETATM   15  C   UNL     1       5.747  32.146  59.382  1.00  0.00     0.037 A 
HETATM   16  C   UNL     1       6.289  32.383  60.647  1.00  0.00     0.059 A 
HETATM   17  C   UNL     1       5.848  33.447  61.463  1.00  0.00     0.042 A 
HETATM   18  C   UNL     1       4.781  34.245  61.021  1.00  0.00    -0.035 A 
HETATM   19  C   UNL     1       4.113  35.318  61.835  1.00  0.00     0.050 C 
HETATM   20  C   UNL     1       4.255  34.014  59.734  1.00  0.00     0.011 A 
HETATM   21  C   UNL     1       4.730  32.979  58.927  1.00  0.00     0.030 A 
BRANCH  17  22
HETATM   22  N   UNL     1       6.527  33.556  62.700  1.00  0.00    -0.327 N 
HETATM   23  C   UNL     1       6.137  33.079  63.936  1.00  0.00     0.218 C 
HETATM   24  C   UNL     1       7.180  33.326  65.001  1.00  0.00     0.117 C 
HETATM   25  O   UNL     1       5.085  32.521  64.219  1.00  0.00    -0.274 OA
HETATM   26  H   UNL     1       7.249  34.266  62.726  1.00  0.00     0.169 HD
ENDBRANCH  17  22
ENDBRANCH  12  15
ENDBRANCH   1  11
BRANCH   8  27
HETATM   27  C   UNL     1       5.356  26.088  55.917  1.00  0.00     0.409 C 
HETATM   28  F   UNL     1       5.013  25.134  55.019  1.00  0.00    -0.169 F 
HETATM   29  F   UNL     1       4.739  25.786  57.075  1.00  0.00    -0.169 F 
HETATM   30  F   UNL     1       4.812  27.245  55.459  1.00  0.00    -0.169 F 
ENDBRANCH   8  27
BRANCH   6  31
HETATM   31  C   UNL     1       6.593  26.927  52.810  1.00  0.00     0.075 A 
HETATM   32  O   UNL     1       6.011  28.159  52.724  1.00  0.00    -0.325 OA
HETATM   33  C   UNL     1       4.940  28.038  51.897  1.00  0.00     0.142 A 
HETATM   34  C   UNL     1       4.821  26.745  51.450  1.00  0.00     0.027 A 
HETATM   35  C   UNL     1       5.882  26.023  52.045  1.00  0.00     0.037 A 
ENDBRANCH   6  31
TORSDOF 5
ENDMDL
MODEL 8
REMARK VINA RESULT:      -8.7      5.423     11.249
REMARK  5 active torsions:
REMARK  status: ('A' for Active; 'I' for Inactive)
REMARK    1  A    between atoms: C_3  and  N_4 
REMARK       I    between atoms: N_4  and  C_5 
REMARK    2  A    between atoms: C_9  and  N_10 
REMARK       I    between atoms: N_10  and  C_11 
REMARK    3  A    between atoms: C_11  and  C_12 
REMARK    4  A    between atoms: C_17  and  C_18 
REMARK    5  A    between atoms: C_24  and  C_25 
ROOT
HETATM    1  C   UNL     1       4.476  27.334  51.352  1.00  0.00     0.148 A 
HETATM    2  N   UNL     1       5.252  26.254  51.606  1.00  0.00    -0.165 NA
HETATM    3  N   UNL     1       5.389  26.274  52.947  1.00  0.00    -0.240 N 
HETATM    4  C   UNL     1       4.705  27.288  53.558  1.00  0.00     0.123 A 
HETATM    5  N   UNL     1       4.690  27.428  54.899  1.00  0.00    -0.364 N 
HETATM    6  C   UNL     1       5.570  26.642  55.764  1.00  0.00     0.143 C 
HETATM    7  C   UNL     1       5.797  25.250  55.149  1.00  0.00     0.068 C 
HETATM    8  C   UNL     1       6.159  25.266  53.651  1.00  0.00     0.221 C 
HETATM    9  C   UNL     1       4.109  28.000  52.552  1.00  0.00     0.089 A 
HETATM   10  H   UNL     1       4.318  28.277  55.326  1.00  0.00     0.162 HD
ENDROOT
BRANCH   1  11
HETATM   11  C   UNL     1       4.094  27.720  49.982  1.00  0.00     0.276 C 
HETATM   12  N   UNL     1       2.728  27.888  49.855  1.00  0.00    -0.322 N 
HETATM   13  H   UNL     1       2.217  27.717  50.719  1.00  0.00     0.169 HD
HETATM   14  O   UNL     1       4.933  27.846  49.097  1.00  0.00    -0.266 OA
BRANCH  12  15
HETATM   15  C   UNL     1       1.992  28.224  48.705  1.00  0.00     0.037 A 
HETATM   16  C   UNL     1       1.966  29.501  48.142  1.00  0.00     0.059 A 
HETATM   17  C   UNL     1       1.231  29.788  46.971  1.00  0.00     0.042 A 
HETATM   18  C   UNL     1       0.443  28.776  46.399  1.00  0.00    -0.035 A 
HETATM   19  C   UNL     1      -0.498  28.969  45.242  1.00  0.00     0.050 C 
HETATM   20  C   UNL     1       0.493  27.485  46.960  1.00  0.00     0.011 A 
HETATM   21  C   UNL     1       1.255  27.213  48.097  1.00  0.00     0.030 A 
BRANCH  17  22
HETATM   22  N   UNL     1       1.340  31.127  46.525  1.00  0.00    -0.327 N 
HETATM   23  C   UNL     1       2.305  31.681  45.708  1.00  0.00     0.218 C 
HETATM   24  C   UNL     1       2.025  33.131  45.391  1.00  0.00     0.117 C 
HETATM   25  O   UNL     1       3.304  31.133  45.260  1.00  0.00    -0.274 OA
HETATM   26  H   UNL     1       0.795  31.796  47.055  1.00  0.00     0.169 HD
ENDBRANCH  17  22
ENDBRANCH  12  15
ENDBRANCH   1  11
BRANCH   8  27
HETATM   27  C   UNL     1       7.635  25.454  53.378  1.00  0.00     0.409 C 
HETATM   28  F   UNL     1       8.020  24.822  52.243  1.00  0.00    -0.169 F 
HETATM   29  F   UNL     1       8.008  26.742  53.264  1.00  0.00    -0.169 F 
HETATM   30  F   UNL     1       8.373  24.907  54.378  1.00  0.00    -0.169 F 
ENDBRANCH   8  27
BRANCH   6  31
HETATM   31  C   UNL     1       6.838  27.326  56.162  1.00  0.00     0.075 A 
HETATM   32  O   UNL     1       7.076  28.541  55.586  1.00  0.00    -0.325 OA
HETATM   33  C   UNL     1       8.274  28.976  56.054  1.00  0.00     0.142 A 
HETATM   34  C   UNL     1       8.815  28.059  56.921  1.00  0.00     0.027 A 
HETATM   35  C   UNL     1       7.893  26.987  56.986  1.00  0.00     0.037 A 
ENDBRANCH   6  31
TORSDOF 5
ENDMDL
MODEL 9
REMARK VINA RESULT:      -8.6      7.140      9.755
REMARK  5 active torsions:
REMARK  status: ('A' for Active; 'I' for Inactive)
REMARK    1  A    between atoms: C_3  and  N_4 
REMARK       I    between atoms: N_4  and  C_5 
REMARK    2  A    between atoms: C_9  and  N_10 
REMARK       I    between atoms: N_10  and  C_11 
REMARK    3  A    between atoms: C_11  and  C_12 
REMARK    4  A    between atoms: C_17  and  C_18 
REMARK    5  A    between atoms: C_24  and  C_25 
ROOT
HETATM    1  C   UNL     1       5.264  27.365  51.504  1.00  0.00     0.148 A 
HETATM    2  N   UNL     1       4.995  26.647  50.388  1.00  0.00    -0.165 NA
HETATM    3  N   UNL     1       4.856  27.587  49.433  1.00  0.00    -0.240 N 
HETATM    4  C   UNL     1       5.064  28.863  49.880  1.00  0.00     0.123 A 
HETATM    5  N   UNL     1       5.015  29.924  49.049  1.00  0.00    -0.364 N 
HETATM    6  C   UNL     1       4.529  29.803  47.674  1.00  0.00     0.143 C 
HETATM    7  C   UNL     1       4.893  28.416  47.114  1.00  0.00     0.068 C 
HETATM    8  C   UNL     1       4.562  27.241  48.056  1.00  0.00     0.221 C 
HETATM    9  C   UNL     1       5.322  28.756  51.220  1.00  0.00     0.089 A 
HETATM   10  H   UNL     1       5.006  30.874  49.422  1.00  0.00     0.162 HD
ENDROOT
BRANCH   1  11
HETATM   11  C   UNL     1       5.461  26.729  52.818  1.00  0.00     0.276 C 
HETATM   12  N   UNL     1       6.764  26.303  52.995  1.00  0.00    -0.322 N 
HETATM   13  H   UNL     1       7.365  26.494  52.196  1.00  0.00     0.169 HD
HETATM   14  O   UNL     1       4.535  26.606  53.613  1.00  0.00    -0.266 OA
BRANCH  12  15
HETATM   15  C   UNL     1       7.322  25.632  54.098  1.00  0.00     0.037 A 
HETATM   16  C   UNL     1       7.813  24.326  54.047  1.00  0.00     0.059 A 
HETATM   17  C   UNL     1       8.387  23.699  55.174  1.00  0.00     0.042 A 
HETATM   18  C   UNL     1       8.399  24.382  56.400  1.00  0.00    -0.035 A 
HETATM   19  C   UNL     1       8.845  23.794  57.710  1.00  0.00     0.050 C 
HETATM   20  C   UNL     1       7.923  25.708  56.437  1.00  0.00     0.011 A 
HETATM   21  C   UNL     1       7.391  26.324  55.303  1.00  0.00     0.030 A 
BRANCH  17  22
HETATM   22  N   UNL     1       8.857  22.385  54.936  1.00  0.00    -0.327 N 
HETATM   23  C   UNL     1       8.268  21.187  55.290  1.00  0.00     0.218 C 
HETATM   24  C   UNL     1       9.043  19.994  54.781  1.00  0.00     0.117 C 
HETATM   25  O   UNL     1       7.246  21.026  55.945  1.00  0.00    -0.274 OA
HETATM   26  H   UNL     1       9.840  22.323  54.700  1.00  0.00     0.169 HD
ENDBRANCH  17  22
ENDBRANCH  12  15
ENDBRANCH   1  11
BRANCH   8  27
HETATM   27  C   UNL     1       3.139  26.741  47.938  1.00  0.00     0.409 C 
HETATM   28  F   UNL     1       2.607  27.023  46.724  1.00  0.00    -0.169 F 
HETATM   29  F   UNL     1       3.009  25.416  48.133  1.00  0.00    -0.169 F 
HETATM   30  F   UNL     1       2.345  27.363  48.847  1.00  0.00    -0.169 F 
ENDBRANCH   8  27
BRANCH   6  31
HETATM   31  C   UNL     1       3.090  30.159  47.480  1.00  0.00     0.075 A 
HETATM   32  O   UNL     1       2.626  30.116  46.196  1.00  0.00    -0.325 OA
HETATM   33  C   UNL     1       1.322  30.493  46.231  1.00  0.00     0.142 A 
HETATM   34  C   UNL     1       0.938  30.782  47.518  1.00  0.00     0.027 A 
HETATM   35  C   UNL     1       2.082  30.576  48.326  1.00  0.00     0.037 A 
ENDBRANCH   6  31
TORSDOF 5
ENDMDL
MODEL 10
REMARK VINA RESULT:      -8.6      5.591     11.024
REMARK  5 active torsions:
REMARK  status: ('A' for Active; 'I' for Inactive)
REMARK    1  A    between atoms: C_3  and  N_4 
REMARK       I    between atoms: N_4  and  C_5 
REMARK    2  A    between atoms: C_9  and  N_10 
REMARK       I    between atoms: N_10  and  C_11 
REMARK    3  A    between atoms: C_11  and  C_12 
REMARK    4  A    between atoms: C_17  and  C_18 
REMARK    5  A    between atoms: C_24  and  C_25 
ROOT
HETATM    1  C   UNL     1       4.907  27.166  50.878  1.00  0.00     0.148 A 
HETATM    2  N   UNL     1       5.602  26.058  51.226  1.00  0.00    -0.165 NA
HETATM    3  N   UNL     1       5.578  26.081  52.574  1.00  0.00    -0.240 N 
HETATM    4  C   UNL     1       4.867  27.127  53.095  1.00  0.00     0.123 A 
HETATM    5  N   UNL     1       4.696  27.277  54.425  1.00  0.00    -0.364 N 
HETATM    6  C   UNL     1       5.432  26.463  55.391  1.00  0.00     0.143 C 
HETATM    7  C   UNL     1       5.676  25.058  54.812  1.00  0.00     0.068 C 
HETATM    8  C   UNL     1       6.216  25.049  53.368  1.00  0.00     0.221 C 
HETATM    9  C   UNL     1       4.425  27.855  52.023  1.00  0.00     0.089 A 
HETATM   10  H   UNL     1       4.309  28.142  54.802  1.00  0.00     0.162 HD
ENDROOT
BRANCH   1  11
HETATM   11  C   UNL     1       4.708  27.556  49.471  1.00  0.00     0.276 C 
HETATM   12  N   UNL     1       4.256  28.857  49.355  1.00  0.00    -0.322 N 
HETATM   13  H   UNL     1       4.133  29.324  50.251  1.00  0.00     0.169 HD
HETATM   14  O   UNL     1       4.921  26.770  48.554  1.00  0.00    -0.266 OA
BRANCH  12  15
HETATM   15  C   UNL     1       3.927  29.568  48.187  1.00  0.00     0.037 A 
HETATM   16  C   UNL     1       4.822  30.388  47.497  1.00  0.00     0.059 A 
HETATM   17  C   UNL     1       4.456  31.065  46.314  1.00  0.00     0.042 A 
HETATM   18  C   UNL     1       3.132  30.969  45.857  1.00  0.00    -0.035 A 
HETATM   19  C   UNL     1       2.561  31.741  44.700  1.00  0.00     0.050 C 
HETATM   20  C   UNL     1       2.242  30.121  46.546  1.00  0.00     0.011 A 
HETATM   21  C   UNL     1       2.633  29.431  47.695  1.00  0.00     0.030 A 
BRANCH  17  22
HETATM   22  N   UNL     1       5.495  31.830  45.731  1.00  0.00    -0.327 N 
HETATM   23  C   UNL     1       5.896  33.113  46.048  1.00  0.00     0.218 C 
HETATM   24  C   UNL     1       7.103  33.550  45.253  1.00  0.00     0.117 C 
HETATM   25  O   UNL     1       5.381  33.873  46.858  1.00  0.00    -0.274 OA
HETATM   26  H   UNL     1       5.815  31.494  44.831  1.00  0.00     0.169 HD
ENDBRANCH  17  22
ENDBRANCH  12  15
ENDBRANCH   1  11
BRANCH   8  27
HETATM   27  C   UNL     1       7.720  25.176  53.274  1.00  0.00     0.409 C 
HETATM   28  F   UNL     1       8.107  26.466  53.126  1.00  0.00    -0.169 F 
HETATM   29  F   UNL     1       8.376  24.684  54.342  1.00  0.00    -0.169 F 
HETATM   30  F   UNL     1       8.182  24.520  52.179  1.00  0.00    -0.169 F 
ENDBRANCH   8  27
BRANCH   6  31
HETATM   31  C   UNL     1       6.670  27.098  55.938  1.00  0.00     0.075 A 
HETATM   32  O   UNL     1       7.043  28.282  55.368  1.00  0.00    -0.325 OA
HETATM   33  C   UNL     1       8.190  28.675  55.980  1.00  0.00     0.142 A 
HETATM   34  C   UNL     1       8.564  27.761  56.935  1.00  0.00     0.027 A 
HETATM   35  C   UNL     1       7.588  26.737  56.904  1.00  0.00     0.037 A 
ENDBRANCH   6  31
TORSDOF 5
ENDMDL
