MODEL 1
REMARK VINA RESULT:      -8.9      0.000      0.000
REMARK  4 active torsions:
REMARK  status: ('A' for Active; 'I' for Inactive)
REMARK    1  A    between atoms: N_4  and  C_5 
REMARK    2  A    between atoms: C_13  and  C_14 
REMARK    3  A    between atoms: N_15  and  C_17 
REMARK    4  A    between atoms: C_17  and  C_18 
ROOT
HETATM    1  C   UNL     1       4.774  25.297  57.473  1.00  0.00     0.095 C 
HETATM    2  C   UNL     1       5.509  26.123  56.491  1.00  0.00     0.144 A 
HETATM    3  N   UNL     1       5.852  27.396  56.708  1.00  0.00    -0.156 NA
HETATM    4  N   UNL     1       6.515  27.712  55.584  1.00  0.00    -0.247 N 
HETATM    5  C   UNL     1       6.482  26.669  54.684  1.00  0.00     0.156 A 
HETATM    6  N   UNL     1       5.854  25.659  55.254  1.00  0.00    -0.215 NA
ENDROOT
BRANCH   5   7
HETATM    7  C   UNL     1       6.974  26.696  53.261  1.00  0.00     0.259 C 
HETATM    8  N   UNL     1       7.183  25.347  52.572  1.00  0.00    -0.056 N 
HETATM    9  H   UNL     1       7.456  25.579  51.609  1.00  0.00     0.281 HD
HETATM   10  C   UNL     1       5.912  24.547  52.401  1.00  0.00     0.236 C 
HETATM   11  C   UNL     1       4.931  25.349  51.555  1.00  0.00     0.028 C 
HETATM   12  C   UNL     1       4.683  26.748  52.106  1.00  0.00     0.004 C 
HETATM   13  C   UNL     1       5.992  27.496  52.378  1.00  0.00     0.041 C 
BRANCH   8  14
HETATM   14  C   UNL     1       8.366  24.535  53.056  1.00  0.00     0.274 C 
BRANCH  14  15
HETATM   15  C   UNL     1       8.093  23.187  53.660  1.00  0.00    -0.033 A 
HETATM   16  C   UNL     1       8.074  22.036  52.858  1.00  0.00     0.009 A 
HETATM   17  C   UNL     1       7.841  20.780  53.420  1.00  0.00     0.001 A 
HETATM   18  C   UNL     1       7.634  20.658  54.790  1.00  0.00     0.000 A 
HETATM   19  C   UNL     1       7.670  21.787  55.604  1.00  0.00     0.001 A 
HETATM   20  C   UNL     1       7.904  23.045  55.044  1.00  0.00     0.009 A 
ENDBRANCH  14  15
ENDBRANCH   8  14
ENDBRANCH   5   7
BRANCH   4  21
HETATM   21  C   UNL     1       7.104  29.043  55.482  1.00  0.00     0.115 C 
HETATM   22  C   UNL     1       8.604  29.070  55.838  1.00  0.00     0.055 C 
HETATM   23  C   UNL     1       8.896  29.066  57.337  1.00  0.00     0.236 C 
HETATM   24  N   UNL     1       8.108  30.160  58.015  1.00  0.00    -0.075 N 
HETATM   25  H   UNL     1       8.415  31.066  57.636  1.00  0.00     0.279 HD
HETATM   26  C   UNL     1       8.430  30.220  59.493  1.00  0.00     0.269 C 
HETATM   27  C   UNL     1       6.626  30.016  57.795  1.00  0.00     0.236 C 
HETATM   28  C   UNL     1       6.324  30.079  56.301  1.00  0.00     0.055 C 
ENDBRANCH   4  21
TORSDOF 4
ENDMDL
MODEL 2
REMARK VINA RESULT:      -7.7      3.097      6.328
REMARK  4 active torsions:
REMARK  status: ('A' for Active; 'I' for Inactive)
REMARK    1  A    between atoms: N_4  and  C_5 
REMARK    2  A    between atoms: C_13  and  C_14 
REMARK    3  A    between atoms: N_15  and  C_17 
REMARK    4  A    between atoms: C_17  and  C_18 
ROOT
HETATM    1  C   UNL     1       4.724  32.674  57.161  1.00  0.00     0.095 C 
HETATM    2  C   UNL     1       5.747  32.136  58.082  1.00  0.00     0.144 A 
HETATM    3  N   UNL     1       6.106  32.738  59.220  1.00  0.00    -0.156 NA
HETATM    4  N   UNL     1       7.014  31.886  59.723  1.00  0.00    -0.247 N 
HETATM    5  C   UNL     1       7.251  30.847  58.850  1.00  0.00     0.156 A 
HETATM    6  N   UNL     1       6.448  30.995  57.815  1.00  0.00    -0.215 NA
ENDROOT
BRANCH   5   7
HETATM    7  C   UNL     1       8.308  29.784  58.987  1.00  0.00     0.259 C 
HETATM    8  N   UNL     1       8.463  28.803  57.823  1.00  0.00    -0.056 N 
HETATM    9  H   UNL     1       9.261  28.210  58.080  1.00  0.00     0.281 HD
HETATM   10  C   UNL     1       8.903  29.456  56.532  1.00  0.00     0.236 C 
HETATM   11  C   UNL     1      10.253  30.128  56.751  1.00  0.00     0.028 C 
HETATM   12  C   UNL     1      10.248  31.092  57.931  1.00  0.00     0.004 C 
HETATM   13  C   UNL     1       9.690  30.439  59.200  1.00  0.00     0.041 C 
BRANCH   8  14
HETATM   14  C   UNL     1       7.348  27.793  57.659  1.00  0.00     0.274 C 
BRANCH  14  15
HETATM   15  C   UNL     1       7.659  26.514  56.935  1.00  0.00    -0.033 A 
HETATM   16  C   UNL     1       8.350  25.478  57.583  1.00  0.00     0.009 A 
HETATM   17  C   UNL     1       8.622  24.281  56.919  1.00  0.00     0.001 A 
HETATM   18  C   UNL     1       8.200  24.100  55.606  1.00  0.00     0.000 A 
HETATM   19  C   UNL     1       7.496  25.111  54.956  1.00  0.00     0.001 A 
HETATM   20  C   UNL     1       7.221  26.309  55.617  1.00  0.00     0.009 A 
ENDBRANCH  14  15
ENDBRANCH   8  14
ENDBRANCH   5   7
BRANCH   4  21
HETATM   21  C   UNL     1       7.599  32.193  61.024  1.00  0.00     0.115 C 
HETATM   22  C   UNL     1       7.093  31.267  62.149  1.00  0.00     0.055 C 
HETATM   23  C   UNL     1       5.714  31.633  62.693  1.00  0.00     0.236 C 
HETATM   24  N   UNL     1       5.684  33.093  63.072  1.00  0.00    -0.075 N 
HETATM   25  H   UNL     1       6.371  33.250  63.822  1.00  0.00     0.279 HD
HETATM   26  C   UNL     1       4.347  33.466  63.677  1.00  0.00     0.269 C 
HETATM   27  C   UNL     1       6.016  33.991  61.911  1.00  0.00     0.236 C 
HETATM   28  C   UNL     1       7.417  33.668  61.401  1.00  0.00     0.055 C 
ENDBRANCH   4  21
TORSDOF 4
ENDMDL
MODEL 3
REMARK VINA RESULT:      -7.7      4.072      7.032
REMARK  4 active torsions:
REMARK  status: ('A' for Active; 'I' for Inactive)
REMARK    1  A    between atoms: N_4  and  C_5 
REMARK    2  A    between atoms: C_13  and  C_14 
REMARK    3  A    between atoms: N_15  and  C_17 
REMARK    4  A    between atoms: C_17  and  C_18 
ROOT
HETATM    1  C   UNL     1       6.466  31.357  49.499  1.00  0.00     0.095 C 
HETATM    2  C   UNL     1       5.588  30.229  49.876  1.00  0.00     0.144 A 
HETATM    3  N   UNL     1       4.551  29.825  49.137  1.00  0.00    -0.156 NA
HETATM    4  N   UNL     1       4.087  28.778  49.840  1.00  0.00    -0.247 N 
HETATM    5  C   UNL     1       4.786  28.629  51.018  1.00  0.00     0.156 A 
HETATM    6  N   UNL     1       5.741  29.538  51.042  1.00  0.00    -0.215 NA
ENDROOT
BRANCH   5   7
HETATM    7  C   UNL     1       4.464  27.673  52.137  1.00  0.00     0.259 C 
HETATM    8  N   UNL     1       5.642  27.128  52.946  1.00  0.00    -0.056 N 
HETATM    9  H   UNL     1       5.215  26.556  53.684  1.00  0.00     0.281 HD
HETATM   10  C   UNL     1       6.400  28.190  53.709  1.00  0.00     0.236 C 
HETATM   11  C   UNL     1       5.450  28.874  54.683  1.00  0.00     0.028 C 
HETATM   12  C   UNL     1       4.195  29.412  54.005  1.00  0.00     0.004 C 
HETATM   13  C   UNL     1       3.509  28.346  53.146  1.00  0.00     0.041 C 
BRANCH   8  14
HETATM   14  C   UNL     1       6.526  26.128  52.231  1.00  0.00     0.274 C 
BRANCH  14  15
HETATM   15  C   UNL     1       6.960  24.906  52.989  1.00  0.00    -0.033 A 
HETATM   16  C   UNL     1       7.848  23.985  52.411  1.00  0.00     0.009 A 
HETATM   17  C   UNL     1       8.268  22.860  53.121  1.00  0.00     0.001 A 
HETATM   18  C   UNL     1       7.814  22.644  54.418  1.00  0.00     0.000 A 
HETATM   19  C   UNL     1       6.949  23.558  55.014  1.00  0.00     0.001 A 
HETATM   20  C   UNL     1       6.527  24.686  54.307  1.00  0.00     0.009 A 
ENDBRANCH  14  15
ENDBRANCH   8  14
ENDBRANCH   5   7
BRANCH   4  21
HETATM   21  C   UNL     1       2.960  28.028  49.296  1.00  0.00     0.115 C 
HETATM   22  C   UNL     1       3.027  27.861  47.764  1.00  0.00     0.055 C 
HETATM   23  C   UNL     1       2.576  29.091  46.977  1.00  0.00     0.236 C 
HETATM   24  N   UNL     1       1.221  29.542  47.464  1.00  0.00    -0.075 N 
HETATM   25  H   UNL     1       0.543  28.787  47.287  1.00  0.00     0.279 HD
HETATM   26  C   UNL     1       0.721  30.719  46.654  1.00  0.00     0.269 C 
HETATM   27  C   UNL     1       1.221  29.863  48.934  1.00  0.00     0.236 C 
HETATM   28  C   UNL     1       1.614  28.621  49.728  1.00  0.00     0.055 C 
ENDBRANCH   4  21
TORSDOF 4
ENDMDL
MODEL 4
REMARK VINA RESULT:      -7.7      1.600      2.528
REMARK  4 active torsions:
REMARK  status: ('A' for Active; 'I' for Inactive)
REMARK    1  A    between atoms: N_4  and  C_5 
REMARK    2  A    between atoms: C_13  and  C_14 
REMARK    3  A    between atoms: N_15  and  C_17 
REMARK    4  A    between atoms: C_17  and  C_18 
ROOT
HETATM    1  C   UNL     1       3.771  30.611  53.742  1.00  0.00     0.095 C 
HETATM    2  C   UNL     1       4.693  29.490  54.024  1.00  0.00     0.144 A 
HETATM    3  N   UNL     1       5.304  29.317  55.200  1.00  0.00    -0.156 NA
HETATM    4  N   UNL     1       5.993  28.180  55.002  1.00  0.00    -0.247 N 
HETATM    5  C   UNL     1       5.859  27.744  53.702  1.00  0.00     0.156 A 
HETATM    6  N   UNL     1       5.032  28.564  53.082  1.00  0.00    -0.215 NA
ENDROOT
BRANCH   5   7
HETATM    7  C   UNL     1       6.600  26.602  53.059  1.00  0.00     0.259 C 
HETATM    8  N   UNL     1       6.146  25.187  53.422  1.00  0.00    -0.056 N 
HETATM    9  H   UNL     1       6.724  24.566  52.844  1.00  0.00     0.281 HD
HETATM   10  C   UNL     1       4.733  24.871  52.988  1.00  0.00     0.236 C 
HETATM   11  C   UNL     1       4.637  25.010  51.474  1.00  0.00     0.028 C 
HETATM   12  C   UNL     1       5.122  26.366  50.974  1.00  0.00     0.004 C 
HETATM   13  C   UNL     1       6.509  26.714  51.522  1.00  0.00     0.041 C 
BRANCH   8  14
HETATM   14  C   UNL     1       6.481  24.727  54.825  1.00  0.00     0.274 C 
BRANCH  14  15
HETATM   15  C   UNL     1       7.319  23.490  54.978  1.00  0.00    -0.033 A 
HETATM   16  C   UNL     1       7.752  23.073  56.247  1.00  0.00     0.009 A 
HETATM   17  C   UNL     1       8.513  21.913  56.393  1.00  0.00     0.001 A 
HETATM   18  C   UNL     1       8.844  21.151  55.278  1.00  0.00     0.000 A 
HETATM   19  C   UNL     1       8.406  21.539  54.014  1.00  0.00     0.001 A 
HETATM   20  C   UNL     1       7.643  22.699  53.864  1.00  0.00     0.009 A 
ENDBRANCH  14  15
ENDBRANCH   8  14
ENDBRANCH   5   7
BRANCH   4  21
HETATM   21  C   UNL     1       6.757  27.635  56.119  1.00  0.00     0.115 C 
HETATM   22  C   UNL     1       6.248  28.116  57.493  1.00  0.00     0.055 C 
HETATM   23  C   UNL     1       6.707  29.522  57.878  1.00  0.00     0.236 C 
HETATM   24  N   UNL     1       8.205  29.629  57.732  1.00  0.00    -0.075 N 
HETATM   25  H   UNL     1       8.645  28.964  58.383  1.00  0.00     0.279 HD
HETATM   26  C   UNL     1       8.694  30.993  58.171  1.00  0.00     0.269 C 
HETATM   27  C   UNL     1       8.666  29.319  56.332  1.00  0.00     0.236 C 
HETATM   28  C   UNL     1       8.261  27.895  55.966  1.00  0.00     0.055 C 
ENDBRANCH   4  21
TORSDOF 4
ENDMDL
MODEL 5
REMARK VINA RESULT:      -7.6      9.588     11.979
REMARK  4 active torsions:
REMARK  status: ('A' for Active; 'I' for Inactive)
REMARK    1  A    between atoms: N_4  and  C_5 
REMARK    2  A    between atoms: C_13  and  C_14 
REMARK    3  A    between atoms: N_15  and  C_17 
REMARK    4  A    between atoms: C_17  and  C_18 
ROOT
HETATM    1  C   UNL     1       5.610  38.284  62.383  1.00  0.00     0.095 C 
HETATM    2  C   UNL     1       5.192  36.866  62.397  1.00  0.00     0.144 A 
HETATM    3  N   UNL     1       4.643  36.249  61.347  1.00  0.00    -0.156 NA
HETATM    4  N   UNL     1       4.467  34.999  61.806  1.00  0.00    -0.247 N 
HETATM    5  C   UNL     1       4.823  34.909  63.134  1.00  0.00     0.156 A 
HETATM    6  N   UNL     1       5.289  36.083  63.511  1.00  0.00    -0.215 NA
ENDROOT
BRANCH   5   7
HETATM    7  C   UNL     1       4.623  33.720  64.037  1.00  0.00     0.259 C 
HETATM    8  N   UNL     1       5.736  32.671  64.062  1.00  0.00    -0.056 N 
HETATM    9  H   UNL     1       5.442  31.989  64.771  1.00  0.00     0.281 HD
HETATM   10  C   UNL     1       7.052  33.194  64.592  1.00  0.00     0.236 C 
HETATM   11  C   UNL     1       6.851  33.686  66.020  1.00  0.00     0.028 C 
HETATM   12  C   UNL     1       5.719  34.699  66.140  1.00  0.00     0.004 C 
HETATM   13  C   UNL     1       4.427  34.191  65.493  1.00  0.00     0.041 C 
BRANCH   8  14
HETATM   14  C   UNL     1       5.864  31.815  62.820  1.00  0.00     0.274 C 
BRANCH  14  15
HETATM   15  C   UNL     1       7.182  31.815  62.099  1.00  0.00    -0.033 A 
HETATM   16  C   UNL     1       7.397  32.670  61.007  1.00  0.00     0.009 A 
HETATM   17  C   UNL     1       8.627  32.686  60.348  1.00  0.00     0.001 A 
HETATM   18  C   UNL     1       9.659  31.858  60.776  1.00  0.00     0.000 A 
HETATM   19  C   UNL     1       9.468  31.018  61.871  1.00  0.00     0.001 A 
HETATM   20  C   UNL     1       8.239  31.000  62.533  1.00  0.00     0.009 A 
ENDBRANCH  14  15
ENDBRANCH   8  14
ENDBRANCH   5   7
BRANCH   4  21
HETATM   21  C   UNL     1       3.927  33.999  60.891  1.00  0.00     0.115 C 
HETATM   22  C   UNL     1       4.416  34.179  59.440  1.00  0.00     0.055 C 
HETATM   23  C   UNL     1       3.686  35.272  58.661  1.00  0.00     0.236 C 
HETATM   24  N   UNL     1       2.195  35.063  58.760  1.00  0.00    -0.075 N 
HETATM   25  H   UNL     1       1.963  34.158  58.328  1.00  0.00     0.279 HD
HETATM   26  C   UNL     1       1.450  36.095  57.941  1.00  0.00     0.269 C 
HETATM   27  C   UNL     1       1.713  35.060  60.186  1.00  0.00     0.236 C 
HETATM   28  C   UNL     1       2.396  33.933  60.953  1.00  0.00     0.055 C 
ENDBRANCH   4  21
TORSDOF 4
ENDMDL
MODEL 6
REMARK VINA RESULT:      -7.5      2.946      5.928
REMARK  4 active torsions:
REMARK  status: ('A' for Active; 'I' for Inactive)
REMARK    1  A    between atoms: N_4  and  C_5 
REMARK    2  A    between atoms: C_13  and  C_14 
REMARK    3  A    between atoms: N_15  and  C_17 
REMARK    4  A    between atoms: C_17  and  C_18 
ROOT
HETATM    1  C   UNL     1       3.954  33.025  53.860  1.00  0.00     0.095 C 
HETATM    2  C   UNL     1       4.022  31.553  53.741  1.00  0.00     0.144 A 
HETATM    3  N   UNL     1       3.473  30.870  52.732  1.00  0.00    -0.156 NA
HETATM    4  N   UNL     1       3.813  29.603  53.023  1.00  0.00    -0.247 N 
HETATM    5  C   UNL     1       4.472  29.536  54.232  1.00  0.00     0.156 A 
HETATM    6  N   UNL     1       4.614  30.766  54.686  1.00  0.00    -0.215 NA
ENDROOT
BRANCH   5   7
HETATM    7  C   UNL     1       4.870  28.284  54.968  1.00  0.00     0.259 C 
HETATM    8  N   UNL     1       6.368  28.009  55.111  1.00  0.00    -0.056 N 
HETATM    9  H   UNL     1       6.428  27.160  55.685  1.00  0.00     0.281 HD
HETATM   10  C   UNL     1       7.102  29.048  55.929  1.00  0.00     0.236 C 
HETATM   11  C   UNL     1       6.505  29.087  57.330  1.00  0.00     0.028 C 
HETATM   12  C   UNL     1       4.995  29.296  57.323  1.00  0.00     0.004 C 
HETATM   13  C   UNL     1       4.286  28.304  56.396  1.00  0.00     0.041 C 
BRANCH   8  14
HETATM   14  C   UNL     1       7.087  27.596  53.844  1.00  0.00     0.274 C 
BRANCH  14  15
HETATM   15  C   UNL     1       7.332  26.132  53.620  1.00  0.00    -0.033 A 
HETATM   16  C   UNL     1       7.666  25.650  52.345  1.00  0.00     0.009 A 
HETATM   17  C   UNL     1       7.914  24.293  52.139  1.00  0.00     0.001 A 
HETATM   18  C   UNL     1       7.840  23.401  53.204  1.00  0.00     0.000 A 
HETATM   19  C   UNL     1       7.529  23.865  54.479  1.00  0.00     0.001 A 
HETATM   20  C   UNL     1       7.282  25.223  54.690  1.00  0.00     0.009 A 
ENDBRANCH  14  15
ENDBRANCH   8  14
ENDBRANCH   5   7
BRANCH   4  21
HETATM   21  C   UNL     1       3.425  28.553  52.088  1.00  0.00     0.115 C 
HETATM   22  C   UNL     1       4.631  27.847  51.436  1.00  0.00     0.055 C 
HETATM   23  C   UNL     1       5.269  28.623  50.286  1.00  0.00     0.236 C 
HETATM   24  N   UNL     1       4.210  29.024  49.289  1.00  0.00    -0.075 N 
HETATM   25  H   UNL     1       3.789  28.170  48.898  1.00  0.00     0.279 HD
HETATM   26  C   UNL     1       4.826  29.738  48.104  1.00  0.00     0.269 C 
HETATM   27  C   UNL     1       3.125  29.860  49.914  1.00  0.00     0.236 C 
HETATM   28  C   UNL     1       2.446  29.066  51.024  1.00  0.00     0.055 C 
ENDBRANCH   4  21
TORSDOF 4
ENDMDL
MODEL 7
REMARK VINA RESULT:      -7.3      2.344      7.575
REMARK  4 active torsions:
REMARK  status: ('A' for Active; 'I' for Inactive)
REMARK    1  A    between atoms: N_4  and  C_5 
REMARK    2  A    between atoms: C_13  and  C_14 
REMARK    3  A    between atoms: N_15  and  C_17 
REMARK    4  A    between atoms: C_17  and  C_18 
ROOT
HETATM    1  C   UNL     1       5.699  28.511  52.763  1.00  0.00     0.095 C 
HETATM    2  C   UNL     1       5.631  28.381  54.234  1.00  0.00     0.144 A 
HETATM    3  N   UNL     1       5.753  27.216  54.877  1.00  0.00    -0.156 NA
HETATM    4  N   UNL     1       5.663  27.587  56.165  1.00  0.00    -0.247 N 
HETATM    5  C   UNL     1       5.400  28.935  56.271  1.00  0.00     0.156 A 
HETATM    6  N   UNL     1       5.387  29.444  55.054  1.00  0.00    -0.215 NA
ENDROOT
BRANCH   5   7
HETATM    7  C   UNL     1       5.078  29.689  57.534  1.00  0.00     0.259 C 
HETATM    8  N   UNL     1       5.869  30.971  57.800  1.00  0.00    -0.056 N 
HETATM    9  H   UNL     1       5.464  31.360  58.660  1.00  0.00     0.281 HD
HETATM   10  C   UNL     1       5.634  32.055  56.772  1.00  0.00     0.236 C 
HETATM   11  C   UNL     1       4.155  32.420  56.765  1.00  0.00     0.028 C 
HETATM   12  C   UNL     1       3.250  31.209  56.569  1.00  0.00     0.004 C 
HETATM   13  C   UNL     1       3.585  30.080  57.548  1.00  0.00     0.041 C 
BRANCH   8  14
HETATM   14  C   UNL     1       7.322  30.783  58.181  1.00  0.00     0.274 C 
BRANCH  14  15
HETATM   15  C   UNL     1       7.743  31.186  59.565  1.00  0.00    -0.033 A 
HETATM   16  C   UNL     1       8.775  30.501  60.225  1.00  0.00     0.009 A 
HETATM   17  C   UNL     1       9.181  30.887  61.503  1.00  0.00     0.001 A 
HETATM   18  C   UNL     1       8.570  31.966  62.133  1.00  0.00     0.000 A 
HETATM   19  C   UNL     1       7.559  32.669  61.484  1.00  0.00     0.001 A 
HETATM   20  C   UNL     1       7.150  32.286  60.205  1.00  0.00     0.009 A 
ENDBRANCH  14  15
ENDBRANCH   8  14
ENDBRANCH   5   7
BRANCH   4  21
HETATM   21  C   UNL     1       5.814  26.559  57.189  1.00  0.00     0.115 C 
HETATM   22  C   UNL     1       7.228  26.521  57.804  1.00  0.00     0.055 C 
HETATM   23  C   UNL     1       8.269  25.804  56.945  1.00  0.00     0.236 C 
HETATM   24  N   UNL     1       7.757  24.440  56.553  1.00  0.00    -0.075 N 
HETATM   25  H   UNL     1       7.618  23.885  57.409  1.00  0.00     0.279 HD
HETATM   26  C   UNL     1       8.797  23.682  55.757  1.00  0.00     0.269 C 
HETATM   27  C   UNL     1       6.454  24.513  55.802  1.00  0.00     0.236 C 
HETATM   28  C   UNL     1       5.397  25.175  56.679  1.00  0.00     0.055 C 
ENDBRANCH   4  21
TORSDOF 4
ENDMDL
MODEL 8
REMARK VINA RESULT:      -7.1      2.761      4.633
REMARK  4 active torsions:
REMARK  status: ('A' for Active; 'I' for Inactive)
REMARK    1  A    between atoms: N_4  and  C_5 
REMARK    2  A    between atoms: C_13  and  C_14 
REMARK    3  A    between atoms: N_15  and  C_17 
REMARK    4  A    between atoms: C_17  and  C_18 
ROOT
HETATM    1  C   UNL     1       5.032  29.292  51.595  1.00  0.00     0.095 C 
HETATM    2  C   UNL     1       4.903  29.218  53.065  1.00  0.00     0.144 A 
HETATM    3  N   UNL     1       4.550  30.257  53.827  1.00  0.00    -0.156 NA
HETATM    4  N   UNL     1       4.533  29.720  55.058  1.00  0.00    -0.247 N 
HETATM    5  C   UNL     1       4.957  28.410  55.028  1.00  0.00     0.156 A 
HETATM    6  N   UNL     1       5.185  28.085  53.771  1.00  0.00    -0.215 NA
ENDROOT
BRANCH   5   7
HETATM    7  C   UNL     1       5.221  27.526  56.219  1.00  0.00     0.259 C 
HETATM    8  N   UNL     1       6.182  26.353  56.014  1.00  0.00    -0.056 N 
HETATM    9  H   UNL     1       6.274  25.921  56.941  1.00  0.00     0.281 HD
HETATM   10  C   UNL     1       7.593  26.775  55.673  1.00  0.00     0.236 C 
HETATM   11  C   UNL     1       8.144  27.628  56.809  1.00  0.00     0.028 C 
HETATM   12  C   UNL     1       7.239  28.805  57.154  1.00  0.00     0.004 C 
HETATM   13  C   UNL     1       5.790  28.365  57.383  1.00  0.00     0.041 C 
BRANCH   8  14
HETATM   14  C   UNL     1       5.656  25.209  55.173  1.00  0.00     0.274 C 
BRANCH  14  15
HETATM   15  C   UNL     1       6.644  24.195  54.670  1.00  0.00    -0.033 A 
HETATM   16  C   UNL     1       7.285  23.321  55.562  1.00  0.00     0.009 A 
HETATM   17  C   UNL     1       8.188  22.365  55.095  1.00  0.00     0.001 A 
HETATM   18  C   UNL     1       8.454  22.263  53.733  1.00  0.00     0.000 A 
HETATM   19  C   UNL     1       7.811  23.109  52.833  1.00  0.00     0.001 A 
HETATM   20  C   UNL     1       6.906  24.067  53.297  1.00  0.00     0.009 A 
ENDBRANCH  14  15
ENDBRANCH   8  14
ENDBRANCH   5   7
BRANCH   4  21
HETATM   21  C   UNL     1       4.123  30.567  56.173  1.00  0.00     0.115 C 
HETATM   22  C   UNL     1       2.632  30.955  56.124  1.00  0.00     0.055 C 
HETATM   23  C   UNL     1       2.308  32.091  55.155  1.00  0.00     0.236 C 
HETATM   24  N   UNL     1       3.216  33.266  55.423  1.00  0.00    -0.075 N 
HETATM   25  H   UNL     1       3.037  33.605  56.378  1.00  0.00     0.279 HD
HETATM   26  C   UNL     1       2.871  34.431  54.520  1.00  0.00     0.269 C 
HETATM   27  C   UNL     1       4.671  32.903  55.299  1.00  0.00     0.236 C 
HETATM   28  C   UNL     1       5.012  31.810  56.306  1.00  0.00     0.055 C 
ENDBRANCH   4  21
TORSDOF 4
ENDMDL
MODEL 9
REMARK VINA RESULT:      -7.0      4.969      6.641
REMARK  4 active torsions:
REMARK  status: ('A' for Active; 'I' for Inactive)
REMARK    1  A    between atoms: N_4  and  C_5 
REMARK    2  A    between atoms: C_13  and  C_14 
REMARK    3  A    between atoms: N_15  and  C_17 
REMARK    4  A    between atoms: C_17  and  C_18 
ROOT
HETATM    1  C   UNL     1       0.824  30.367  49.917  1.00  0.00     0.095 C 
HETATM    2  C   UNL     1       2.296  30.289  50.019  1.00  0.00     0.144 A 
HETATM    3  N   UNL     1       3.081  31.357  50.185  1.00  0.00    -0.156 NA
HETATM    4  N   UNL     1       4.305  30.808  50.256  1.00  0.00    -0.247 N 
HETATM    5  C   UNL     1       4.246  29.448  50.044  1.00  0.00     0.156 A 
HETATM    6  N   UNL     1       2.979  29.113  49.902  1.00  0.00    -0.215 NA
ENDROOT
BRANCH   5   7
HETATM    7  C   UNL     1       5.417  28.512  49.893  1.00  0.00     0.259 C 
HETATM    8  N   UNL     1       5.185  27.045  50.257  1.00  0.00    -0.056 N 
HETATM    9  H   UNL     1       6.068  26.573  50.030  1.00  0.00     0.281 HD
HETATM   10  C   UNL     1       4.171  26.352  49.376  1.00  0.00     0.236 C 
HETATM   11  C   UNL     1       4.655  26.397  47.932  1.00  0.00     0.028 C 
HETATM   12  C   UNL     1       4.982  27.810  47.463  1.00  0.00     0.004 C 
HETATM   13  C   UNL     1       5.922  28.531  48.434  1.00  0.00     0.041 C 
BRANCH   8  14
HETATM   14  C   UNL     1       5.029  26.748  51.733  1.00  0.00     0.274 C 
BRANCH  14  15
HETATM   15  C   UNL     1       5.922  25.703  52.338  1.00  0.00    -0.033 A 
HETATM   16  C   UNL     1       7.125  25.342  51.711  1.00  0.00     0.009 A 
HETATM   17  C   UNL     1       7.966  24.386  52.282  1.00  0.00     0.001 A 
HETATM   18  C   UNL     1       7.622  23.786  53.489  1.00  0.00     0.000 A 
HETATM   19  C   UNL     1       6.442  24.147  54.134  1.00  0.00     0.001 A 
HETATM   20  C   UNL     1       5.599  25.104  53.566  1.00  0.00     0.009 A 
ENDBRANCH  14  15
ENDBRANCH   8  14
ENDBRANCH   5   7
BRANCH   4  21
HETATM   21  C   UNL     1       5.443  31.689  50.499  1.00  0.00     0.115 C 
HETATM   22  C   UNL     1       5.064  32.967  51.274  1.00  0.00     0.055 C 
HETATM   23  C   UNL     1       4.417  34.054  50.417  1.00  0.00     0.236 C 
HETATM   24  N   UNL     1       5.275  34.329  49.206  1.00  0.00    -0.075 N 
HETATM   25  H   UNL     1       6.188  34.680  49.526  1.00  0.00     0.279 HD
HETATM   26  C   UNL     1       4.690  35.450  48.374  1.00  0.00     0.269 C 
HETATM   27  C   UNL     1       5.492  33.097  48.369  1.00  0.00     0.236 C 
HETATM   28  C   UNL     1       6.190  32.030  49.205  1.00  0.00     0.055 C 
ENDBRANCH   4  21
TORSDOF 4
ENDMDL
MODEL 10
REMARK VINA RESULT:      -7.0      8.152     11.453
REMARK  4 active torsions:
REMARK  status: ('A' for Active; 'I' for Inactive)
REMARK    1  A    between atoms: N_4  and  C_5 
REMARK    2  A    between atoms: C_13  and  C_14 
REMARK    3  A    between atoms: N_15  and  C_17 
REMARK    4  A    between atoms: C_17  and  C_18 
ROOT
HETATM    1  C   UNL     1      -0.586  34.733  60.565  1.00  0.00     0.095 C 
HETATM    2  C   UNL     1       0.862  34.915  60.329  1.00  0.00     0.144 A 
HETATM    3  N   UNL     1       1.408  36.077  59.957  1.00  0.00    -0.156 NA
HETATM    4  N   UNL     1       2.716  35.776  59.900  1.00  0.00    -0.247 N 
HETATM    5  C   UNL     1       2.923  34.436  60.147  1.00  0.00     0.156 A 
HETATM    6  N   UNL     1       1.756  33.889  60.426  1.00  0.00    -0.215 NA
ENDROOT
BRANCH   5   7
HETATM    7  C   UNL     1       4.226  33.693  60.020  1.00  0.00     0.259 C 
HETATM    8  N   UNL     1       4.262  32.258  60.549  1.00  0.00    -0.056 N 
HETATM    9  H   UNL     1       5.201  31.913  60.316  1.00  0.00     0.281 HD
HETATM   10  C   UNL     1       3.340  31.314  59.810  1.00  0.00     0.236 C 
HETATM   11  C   UNL     1       3.745  31.274  58.341  1.00  0.00     0.028 C 
HETATM   12  C   UNL     1       3.807  32.660  57.709  1.00  0.00     0.004 C 
HETATM   13  C   UNL     1       4.655  33.629  58.538  1.00  0.00     0.041 C 
BRANCH   8  14
HETATM   14  C   UNL     1       4.225  32.108  62.055  1.00  0.00     0.274 C 
BRANCH  14  15
HETATM   15  C   UNL     1       5.472  32.434  62.824  1.00  0.00    -0.033 A 
HETATM   16  C   UNL     1       6.735  32.094  62.314  1.00  0.00     0.009 A 
HETATM   17  C   UNL     1       7.897  32.414  63.018  1.00  0.00     0.001 A 
HETATM   18  C   UNL     1       7.813  33.085  64.234  1.00  0.00     0.000 A 
HETATM   19  C   UNL     1       6.569  33.448  64.744  1.00  0.00     0.001 A 
HETATM   20  C   UNL     1       5.405  33.130  64.042  1.00  0.00     0.009 A 
ENDBRANCH  14  15
ENDBRANCH   8  14
ENDBRANCH   5   7
BRANCH   4  21
HETATM   21  C   UNL     1       3.654  36.844  59.573  1.00  0.00     0.115 C 
HETATM   22  C   UNL     1       4.326  37.462  60.816  1.00  0.00     0.055 C 
HETATM   23  C   UNL     1       3.456  38.469  61.566  1.00  0.00     0.236 C 
HETATM   24  N   UNL     1       2.927  39.505  60.605  1.00  0.00    -0.075 N 
HETATM   25  H   UNL     1       3.725  40.015  60.202  1.00  0.00     0.279 HD
HETATM   26  C   UNL     1       2.116  40.554  61.335  1.00  0.00     0.269 C 
HETATM   27  C   UNL     1       2.127  38.890  59.487  1.00  0.00     0.236 C 
HETATM   28  C   UNL     1       3.009  37.927  58.700  1.00  0.00     0.055 C 
ENDBRANCH   4  21
TORSDOF 4
ENDMDL
