MODEL 1
REMARK VINA RESULT:      -9.1      0.000      0.000
REMARK  8 active torsions:
REMARK  status: ('A' for Active; 'I' for Inactive)
REMARK    1  A    between atoms: C_9  and  S_10 
REMARK    2  A    between atoms: S_10  and  C_11 
REMARK    3  A    between atoms: C_11  and  C_12 
REMARK       I    between atoms: C_12  and  N_13 
REMARK    4  A    between atoms: N_13  and  C_14 
REMARK    5  A    between atoms: C_15  and  O_16 
REMARK    6  A    between atoms: C_20  and  O_21 
REMARK    7  A    between atoms: N_25  and  C_26 
REMARK    8  A    between atoms: C_33  and  N_34 
ROOT
HETATM    1  C   UNL     1       8.720  19.973  55.034  1.00  0.00     0.073 C 
HETATM    2  C   UNL     1       8.433  21.147  55.898  1.00  0.00     0.068 A 
HETATM    3  N   UNL     1       8.726  21.082  57.204  1.00  0.00    -0.177 NA
HETATM    4  N   UNL     1       8.367  22.281  57.689  1.00  0.00    -0.260 N 
HETATM    5  H   UNL     1       8.502  22.484  58.676  1.00  0.00     0.191 HD
HETATM    6  C   UNL     1       7.820  23.089  56.735  1.00  0.00     0.162 A 
HETATM    7  C   UNL     1       7.846  22.400  55.543  1.00  0.00     0.081 A 
HETATM    8  N   UNL     1       7.330  24.307  56.932  1.00  0.00    -0.204 NA
HETATM    9  C   UNL     1       6.825  24.859  55.822  1.00  0.00     0.177 A 
HETATM   10  N   UNL     1       6.839  24.268  54.592  1.00  0.00    -0.276 N 
HETATM   11  C   UNL     1       7.335  23.013  54.384  1.00  0.00     0.124 A 
ENDROOT
BRANCH   9  12
HETATM   12  S   UNL     1       5.955  26.413  56.120  1.00  0.00    -0.082 SA
BRANCH  12  13
HETATM   13  C   UNL     1       7.217  27.681  55.705  1.00  0.00     0.185 C 
BRANCH  13  14
HETATM   14  C   UNL     1       7.865  28.359  56.905  1.00  0.00     0.232 C 
HETATM   15  N   UNL     1       7.799  29.748  56.896  1.00  0.00    -0.324 N 
HETATM   16  H   UNL     1       7.052  30.143  56.347  1.00  0.00     0.169 HD
HETATM   17  O   UNL     1       8.346  27.675  57.807  1.00  0.00    -0.272 OA
BRANCH  15  18
HETATM   18  C   UNL     1       8.236  30.505  58.009  1.00  0.00     0.071 A 
HETATM   19  C   UNL     1       9.566  30.952  58.135  1.00  0.00     0.095 A 
HETATM   20  C   UNL     1       9.933  31.662  59.282  1.00  0.00     0.042 A 
HETATM   21  C   UNL     1       8.992  31.923  60.282  1.00  0.00     0.039 A 
HETATM   22  C   UNL     1       7.677  31.484  60.148  1.00  0.00     0.070 A 
HETATM   23  C   UNL     1       7.285  30.815  58.991  1.00  0.00     0.069 A 
BRANCH  19  24
HETATM   24  O   UNL     1      10.390  30.725  57.063  1.00  0.00    -0.354 OA
HETATM   25  C   UNL     1      11.303  29.640  57.154  1.00  0.00     0.210 C 
ENDBRANCH  19  24
BRANCH  22  26
HETATM   26  O   UNL     1       6.828  31.790  61.174  1.00  0.00    -0.356 OA
HETATM   27  C   UNL     1       7.485  32.101  62.400  1.00  0.00     0.210 C 
ENDBRANCH  22  26
ENDBRANCH  15  18
ENDBRANCH  13  14
ENDBRANCH  12  13
ENDBRANCH   9  12
BRANCH  10  28
HETATM   28  C   UNL     1       6.348  24.996  53.455  1.00  0.00     0.043 A 
HETATM   29  C   UNL     1       7.239  25.813  52.754  1.00  0.00     0.031 A 
HETATM   30  C   UNL     1       6.781  26.488  51.623  1.00  0.00     0.021 A 
HETATM   31  C   UNL     1       5.454  26.334  51.212  1.00  0.00     0.011 A 
HETATM   32 BR   UNL     1       4.840  27.255  49.680  1.00  0.00    -0.051 Br
HETATM   33  C   UNL     1       4.576  25.504  51.915  1.00  0.00     0.021 A 
HETATM   34  C   UNL     1       5.025  24.816  53.044  1.00  0.00     0.031 A 
ENDBRANCH  10  28
BRANCH  11  35
HETATM   35  N   UNL     1       7.312  22.383  53.149  1.00  0.00    -0.384 N 
HETATM   36  H   UNL     1       8.128  22.296  52.555  1.00  0.00     0.157 HD
HETATM   37  H   UNL     1       6.426  22.233  52.680  1.00  0.00     0.157 HD
ENDBRANCH  11  35
TORSDOF 8
ENDMDL
MODEL 2
REMARK VINA RESULT:      -8.9      4.544      8.347
REMARK  8 active torsions:
REMARK  status: ('A' for Active; 'I' for Inactive)
REMARK    1  A    between atoms: C_9  and  S_10 
REMARK    2  A    between atoms: S_10  and  C_11 
REMARK    3  A    between atoms: C_11  and  C_12 
REMARK       I    between atoms: C_12  and  N_13 
REMARK    4  A    between atoms: N_13  and  C_14 
REMARK    5  A    between atoms: C_15  and  O_16 
REMARK    6  A    between atoms: C_20  and  O_21 
REMARK    7  A    between atoms: N_25  and  C_26 
REMARK    8  A    between atoms: C_33  and  N_34 
ROOT
HETATM    1  C   UNL     1       8.415  20.775  56.954  1.00  0.00     0.073 C 
HETATM    2  C   UNL     1       8.111  21.381  55.631  1.00  0.00     0.068 A 
HETATM    3  N   UNL     1       8.189  20.619  54.533  1.00  0.00    -0.177 NA
HETATM    4  N   UNL     1       7.849  21.442  53.528  1.00  0.00    -0.260 N 
HETATM    5  H   UNL     1       7.824  21.086  52.575  1.00  0.00     0.191 HD
HETATM    6  C   UNL     1       7.599  22.713  53.955  1.00  0.00     0.162 A 
HETATM    7  C   UNL     1       7.748  22.728  55.323  1.00  0.00     0.081 A 
HETATM    8  N   UNL     1       7.292  23.749  53.183  1.00  0.00    -0.204 NA
HETATM    9  C   UNL     1       7.128  24.888  53.868  1.00  0.00     0.177 A 
HETATM   10  N   UNL     1       7.221  24.991  55.225  1.00  0.00    -0.276 N 
HETATM   11  C   UNL     1       7.543  23.931  56.024  1.00  0.00     0.124 A 
ENDROOT
BRANCH   9  12
HETATM   12  S   UNL     1       6.937  26.341  52.815  1.00  0.00    -0.082 SA
BRANCH  12  13
HETATM   13  C   UNL     1       5.961  25.701  51.397  1.00  0.00     0.185 C 
BRANCH  13  14
HETATM   14  C   UNL     1       5.014  26.709  50.761  1.00  0.00     0.232 C 
HETATM   15  N   UNL     1       4.909  26.620  49.378  1.00  0.00    -0.324 N 
HETATM   16  H   UNL     1       5.143  25.722  48.983  1.00  0.00     0.169 HD
HETATM   17  O   UNL     1       4.378  27.484  51.474  1.00  0.00    -0.272 OA
BRANCH  15  18
HETATM   18  C   UNL     1       3.966  27.399  48.666  1.00  0.00     0.071 A 
HETATM   19  C   UNL     1       4.248  28.713  48.243  1.00  0.00     0.095 A 
HETATM   20  C   UNL     1       3.252  29.435  47.579  1.00  0.00     0.042 A 
HETATM   21  C   UNL     1       2.001  28.858  47.340  1.00  0.00     0.039 A 
HETATM   22  C   UNL     1       1.732  27.556  47.755  1.00  0.00     0.070 A 
HETATM   23  C   UNL     1       2.729  26.807  48.377  1.00  0.00     0.069 A 
BRANCH  19  24
HETATM   24  O   UNL     1       5.529  29.157  48.443  1.00  0.00    -0.354 OA
HETATM   25  C   UNL     1       5.735  30.138  49.451  1.00  0.00     0.210 C 
ENDBRANCH  19  24
BRANCH  22  26
HETATM   26  O   UNL     1       0.484  27.076  47.474  1.00  0.00    -0.356 OA
HETATM   27  C   UNL     1      -0.066  27.562  46.253  1.00  0.00     0.210 C 
ENDBRANCH  22  26
ENDBRANCH  15  18
ENDBRANCH  13  14
ENDBRANCH  12  13
ENDBRANCH   9  12
BRANCH  10  28
HETATM   28  C   UNL     1       6.937  26.249  55.857  1.00  0.00     0.043 A 
HETATM   29  C   UNL     1       7.988  27.152  56.042  1.00  0.00     0.031 A 
HETATM   30  C   UNL     1       7.711  28.394  56.615  1.00  0.00     0.021 A 
HETATM   31  C   UNL     1       6.401  28.711  56.987  1.00  0.00     0.011 A 
HETATM   32 BR   UNL     1       6.035  30.394  57.764  1.00  0.00    -0.051 Br
HETATM   33  C   UNL     1       5.358  27.803  56.784  1.00  0.00     0.021 A 
HETATM   34  C   UNL     1       5.620  26.561  56.204  1.00  0.00     0.031 A 
ENDBRANCH  10  28
BRANCH  11  35
HETATM   35  N   UNL     1       7.686  24.034  57.399  1.00  0.00    -0.384 N 
HETATM   36  H   UNL     1       6.913  24.226  58.025  1.00  0.00     0.157 HD
HETATM   37  H   UNL     1       8.605  24.194  57.796  1.00  0.00     0.157 HD
ENDBRANCH  11  35
TORSDOF 8
ENDMDL
MODEL 3
REMARK VINA RESULT:      -8.9      4.896      9.209
REMARK  8 active torsions:
REMARK  status: ('A' for Active; 'I' for Inactive)
REMARK    1  A    between atoms: C_9  and  S_10 
REMARK    2  A    between atoms: S_10  and  C_11 
REMARK    3  A    between atoms: C_11  and  C_12 
REMARK       I    between atoms: C_12  and  N_13 
REMARK    4  A    between atoms: N_13  and  C_14 
REMARK    5  A    between atoms: C_15  and  O_16 
REMARK    6  A    between atoms: C_20  and  O_21 
REMARK    7  A    between atoms: N_25  and  C_26 
REMARK    8  A    between atoms: C_33  and  N_34 
ROOT
HETATM    1  C   UNL     1       8.089  29.282  58.138  1.00  0.00     0.073 C 
HETATM    2  C   UNL     1       7.191  29.203  56.957  1.00  0.00     0.068 A 
HETATM    3  N   UNL     1       6.452  30.272  56.628  1.00  0.00    -0.177 NA
HETATM    4  N   UNL     1       5.777  29.889  55.533  1.00  0.00    -0.260 N 
HETATM    5  H   UNL     1       5.142  30.543  55.081  1.00  0.00     0.191 HD
HETATM    6  C   UNL     1       6.036  28.596  55.183  1.00  0.00     0.162 A 
HETATM    7  C   UNL     1       6.961  28.102  56.076  1.00  0.00     0.081 A 
HETATM    8  N   UNL     1       5.477  27.933  54.178  1.00  0.00    -0.204 NA
HETATM    9  C   UNL     1       5.897  26.665  54.084  1.00  0.00     0.177 A 
HETATM   10  N   UNL     1       6.834  26.100  54.900  1.00  0.00    -0.276 N 
HETATM   11  C   UNL     1       7.408  26.776  55.939  1.00  0.00     0.124 A 
ENDROOT
BRANCH   9  12
HETATM   12  S   UNL     1       4.982  25.690  52.871  1.00  0.00    -0.082 SA
BRANCH  12  13
HETATM   13  C   UNL     1       5.594  26.342  51.268  1.00  0.00     0.185 C 
BRANCH  13  14
HETATM   14  C   UNL     1       4.624  27.257  50.533  1.00  0.00     0.232 C 
HETATM   15  N   UNL     1       4.545  27.045  49.162  1.00  0.00    -0.324 N 
HETATM   16  H   UNL     1       4.816  26.125  48.849  1.00  0.00     0.169 HD
HETATM   17  O   UNL     1       3.949  28.067  51.168  1.00  0.00    -0.272 OA
BRANCH  15  18
HETATM   18  C   UNL     1       3.588  27.725  48.373  1.00  0.00     0.071 A 
HETATM   19  C   UNL     1       3.845  28.991  47.809  1.00  0.00     0.095 A 
HETATM   20  C   UNL     1       2.836  29.619  47.073  1.00  0.00     0.042 A 
HETATM   21  C   UNL     1       1.596  28.997  46.900  1.00  0.00     0.039 A 
HETATM   22  C   UNL     1       1.351  27.742  47.454  1.00  0.00     0.070 A 
HETATM   23  C   UNL     1       2.361  27.084  48.152  1.00  0.00     0.069 A 
BRANCH  19  24
HETATM   24  O   UNL     1       5.118  29.478  47.958  1.00  0.00    -0.354 OA
HETATM   25  C   UNL     1       5.294  30.612  48.795  1.00  0.00     0.210 C 
ENDBRANCH  19  24
BRANCH  22  26
HETATM   26  O   UNL     1       0.112  27.212  47.229  1.00  0.00    -0.356 OA
HETATM   27  C   UNL     1      -0.588  27.808  46.140  1.00  0.00     0.210 C 
ENDBRANCH  22  26
ENDBRANCH  15  18
ENDBRANCH  13  14
ENDBRANCH  12  13
ENDBRANCH   9  12
BRANCH  10  28
HETATM   28  C   UNL     1       7.271  24.756  54.646  1.00  0.00     0.043 A 
HETATM   29  C   UNL     1       6.906  23.756  55.553  1.00  0.00     0.031 A 
HETATM   30  C   UNL     1       7.290  22.441  55.289  1.00  0.00     0.021 A 
HETATM   31  C   UNL     1       8.021  22.148  54.135  1.00  0.00     0.011 A 
HETATM   32 BR   UNL     1       8.539  20.364  53.787  1.00  0.00    -0.051 Br
HETATM   33  C   UNL     1       8.368  23.156  53.230  1.00  0.00     0.021 A 
HETATM   34  C   UNL     1       7.983  24.475  53.477  1.00  0.00     0.031 A 
ENDBRANCH  10  28
BRANCH  11  35
HETATM   35  N   UNL     1       8.326  26.199  56.803  1.00  0.00    -0.384 N 
HETATM   36  H   UNL     1       8.126  26.006  57.778  1.00  0.00     0.157 HD
HETATM   37  H   UNL     1       9.311  26.204  56.564  1.00  0.00     0.157 HD
ENDBRANCH  11  35
TORSDOF 8
ENDMDL
MODEL 4
REMARK VINA RESULT:      -8.9      4.272      7.851
REMARK  8 active torsions:
REMARK  status: ('A' for Active; 'I' for Inactive)
REMARK    1  A    between atoms: C_9  and  S_10 
REMARK    2  A    between atoms: S_10  and  C_11 
REMARK    3  A    between atoms: C_11  and  C_12 
REMARK       I    between atoms: C_12  and  N_13 
REMARK    4  A    between atoms: N_13  and  C_14 
REMARK    5  A    between atoms: C_15  and  O_16 
REMARK    6  A    between atoms: C_20  and  O_21 
REMARK    7  A    between atoms: N_25  and  C_26 
REMARK    8  A    between atoms: C_33  and  N_34 
ROOT
HETATM    1  C   UNL     1       8.688  19.964  56.401  1.00  0.00     0.073 C 
HETATM    2  C   UNL     1       8.468  20.617  55.084  1.00  0.00     0.068 A 
HETATM    3  N   UNL     1       8.692  19.916  53.965  1.00  0.00    -0.177 NA
HETATM    4  N   UNL     1       8.394  20.768  52.970  1.00  0.00    -0.260 N 
HETATM    5  H   UNL     1       8.478  20.460  52.005  1.00  0.00     0.191 HD
HETATM    6  C   UNL     1       8.027  21.999  53.428  1.00  0.00     0.162 A 
HETATM    7  C   UNL     1       8.050  21.954  54.804  1.00  0.00     0.081 A 
HETATM    8  N   UNL     1       7.727  23.053  52.678  1.00  0.00    -0.204 NA
HETATM    9  C   UNL     1       7.431  24.144  53.395  1.00  0.00     0.177 A 
HETATM   10  N   UNL     1       7.394  24.185  54.758  1.00  0.00    -0.276 N 
HETATM   11  C   UNL     1       7.708  23.106  55.535  1.00  0.00     0.124 A 
ENDROOT
BRANCH   9  12
HETATM   12  S   UNL     1       7.245  25.635  52.394  1.00  0.00    -0.082 SA
BRANCH  12  13
HETATM   13  C   UNL     1       5.518  25.512  51.784  1.00  0.00     0.185 C 
BRANCH  13  14
HETATM   14  C   UNL     1       4.978  26.774  51.125  1.00  0.00     0.232 C 
HETATM   15  N   UNL     1       5.226  26.872  49.760  1.00  0.00    -0.324 N 
HETATM   16  H   UNL     1       5.383  25.997  49.285  1.00  0.00     0.169 HD
HETATM   17  O   UNL     1       4.333  27.583  51.791  1.00  0.00    -0.272 OA
BRANCH  15  18
HETATM   18  C   UNL     1       4.666  27.920  48.991  1.00  0.00     0.071 A 
HETATM   19  C   UNL     1       3.521  27.732  48.192  1.00  0.00     0.095 A 
HETATM   20  C   UNL     1       3.048  28.804  47.429  1.00  0.00     0.042 A 
HETATM   21  C   UNL     1       3.703  30.039  47.464  1.00  0.00     0.039 A 
HETATM   22  C   UNL     1       4.830  30.219  48.262  1.00  0.00     0.070 A 
HETATM   23  C   UNL     1       5.287  29.174  49.063  1.00  0.00     0.069 A 
BRANCH  19  24
HETATM   24  O   UNL     1       2.899  26.515  48.293  1.00  0.00    -0.354 OA
HETATM   25  C   UNL     1       2.814  25.720  47.118  1.00  0.00     0.210 C 
ENDBRANCH  19  24
BRANCH  22  26
HETATM   26  O   UNL     1       5.399  31.461  48.235  1.00  0.00    -0.356 OA
HETATM   27  C   UNL     1       6.111  31.802  49.422  1.00  0.00     0.210 C 
ENDBRANCH  22  26
ENDBRANCH  15  18
ENDBRANCH  13  14
ENDBRANCH  12  13
ENDBRANCH   9  12
BRANCH  10  28
HETATM   28  C   UNL     1       6.976  25.391  55.416  1.00  0.00     0.043 A 
HETATM   29  C   UNL     1       7.950  26.330  55.765  1.00  0.00     0.031 A 
HETATM   30  C   UNL     1       7.546  27.523  56.364  1.00  0.00     0.021 A 
HETATM   31  C   UNL     1       6.189  27.758  56.600  1.00  0.00     0.011 A 
HETATM   32 BR   UNL     1       5.650  29.375  57.415  1.00  0.00    -0.051 Br
HETATM   33  C   UNL     1       5.223  26.815  56.235  1.00  0.00     0.021 A 
HETATM   34  C   UNL     1       5.613  25.620  55.627  1.00  0.00     0.031 A 
ENDBRANCH  10  28
BRANCH  11  35
HETATM   35  N   UNL     1       7.719  23.148  56.921  1.00  0.00    -0.384 N 
HETATM   36  H   UNL     1       8.548  23.361  57.463  1.00  0.00     0.157 HD
HETATM   37  H   UNL     1       6.974  22.700  57.442  1.00  0.00     0.157 HD
ENDBRANCH  11  35
TORSDOF 8
ENDMDL
MODEL 5
REMARK VINA RESULT:      -8.7      2.506      3.245
REMARK  8 active torsions:
REMARK  status: ('A' for Active; 'I' for Inactive)
REMARK    1  A    between atoms: C_9  and  S_10 
REMARK    2  A    between atoms: S_10  and  C_11 
REMARK    3  A    between atoms: C_11  and  C_12 
REMARK       I    between atoms: C_12  and  N_13 
REMARK    4  A    between atoms: N_13  and  C_14 
REMARK    5  A    between atoms: C_15  and  O_16 
REMARK    6  A    between atoms: C_20  and  O_21 
REMARK    7  A    between atoms: N_25  and  C_26 
REMARK    8  A    between atoms: C_33  and  N_34 
ROOT
HETATM    1  C   UNL     1       8.696  20.325  52.922  1.00  0.00     0.073 C 
HETATM    2  C   UNL     1       8.630  20.979  54.256  1.00  0.00     0.068 A 
HETATM    3  N   UNL     1       9.078  20.314  55.329  1.00  0.00    -0.177 NA
HETATM    4  N   UNL     1       8.896  21.165  56.351  1.00  0.00    -0.260 N 
HETATM    5  H   UNL     1       9.173  20.888  57.290  1.00  0.00     0.191 HD
HETATM    6  C   UNL     1       8.310  22.333  55.961  1.00  0.00     0.162 A 
HETATM    7  C   UNL     1       8.121  22.268  54.599  1.00  0.00     0.081 A 
HETATM    8  N   UNL     1       7.964  23.337  56.759  1.00  0.00    -0.204 NA
HETATM    9  C   UNL     1       7.377  24.350  56.109  1.00  0.00     0.177 A 
HETATM   10  N   UNL     1       7.180  24.389  54.759  1.00  0.00    -0.276 N 
HETATM   11  C   UNL     1       7.528  23.357  53.934  1.00  0.00     0.124 A 
ENDROOT
BRANCH   9  12
HETATM   12  S   UNL     1       6.699  25.614  57.205  1.00  0.00    -0.082 SA
BRANCH  12  13
HETATM   13  C   UNL     1       8.052  26.851  57.297  1.00  0.00     0.185 C 
BRANCH  13  14
HETATM   14  C   UNL     1       7.651  28.271  56.921  1.00  0.00     0.232 C 
HETATM   15  N   UNL     1       6.390  28.657  57.360  1.00  0.00    -0.324 N 
HETATM   16  H   UNL     1       6.035  28.152  58.157  1.00  0.00     0.169 HD
HETATM   17  O   UNL     1       8.447  28.991  56.320  1.00  0.00    -0.272 OA
BRANCH  15  18
HETATM   18  C   UNL     1       5.940  29.990  57.204  1.00  0.00     0.071 A 
HETATM   19  C   UNL     1       6.300  31.012  58.105  1.00  0.00     0.095 A 
HETATM   20  C   UNL     1       5.785  32.297  57.908  1.00  0.00     0.042 A 
HETATM   21  C   UNL     1       4.931  32.558  56.832  1.00  0.00     0.039 A 
HETATM   22  C   UNL     1       4.586  31.544  55.941  1.00  0.00     0.070 A 
HETATM   23  C   UNL     1       5.126  30.270  56.098  1.00  0.00     0.069 A 
BRANCH  19  24
HETATM   24  O   UNL     1       7.212  30.679  59.073  1.00  0.00    -0.354 OA
HETATM   25  C   UNL     1       8.431  31.408  59.107  1.00  0.00     0.210 C 
ENDBRANCH  19  24
BRANCH  22  26
HETATM   26  O   UNL     1       3.749  31.895  54.919  1.00  0.00    -0.356 OA
HETATM   27  C   UNL     1       2.538  32.513  55.345  1.00  0.00     0.210 C 
ENDBRANCH  22  26
ENDBRANCH  15  18
ENDBRANCH  13  14
ENDBRANCH  12  13
ENDBRANCH   9  12
BRANCH  10  28
HETATM   28  C   UNL     1       6.619  25.569  54.163  1.00  0.00     0.043 A 
HETATM   29  C   UNL     1       5.231  25.647  54.022  1.00  0.00     0.031 A 
HETATM   30  C   UNL     1       4.676  26.809  53.484  1.00  0.00     0.021 A 
HETATM   31  C   UNL     1       5.509  27.865  53.103  1.00  0.00     0.011 A 
HETATM   32 BR   UNL     1       4.750  29.433  52.373  1.00  0.00    -0.051 Br
HETATM   33  C   UNL     1       6.895  27.778  53.261  1.00  0.00     0.021 A 
HETATM   34  C   UNL     1       7.463  26.624  53.806  1.00  0.00     0.031 A 
ENDBRANCH  10  28
BRANCH  11  35
HETATM   35  N   UNL     1       7.290  23.366  52.569  1.00  0.00    -0.384 N 
HETATM   36  H   UNL     1       8.030  23.346  51.877  1.00  0.00     0.157 HD
HETATM   37  H   UNL     1       6.388  23.668  52.219  1.00  0.00     0.157 HD
ENDBRANCH  11  35
TORSDOF 8
ENDMDL
MODEL 6
REMARK VINA RESULT:      -8.7      2.988      5.267
REMARK  8 active torsions:
REMARK  status: ('A' for Active; 'I' for Inactive)
REMARK    1  A    between atoms: C_9  and  S_10 
REMARK    2  A    between atoms: S_10  and  C_11 
REMARK    3  A    between atoms: C_11  and  C_12 
REMARK       I    between atoms: C_12  and  N_13 
REMARK    4  A    between atoms: N_13  and  C_14 
REMARK    5  A    between atoms: C_15  and  O_16 
REMARK    6  A    between atoms: C_20  and  O_21 
REMARK    7  A    between atoms: N_25  and  C_26 
REMARK    8  A    between atoms: C_33  and  N_34 
ROOT
HETATM    1  C   UNL     1       2.712  29.063  51.921  1.00  0.00     0.073 C 
HETATM    2  C   UNL     1       3.664  29.344  53.027  1.00  0.00     0.068 A 
HETATM    3  N   UNL     1       3.621  30.536  53.636  1.00  0.00    -0.177 NA
HETATM    4  N   UNL     1       4.577  30.467  54.577  1.00  0.00    -0.260 N 
HETATM    5  H   UNL     1       4.736  31.264  55.189  1.00  0.00     0.191 HD
HETATM    6  C   UNL     1       5.249  29.280  54.554  1.00  0.00     0.162 A 
HETATM    7  C   UNL     1       4.688  28.505  53.564  1.00  0.00     0.081 A 
HETATM    8  N   UNL     1       6.274  28.949  55.330  1.00  0.00    -0.204 NA
HETATM    9  C   UNL     1       6.762  27.730  55.069  1.00  0.00     0.177 A 
HETATM   10  N   UNL     1       6.250  26.879  54.134  1.00  0.00    -0.276 N 
HETATM   11  C   UNL     1       5.200  27.216  53.328  1.00  0.00     0.124 A 
ENDROOT
BRANCH   9  12
HETATM   12  S   UNL     1       8.291  27.360  55.956  1.00  0.00    -0.082 SA
BRANCH  12  13
HETATM   13  C   UNL     1       8.872  29.018  56.489  1.00  0.00     0.185 C 
BRANCH  13  14
HETATM   14  C   UNL     1       8.323  29.491  57.828  1.00  0.00     0.232 C 
HETATM   15  N   UNL     1       8.355  30.868  58.019  1.00  0.00    -0.324 N 
HETATM   16  H   UNL     1       8.371  31.422  57.177  1.00  0.00     0.169 HD
HETATM   17  O   UNL     1       7.853  28.674  58.619  1.00  0.00    -0.272 OA
BRANCH  15  18
HETATM   18  C   UNL     1       7.755  31.460  59.155  1.00  0.00     0.071 A 
HETATM   19  C   UNL     1       6.448  31.988  59.121  1.00  0.00     0.095 A 
HETATM   20  C   UNL     1       5.936  32.593  60.273  1.00  0.00     0.042 A 
HETATM   21  C   UNL     1       6.709  32.668  61.435  1.00  0.00     0.039 A 
HETATM   22  C   UNL     1       7.997  32.138  61.463  1.00  0.00     0.070 A 
HETATM   23  C   UNL     1       8.505  31.492  60.339  1.00  0.00     0.069 A 
BRANCH  19  24
HETATM   24  O   UNL     1       5.738  31.787  57.966  1.00  0.00    -0.354 OA
HETATM   25  C   UNL     1       4.581  30.966  58.040  1.00  0.00     0.210 C 
ENDBRANCH  19  24
BRANCH  22  26
HETATM   26  O   UNL     1       8.674  32.255  62.644  1.00  0.00    -0.356 OA
HETATM   27  C   UNL     1       7.868  32.682  63.739  1.00  0.00     0.210 C 
ENDBRANCH  22  26
ENDBRANCH  15  18
ENDBRANCH  13  14
ENDBRANCH  12  13
ENDBRANCH   9  12
BRANCH  10  28
HETATM   28  C   UNL     1       6.802  25.559  54.005  1.00  0.00     0.043 A 
HETATM   29  C   UNL     1       6.475  24.604  54.972  1.00  0.00     0.031 A 
HETATM   30  C   UNL     1       6.971  23.309  54.829  1.00  0.00     0.021 A 
HETATM   31  C   UNL     1       7.777  22.990  53.732  1.00  0.00     0.011 A 
HETATM   32 BR   UNL     1       8.448  21.233  53.548  1.00  0.00    -0.051 Br
HETATM   33  C   UNL     1       8.086  23.952  52.766  1.00  0.00     0.021 A 
HETATM   34  C   UNL     1       7.588  25.250  52.892  1.00  0.00     0.031 A 
ENDBRANCH  10  28
BRANCH  11  35
HETATM   35  N   UNL     1       4.700  26.378  52.344  1.00  0.00    -0.384 N 
HETATM   36  H   UNL     1       4.901  25.385  52.305  1.00  0.00     0.157 HD
HETATM   37  H   UNL     1       4.347  26.774  51.480  1.00  0.00     0.157 HD
ENDBRANCH  11  35
TORSDOF 8
ENDMDL
MODEL 7
REMARK VINA RESULT:      -8.4      4.551      7.889
REMARK  8 active torsions:
REMARK  status: ('A' for Active; 'I' for Inactive)
REMARK    1  A    between atoms: C_9  and  S_10 
REMARK    2  A    between atoms: S_10  and  C_11 
REMARK    3  A    between atoms: C_11  and  C_12 
REMARK       I    between atoms: C_12  and  N_13 
REMARK    4  A    between atoms: N_13  and  C_14 
REMARK    5  A    between atoms: C_15  and  O_16 
REMARK    6  A    between atoms: C_20  and  O_21 
REMARK    7  A    between atoms: N_25  and  C_26 
REMARK    8  A    between atoms: C_33  and  N_34 
ROOT
HETATM    1  C   UNL     1       7.992  29.210  58.142  1.00  0.00     0.073 C 
HETATM    2  C   UNL     1       7.096  29.155  56.958  1.00  0.00     0.068 A 
HETATM    3  N   UNL     1       6.344  30.223  56.660  1.00  0.00    -0.177 NA
HETATM    4  N   UNL     1       5.675  29.865  55.552  1.00  0.00    -0.260 N 
HETATM    5  H   UNL     1       5.033  30.524  55.119  1.00  0.00     0.191 HD
HETATM    6  C   UNL     1       5.952  28.586  55.165  1.00  0.00     0.162 A 
HETATM    7  C   UNL     1       6.881  28.078  56.044  1.00  0.00     0.081 A 
HETATM    8  N   UNL     1       5.403  27.946  54.139  1.00  0.00    -0.204 NA
HETATM    9  C   UNL     1       5.839  26.687  54.008  1.00  0.00     0.177 A 
HETATM   10  N   UNL     1       6.782  26.110  54.809  1.00  0.00    -0.276 N 
HETATM   11  C   UNL     1       7.345  26.762  55.869  1.00  0.00     0.124 A 
ENDROOT
BRANCH   9  12
HETATM   12  S   UNL     1       4.937  25.737  52.765  1.00  0.00    -0.082 SA
BRANCH  12  13
HETATM   13  C   UNL     1       5.585  26.406  51.183  1.00  0.00     0.185 C 
BRANCH  13  14
HETATM   14  C   UNL     1       4.867  27.646  50.668  1.00  0.00     0.232 C 
HETATM   15  N   UNL     1       3.653  27.918  51.288  1.00  0.00    -0.324 N 
HETATM   16  H   UNL     1       3.544  27.534  52.214  1.00  0.00     0.169 HD
HETATM   17  O   UNL     1       5.396  28.344  49.804  1.00  0.00    -0.272 OA
BRANCH  15  18
HETATM   18  C   UNL     1       2.943  29.110  51.010  1.00  0.00     0.071 A 
HETATM   19  C   UNL     1       2.015  29.199  49.953  1.00  0.00     0.095 A 
HETATM   20  C   UNL     1       1.381  30.422  49.713  1.00  0.00     0.042 A 
HETATM   21  C   UNL     1       1.663  31.533  50.514  1.00  0.00     0.039 A 
HETATM   22  C   UNL     1       2.576  31.435  51.562  1.00  0.00     0.070 A 
HETATM   23  C   UNL     1       3.183  30.213  51.841  1.00  0.00     0.069 A 
BRANCH  19  24
HETATM   24  O   UNL     1       1.739  28.035  49.283  1.00  0.00    -0.354 OA
HETATM   25  C   UNL     1       2.218  27.914  47.951  1.00  0.00     0.210 C 
ENDBRANCH  19  24
BRANCH  22  26
HETATM   26  O   UNL     1       2.785  32.572  52.291  1.00  0.00    -0.356 OA
HETATM   27  C   UNL     1       3.721  32.418  53.354  1.00  0.00     0.210 C 
ENDBRANCH  22  26
ENDBRANCH  15  18
ENDBRANCH  13  14
ENDBRANCH  12  13
ENDBRANCH   9  12
BRANCH  10  28
HETATM   28  C   UNL     1       7.236  24.780  54.516  1.00  0.00     0.043 A 
HETATM   29  C   UNL     1       6.897  23.752  55.400  1.00  0.00     0.031 A 
HETATM   30  C   UNL     1       7.297  22.450  55.099  1.00  0.00     0.021 A 
HETATM   31  C   UNL     1       8.020  22.198  53.930  1.00  0.00     0.011 A 
HETATM   32 BR   UNL     1       8.561  20.432  53.531  1.00  0.00    -0.051 Br
HETATM   33  C   UNL     1       8.341  23.234  53.047  1.00  0.00     0.021 A 
HETATM   34  C   UNL     1       7.939  24.540  53.332  1.00  0.00     0.031 A 
ENDBRANCH  10  28
BRANCH  11  35
HETATM   35  N   UNL     1       8.269  26.171  56.717  1.00  0.00    -0.384 N 
HETATM   36  H   UNL     1       8.031  25.437  57.373  1.00  0.00     0.157 HD
HETATM   37  H   UNL     1       9.149  26.640  56.903  1.00  0.00     0.157 HD
ENDBRANCH  11  35
TORSDOF 8
ENDMDL
MODEL 8
REMARK VINA RESULT:      -8.4      2.310      3.549
REMARK  8 active torsions:
REMARK  status: ('A' for Active; 'I' for Inactive)
REMARK    1  A    between atoms: C_9  and  S_10 
REMARK    2  A    between atoms: S_10  and  C_11 
REMARK    3  A    between atoms: C_11  and  C_12 
REMARK       I    between atoms: C_12  and  N_13 
REMARK    4  A    between atoms: N_13  and  C_14 
REMARK    5  A    between atoms: C_15  and  O_16 
REMARK    6  A    between atoms: C_20  and  O_21 
REMARK    7  A    between atoms: N_25  and  C_26 
REMARK    8  A    between atoms: C_33  and  N_34 
ROOT
HETATM    1  C   UNL     1       7.618  22.280  55.511  1.00  0.00     0.073 C 
HETATM    2  C   UNL     1       7.919  23.509  56.292  1.00  0.00     0.068 A 
HETATM    3  N   UNL     1       8.667  23.409  57.398  1.00  0.00    -0.177 NA
HETATM    4  N   UNL     1       8.764  24.669  57.852  1.00  0.00    -0.260 N 
HETATM    5  H   UNL     1       9.302  24.859  58.695  1.00  0.00     0.191 HD
HETATM    6  C   UNL     1       8.065  25.556  57.087  1.00  0.00     0.162 A 
HETATM    7  C   UNL     1       7.499  24.852  56.048  1.00  0.00     0.081 A 
HETATM    8  N   UNL     1       7.937  26.857  57.321  1.00  0.00    -0.204 NA
HETATM    9  C   UNL     1       7.166  27.482  56.422  1.00  0.00     0.177 A 
HETATM   10  N   UNL     1       6.594  26.875  55.342  1.00  0.00    -0.276 N 
HETATM   11  C   UNL     1       6.717  25.536  55.100  1.00  0.00     0.124 A 
ENDROOT
BRANCH   9  12
HETATM   12  S   UNL     1       6.799  29.196  56.854  1.00  0.00    -0.082 SA
BRANCH  12  13
HETATM   13  C   UNL     1       8.252  29.689  57.863  1.00  0.00     0.185 C 
BRANCH  13  14
HETATM   14  C   UNL     1       8.041  30.920  58.733  1.00  0.00     0.232 C 
HETATM   15  N   UNL     1       6.932  30.862  59.569  1.00  0.00    -0.324 N 
HETATM   16  H   UNL     1       6.611  29.933  59.798  1.00  0.00     0.169 HD
HETATM   17  O   UNL     1       8.854  31.843  58.694  1.00  0.00    -0.272 OA
BRANCH  15  18
HETATM   18  C   UNL     1       6.689  31.871  60.530  1.00  0.00     0.071 A 
HETATM   19  C   UNL     1       5.713  32.869  60.338  1.00  0.00     0.095 A 
HETATM   20  C   UNL     1       5.557  33.857  61.315  1.00  0.00     0.042 A 
HETATM   21  C   UNL     1       6.356  33.849  62.462  1.00  0.00     0.039 A 
HETATM   22  C   UNL     1       7.314  32.855  62.649  1.00  0.00     0.070 A 
HETATM   23  C   UNL     1       7.451  31.838  61.707  1.00  0.00     0.069 A 
BRANCH  19  24
HETATM   24  O   UNL     1       4.920  32.741  59.227  1.00  0.00    -0.354 OA
HETATM   25  C   UNL     1       4.688  33.906  58.447  1.00  0.00     0.210 C 
ENDBRANCH  19  24
BRANCH  22  26
HETATM   26  O   UNL     1       8.044  32.926  63.801  1.00  0.00    -0.356 OA
HETATM   27  C   UNL     1       7.328  33.459  64.913  1.00  0.00     0.210 C 
ENDBRANCH  22  26
ENDBRANCH  15  18
ENDBRANCH  13  14
ENDBRANCH  12  13
ENDBRANCH   9  12
BRANCH  10  28
HETATM   28  C   UNL     1       5.861  27.667  54.395  1.00  0.00     0.043 A 
HETATM   29  C   UNL     1       6.493  28.031  53.203  1.00  0.00     0.031 A 
HETATM   30  C   UNL     1       5.772  28.763  52.259  1.00  0.00     0.021 A 
HETATM   31  C   UNL     1       4.444  29.113  52.517  1.00  0.00     0.011 A 
HETATM   32 BR   UNL     1       3.476  30.107  51.234  1.00  0.00    -0.051 Br
HETATM   33  C   UNL     1       3.820  28.731  53.708  1.00  0.00     0.021 A 
HETATM   34  C   UNL     1       4.527  27.991  54.658  1.00  0.00     0.031 A 
ENDBRANCH  10  28
BRANCH  11  35
HETATM   35  N   UNL     1       6.102  24.900  54.033  1.00  0.00    -0.384 N 
HETATM   36  H   UNL     1       6.251  23.923  53.809  1.00  0.00     0.157 HD
HETATM   37  H   UNL     1       5.702  25.452  53.283  1.00  0.00     0.157 HD
ENDBRANCH  11  35
TORSDOF 8
ENDMDL
MODEL 9
REMARK VINA RESULT:      -8.3      2.401      3.441
REMARK  8 active torsions:
REMARK  status: ('A' for Active; 'I' for Inactive)
REMARK    1  A    between atoms: C_9  and  S_10 
REMARK    2  A    between atoms: S_10  and  C_11 
REMARK    3  A    between atoms: C_11  and  C_12 
REMARK       I    between atoms: C_12  and  N_13 
REMARK    4  A    between atoms: N_13  and  C_14 
REMARK    5  A    between atoms: C_15  and  O_16 
REMARK    6  A    between atoms: C_20  and  O_21 
REMARK    7  A    between atoms: N_25  and  C_26 
REMARK    8  A    between atoms: C_33  and  N_34 
ROOT
HETATM    1  C   UNL     1       7.609  23.831  56.191  1.00  0.00     0.073 C 
HETATM    2  C   UNL     1       7.583  25.244  56.650  1.00  0.00     0.068 A 
HETATM    3  N   UNL     1       8.178  25.563  57.808  1.00  0.00    -0.177 NA
HETATM    4  N   UNL     1       7.993  26.888  57.926  1.00  0.00    -0.260 N 
HETATM    5  H   UNL     1       8.369  27.376  58.735  1.00  0.00     0.191 HD
HETATM    6  C   UNL     1       7.264  27.408  56.897  1.00  0.00     0.162 A 
HETATM    7  C   UNL     1       6.977  26.379  56.029  1.00  0.00     0.081 A 
HETATM    8  N   UNL     1       6.883  28.674  56.773  1.00  0.00    -0.204 NA
HETATM    9  C   UNL     1       6.149  28.900  55.677  1.00  0.00     0.177 A 
HETATM   10  N   UNL     1       5.844  27.951  54.745  1.00  0.00    -0.276 N 
HETATM   11  C   UNL     1       6.227  26.646  54.869  1.00  0.00     0.124 A 
ENDROOT
BRANCH   9  12
HETATM   12  S   UNL     1       5.437  30.558  55.614  1.00  0.00    -0.082 SA
BRANCH  12  13
HETATM   13  C   UNL     1       4.857  30.825  57.336  1.00  0.00     0.185 C 
BRANCH  13  14
HETATM   14  C   UNL     1       5.856  31.522  58.249  1.00  0.00     0.232 C 
HETATM   15  N   UNL     1       6.631  30.669  59.027  1.00  0.00    -0.324 N 
HETATM   16  H   UNL     1       6.736  29.732  58.669  1.00  0.00     0.169 HD
HETATM   17  O   UNL     1       5.960  32.748  58.218  1.00  0.00    -0.272 OA
BRANCH  15  18
HETATM   18  C   UNL     1       7.692  31.167  59.819  1.00  0.00     0.071 A 
HETATM   19  C   UNL     1       9.019  31.214  59.348  1.00  0.00     0.095 A 
HETATM   20  C   UNL     1      10.022  31.683  60.202  1.00  0.00     0.042 A 
HETATM   21  C   UNL     1       9.707  32.100  61.499  1.00  0.00     0.039 A 
HETATM   22  C   UNL     1       8.391  32.057  61.955  1.00  0.00     0.070 A 
HETATM   23  C   UNL     1       7.375  31.635  61.102  1.00  0.00     0.069 A 
BRANCH  19  24
HETATM   24  O   UNL     1       9.214  30.870  58.035  1.00  0.00    -0.354 OA
HETATM   25  C   UNL     1      10.552  30.807  57.563  1.00  0.00     0.210 C 
ENDBRANCH  19  24
BRANCH  22  26
HETATM   26  O   UNL     1       8.180  32.488  63.235  1.00  0.00    -0.356 OA
HETATM   27  C   UNL     1       6.898  33.071  63.449  1.00  0.00     0.210 C 
ENDBRANCH  22  26
ENDBRANCH  15  18
ENDBRANCH  13  14
ENDBRANCH  12  13
ENDBRANCH   9  12
BRANCH  10  28
HETATM   28  C   UNL     1       5.123  28.332  53.562  1.00  0.00     0.043 A 
HETATM   29  C   UNL     1       5.852  28.625  52.405  1.00  0.00     0.031 A 
HETATM   30  C   UNL     1       5.156  28.952  51.241  1.00  0.00     0.021 A 
HETATM   31  C   UNL     1       3.759  28.978  51.250  1.00  0.00     0.011 A 
HETATM   32 BR   UNL     1       2.825  29.426  49.669  1.00  0.00    -0.051 Br
HETATM   33  C   UNL     1       3.043  28.671  52.411  1.00  0.00     0.021 A 
HETATM   34  C   UNL     1       3.726  28.334  53.580  1.00  0.00     0.031 A 
ENDBRANCH  10  28
BRANCH  11  35
HETATM   35  N   UNL     1       5.884  25.665  53.953  1.00  0.00    -0.384 N 
HETATM   36  H   UNL     1       6.162  24.695  54.048  1.00  0.00     0.157 HD
HETATM   37  H   UNL     1       5.581  25.931  53.023  1.00  0.00     0.157 HD
ENDBRANCH  11  35
TORSDOF 8
ENDMDL
MODEL 10
REMARK VINA RESULT:      -8.2      4.610      7.807
REMARK  8 active torsions:
REMARK  status: ('A' for Active; 'I' for Inactive)
REMARK    1  A    between atoms: C_9  and  S_10 
REMARK    2  A    between atoms: S_10  and  C_11 
REMARK    3  A    between atoms: C_11  and  C_12 
REMARK       I    between atoms: C_12  and  N_13 
REMARK    4  A    between atoms: N_13  and  C_14 
REMARK    5  A    between atoms: C_15  and  O_16 
REMARK    6  A    between atoms: C_20  and  O_21 
REMARK    7  A    between atoms: N_25  and  C_26 
REMARK    8  A    between atoms: C_33  and  N_34 
ROOT
HETATM    1  C   UNL     1       8.022  29.412  58.216  1.00  0.00     0.073 C 
HETATM    2  C   UNL     1       7.141  29.343  57.021  1.00  0.00     0.068 A 
HETATM    3  N   UNL     1       6.410  30.416  56.688  1.00  0.00    -0.177 NA
HETATM    4  N   UNL     1       5.751  30.042  55.580  1.00  0.00    -0.260 N 
HETATM    5  H   UNL     1       5.125  30.701  55.124  1.00  0.00     0.191 HD
HETATM    6  C   UNL     1       6.012  28.751  55.226  1.00  0.00     0.162 A 
HETATM    7  C   UNL     1       6.922  28.249  56.129  1.00  0.00     0.081 A 
HETATM    8  N   UNL     1       5.467  28.095  54.208  1.00  0.00    -0.204 NA
HETATM    9  C   UNL     1       5.885  26.827  54.112  1.00  0.00     0.177 A 
HETATM   10  N   UNL     1       6.807  26.255  54.938  1.00  0.00    -0.276 N 
HETATM   11  C   UNL     1       7.367  26.922  55.991  1.00  0.00     0.124 A 
ENDROOT
BRANCH   9  12
HETATM   12  S   UNL     1       4.985  25.863  52.879  1.00  0.00    -0.082 SA
BRANCH  12  13
HETATM   13  C   UNL     1       5.628  26.520  51.290  1.00  0.00     0.185 C 
BRANCH  13  14
HETATM   14  C   UNL     1       4.989  27.822  50.828  1.00  0.00     0.232 C 
HETATM   15  N   UNL     1       5.654  28.974  51.233  1.00  0.00    -0.324 N 
HETATM   16  H   UNL     1       6.633  28.858  51.445  1.00  0.00     0.169 HD
HETATM   17  O   UNL     1       3.991  27.792  50.109  1.00  0.00    -0.272 OA
BRANCH  15  18
HETATM   18  C   UNL     1       5.255  30.249  50.765  1.00  0.00     0.071 A 
HETATM   19  C   UNL     1       4.398  31.085  51.509  1.00  0.00     0.095 A 
HETATM   20  C   UNL     1       4.016  32.315  50.964  1.00  0.00     0.042 A 
HETATM   21  C   UNL     1       4.480  32.703  49.703  1.00  0.00     0.039 A 
HETATM   22  C   UNL     1       5.332  31.874  48.977  1.00  0.00     0.070 A 
HETATM   23  C   UNL     1       5.758  30.667  49.525  1.00  0.00     0.069 A 
BRANCH  19  24
HETATM   24  O   UNL     1       4.070  30.657  52.769  1.00  0.00    -0.354 OA
HETATM   25  C   UNL     1       3.177  31.462  53.525  1.00  0.00     0.210 C 
ENDBRANCH  19  24
BRANCH  22  26
HETATM   26  O   UNL     1       5.736  32.340  47.758  1.00  0.00    -0.356 OA
HETATM   27  C   UNL     1       5.409  33.707  47.518  1.00  0.00     0.210 C 
ENDBRANCH  22  26
ENDBRANCH  15  18
ENDBRANCH  13  14
ENDBRANCH  12  13
ENDBRANCH   9  12
BRANCH  10  28
HETATM   28  C   UNL     1       7.245  24.911  54.683  1.00  0.00     0.043 A 
HETATM   29  C   UNL     1       6.861  23.906  55.575  1.00  0.00     0.031 A 
HETATM   30  C   UNL     1       7.245  22.591  55.309  1.00  0.00     0.021 A 
HETATM   31  C   UNL     1       7.996  22.304  54.165  1.00  0.00     0.011 A 
HETATM   32 BR   UNL     1       8.514  20.521  53.814  1.00  0.00    -0.051 Br
HETATM   33  C   UNL     1       8.362  23.318  53.274  1.00  0.00     0.021 A 
HETATM   34  C   UNL     1       7.977  24.636  53.524  1.00  0.00     0.031 A 
ENDBRANCH  10  28
BRANCH  11  35
HETATM   35  N   UNL     1       8.271  26.337  56.865  1.00  0.00    -0.384 N 
HETATM   36  H   UNL     1       8.094  26.231  57.857  1.00  0.00     0.157 HD
HETATM   37  H   UNL     1       9.243  26.246  56.594  1.00  0.00     0.157 HD
ENDBRANCH  11  35
TORSDOF 8
ENDMDL
