MODEL 1
REMARK VINA RESULT:     -10.6      0.000      0.000
REMARK  2 active torsions:
REMARK  status: ('A' for Active; 'I' for Inactive)
REMARK    1  A    between atoms: C_4  and  C_5 
REMARK       I    between atoms: N_12  and  C_13 
REMARK    2  A    between atoms: C_13  and  C_14 
ROOT
HETATM    1  C   UNL     1       8.264  23.533  56.104  1.00  0.00     0.097 A 
HETATM    2  N   UNL     1       8.572  23.261  57.387  1.00  0.00    -0.173 NA
HETATM    3  N   UNL     1       8.365  24.409  58.049  1.00  0.00    -0.281 N 
HETATM    4  H   UNL     1       8.525  24.424  59.051  1.00  0.00     0.189 HD
HETATM    5  C   UNL     1       7.922  25.404  57.244  1.00  0.00     0.039 A 
HETATM    6  C   UNL     1       7.865  24.895  55.968  1.00  0.00     0.015 A 
HETATM    7  C   UNL     1       7.409  25.684  54.792  1.00  0.00     0.169 C 
HETATM    8  N   UNL     1       6.801  26.967  55.222  1.00  0.00    -0.343 N 
HETATM    9  C   UNL     1       6.118  27.799  54.327  1.00  0.00     0.254 C 
HETATM   10  O   UNL     1       5.859  28.979  54.557  1.00  0.00    -0.267 OA
HETATM   11  C   UNL     1       7.411  27.644  56.390  1.00  0.00     0.132 C 
HETATM   12  C   UNL     1       7.502  26.761  57.649  1.00  0.00     0.079 C 
ENDROOT
BRANCH   9  13
HETATM   13  C   UNL     1       5.725  27.280  53.001  1.00  0.00     0.035 A 
HETATM   14  C   UNL     1       5.745  28.172  51.921  1.00  0.00     0.056 A 
HETATM   15  C   UNL     1       5.348  27.690  50.695  1.00  0.00     0.106 A 
HETATM   16  C   UNL     1       4.936  26.389  50.525  1.00  0.00     0.105 A 
HETATM   17  O   UNL     1       5.307  28.404  49.539  1.00  0.00    -0.323 OA
HETATM   18  O   UNL     1       4.587  26.123  49.238  1.00  0.00    -0.323 OA
HETATM   19  C   UNL     1       4.887  25.495  51.575  1.00  0.00     0.041 A 
HETATM   20  C   UNL     1       4.796  27.412  48.624  1.00  0.00     0.352 A 
HETATM   21  C   UNL     1       5.276  25.953  52.838  1.00  0.00     0.020 A 
ENDBRANCH   9  13
BRANCH   1  22
HETATM   22  C   UNL     1       8.313  22.479  55.088  1.00  0.00    -0.005 A 
HETATM   23  C   UNL     1       8.710  21.182  55.453  1.00  0.00     0.014 A 
HETATM   24  C   UNL     1       8.735  20.149  54.513  1.00  0.00     0.001 A 
HETATM   25  C   UNL     1       8.366  20.402  53.193  1.00  0.00     0.000 A 
HETATM   26  C   UNL     1       7.984  21.687  52.813  1.00  0.00     0.001 A 
HETATM   27  C   UNL     1       7.962  22.721  53.753  1.00  0.00     0.014 A 
ENDBRANCH   1  22
TORSDOF 2
ENDMDL
MODEL 2
REMARK VINA RESULT:      -9.7      2.785      6.096
REMARK  2 active torsions:
REMARK  status: ('A' for Active; 'I' for Inactive)
REMARK    1  A    between atoms: C_4  and  C_5 
REMARK       I    between atoms: N_12  and  C_13 
REMARK    2  A    between atoms: C_13  and  C_14 
ROOT
HETATM    1  C   UNL     1       6.176  27.505  54.135  1.00  0.00     0.097 A 
HETATM    2  N   UNL     1       6.161  28.852  54.155  1.00  0.00    -0.173 NA
HETATM    3  N   UNL     1       6.771  29.194  55.300  1.00  0.00    -0.281 N 
HETATM    4  H   UNL     1       6.884  30.180  55.511  1.00  0.00     0.189 HD
HETATM    5  C   UNL     1       7.189  28.119  56.010  1.00  0.00     0.039 A 
HETATM    6  C   UNL     1       6.804  26.999  55.310  1.00  0.00     0.015 A 
HETATM    7  C   UNL     1       7.095  25.612  55.763  1.00  0.00     0.169 C 
HETATM    8  N   UNL     1       8.050  25.617  56.898  1.00  0.00    -0.343 N 
HETATM    9  C   UNL     1       8.637  24.440  57.377  1.00  0.00     0.254 C 
HETATM   10  O   UNL     1       9.190  24.352  58.471  1.00  0.00    -0.267 OA
HETATM   11  C   UNL     1       7.922  26.716  57.882  1.00  0.00     0.132 C 
HETATM   12  C   UNL     1       7.977  28.125  57.259  1.00  0.00     0.079 C 
ENDROOT
BRANCH   9  13
HETATM   13  C   UNL     1       8.553  23.202  56.574  1.00  0.00     0.035 A 
HETATM   14  C   UNL     1       8.719  23.312  55.188  1.00  0.00     0.056 A 
HETATM   15  C   UNL     1       8.610  22.160  54.444  1.00  0.00     0.106 A 
HETATM   16  C   UNL     1       8.339  20.943  55.025  1.00  0.00     0.105 A 
HETATM   17  O   UNL     1       8.744  22.073  53.094  1.00  0.00    -0.323 OA
HETATM   18  O   UNL     1       8.272  19.938  54.111  1.00  0.00    -0.323 OA
HETATM   19  C   UNL     1       8.151  20.810  56.386  1.00  0.00     0.041 A 
HETATM   20  C   UNL     1       8.500  20.666  52.886  1.00  0.00     0.352 A 
HETATM   21  C   UNL     1       8.247  21.962  57.172  1.00  0.00     0.020 A 
ENDBRANCH   9  13
BRANCH   1  22
HETATM   22  C   UNL     1       5.642  26.772  52.984  1.00  0.00    -0.005 A 
HETATM   23  C   UNL     1       5.602  27.393  51.725  1.00  0.00     0.014 A 
HETATM   24  C   UNL     1       5.129  26.708  50.603  1.00  0.00     0.001 A 
HETATM   25  C   UNL     1       4.688  25.392  50.727  1.00  0.00     0.000 A 
HETATM   26  C   UNL     1       4.708  24.768  51.973  1.00  0.00     0.001 A 
HETATM   27  C   UNL     1       5.179  25.455  53.097  1.00  0.00     0.014 A 
ENDBRANCH   1  22
TORSDOF 2
ENDMDL
MODEL 3
REMARK VINA RESULT:      -9.7      3.258      6.296
REMARK  2 active torsions:
REMARK  status: ('A' for Active; 'I' for Inactive)
REMARK    1  A    between atoms: C_4  and  C_5 
REMARK       I    between atoms: N_12  and  C_13 
REMARK    2  A    between atoms: C_13  and  C_14 
ROOT
HETATM    1  C   UNL     1       5.833  25.172  53.910  1.00  0.00     0.097 A 
HETATM    2  N   UNL     1       5.266  24.664  52.798  1.00  0.00    -0.173 NA
HETATM    3  N   UNL     1       4.480  25.642  52.326  1.00  0.00    -0.281 N 
HETATM    4  H   UNL     1       3.962  25.473  51.470  1.00  0.00     0.189 HD
HETATM    5  C   UNL     1       4.529  26.764  53.083  1.00  0.00     0.039 A 
HETATM    6  C   UNL     1       5.372  26.501  54.138  1.00  0.00     0.015 A 
HETATM    7  C   UNL     1       5.698  27.499  55.192  1.00  0.00     0.169 C 
HETATM    8  N   UNL     1       5.208  28.847  54.812  1.00  0.00    -0.343 N 
HETATM    9  C   UNL     1       5.558  29.993  55.535  1.00  0.00     0.254 C 
HETATM   10  O   UNL     1       4.961  31.064  55.445  1.00  0.00    -0.267 OA
HETATM   11  C   UNL     1       3.919  28.916  54.086  1.00  0.00     0.132 C 
HETATM   12  C   UNL     1       3.873  28.058  52.807  1.00  0.00     0.079 C 
ENDROOT
BRANCH   9  13
HETATM   13  C   UNL     1       6.665  29.931  56.513  1.00  0.00     0.035 A 
HETATM   14  C   UNL     1       6.452  30.504  57.773  1.00  0.00     0.056 A 
HETATM   15  C   UNL     1       7.497  30.470  58.668  1.00  0.00     0.106 A 
HETATM   16  C   UNL     1       8.711  29.908  58.346  1.00  0.00     0.105 A 
HETATM   17  O   UNL     1       7.474  30.969  59.932  1.00  0.00    -0.323 OA
HETATM   18  O   UNL     1       9.601  29.982  59.371  1.00  0.00    -0.323 OA
HETATM   19  C   UNL     1       8.953  29.356  57.105  1.00  0.00     0.041 A 
HETATM   20  C   UNL     1       8.820  30.682  60.363  1.00  0.00     0.352 A 
HETATM   21  C   UNL     1       7.916  29.380  56.168  1.00  0.00     0.020 A 
ENDBRANCH   9  13
BRANCH   1  22
HETATM   22  C   UNL     1       6.816  24.392  54.667  1.00  0.00    -0.005 A 
HETATM   23  C   UNL     1       7.703  23.544  53.984  1.00  0.00     0.014 A 
HETATM   24  C   UNL     1       8.672  22.814  54.675  1.00  0.00     0.001 A 
HETATM   25  C   UNL     1       8.765  22.921  56.061  1.00  0.00     0.000 A 
HETATM   26  C   UNL     1       7.882  23.747  56.754  1.00  0.00     0.001 A 
HETATM   27  C   UNL     1       6.910  24.476  56.063  1.00  0.00     0.014 A 
ENDBRANCH   1  22
TORSDOF 2
ENDMDL
MODEL 4
REMARK VINA RESULT:      -9.5      2.430      3.665
REMARK  2 active torsions:
REMARK  status: ('A' for Active; 'I' for Inactive)
REMARK    1  A    between atoms: C_4  and  C_5 
REMARK       I    between atoms: N_12  and  C_13 
REMARK    2  A    between atoms: C_13  and  C_14 
ROOT
HETATM    1  C   UNL     1       5.950  26.429  55.139  1.00  0.00     0.097 A 
HETATM    2  N   UNL     1       5.752  26.288  56.465  1.00  0.00    -0.173 NA
HETATM    3  N   UNL     1       5.022  27.353  56.827  1.00  0.00    -0.281 N 
HETATM    4  H   UNL     1       4.743  27.439  57.799  1.00  0.00     0.189 HD
HETATM    5  C   UNL     1       4.733  28.167  55.784  1.00  0.00     0.039 A 
HETATM    6  C   UNL     1       5.333  27.626  54.671  1.00  0.00     0.015 A 
HETATM    7  C   UNL     1       5.234  28.227  53.314  1.00  0.00     0.169 C 
HETATM    8  N   UNL     1       4.217  29.307  53.289  1.00  0.00    -0.343 N 
HETATM    9  C   UNL     1       3.792  29.895  52.092  1.00  0.00     0.254 C 
HETATM   10  O   UNL     1       3.189  30.965  52.037  1.00  0.00    -0.267 OA
HETATM   11  C   UNL     1       4.107  30.157  54.497  1.00  0.00     0.132 C 
HETATM   12  C   UNL     1       3.873  29.369  55.799  1.00  0.00     0.079 C 
ENDROOT
BRANCH   9  13
HETATM   13  C   UNL     1       4.121  29.252  50.803  1.00  0.00     0.035 A 
HETATM   14  C   UNL     1       3.190  28.353  50.269  1.00  0.00     0.056 A 
HETATM   15  C   UNL     1       3.516  27.734  49.084  1.00  0.00     0.106 A 
HETATM   16  C   UNL     1       4.710  27.974  48.444  1.00  0.00     0.105 A 
HETATM   17  O   UNL     1       2.739  26.839  48.417  1.00  0.00    -0.323 OA
HETATM   18  O   UNL     1       4.831  27.260  47.293  1.00  0.00    -0.323 OA
HETATM   19  C   UNL     1       5.653  28.839  48.959  1.00  0.00     0.041 A 
HETATM   20  C   UNL     1       3.591  26.521  47.297  1.00  0.00     0.352 A 
HETATM   21  C   UNL     1       5.359  29.479  50.167  1.00  0.00     0.020 A 
ENDBRANCH   9  13
BRANCH   1  22
HETATM   22  C   UNL     1       6.666  25.400  54.381  1.00  0.00    -0.005 A 
HETATM   23  C   UNL     1       6.686  24.077  54.853  1.00  0.00     0.014 A 
HETATM   24  C   UNL     1       7.332  23.069  54.134  1.00  0.00     0.001 A 
HETATM   25  C   UNL     1       7.970  23.372  52.933  1.00  0.00     0.000 A 
HETATM   26  C   UNL     1       7.972  24.683  52.459  1.00  0.00     0.001 A 
HETATM   27  C   UNL     1       7.327  25.693  53.180  1.00  0.00     0.014 A 
ENDBRANCH   1  22
TORSDOF 2
ENDMDL
MODEL 5
REMARK VINA RESULT:      -9.4      2.931      6.868
REMARK  2 active torsions:
REMARK  status: ('A' for Active; 'I' for Inactive)
REMARK    1  A    between atoms: C_4  and  C_5 
REMARK       I    between atoms: N_12  and  C_13 
REMARK    2  A    between atoms: C_13  and  C_14 
ROOT
HETATM    1  C   UNL     1       5.862  29.645  55.437  1.00  0.00     0.097 A 
HETATM    2  N   UNL     1       5.004  30.681  55.525  1.00  0.00    -0.173 NA
HETATM    3  N   UNL     1       4.058  30.433  54.608  1.00  0.00    -0.281 N 
HETATM    4  H   UNL     1       3.292  31.092  54.515  1.00  0.00     0.189 HD
HETATM    5  C   UNL     1       4.266  29.272  53.942  1.00  0.00     0.039 A 
HETATM    6  C   UNL     1       5.438  28.736  54.424  1.00  0.00     0.015 A 
HETATM    7  C   UNL     1       6.002  27.444  53.948  1.00  0.00     0.169 C 
HETATM    8  N   UNL     1       5.022  26.721  53.101  1.00  0.00    -0.343 N 
HETATM    9  C   UNL     1       5.231  25.399  52.692  1.00  0.00     0.254 C 
HETATM   10  O   UNL     1       4.614  24.864  51.773  1.00  0.00    -0.267 OA
HETATM   11  C   UNL     1       4.167  27.539  52.211  1.00  0.00     0.132 C 
HETATM   12  C   UNL     1       3.380  28.644  52.941  1.00  0.00     0.079 C 
ENDROOT
BRANCH   9  13
HETATM   13  C   UNL     1       6.285  24.590  53.341  1.00  0.00     0.035 A 
HETATM   14  C   UNL     1       6.243  24.465  54.735  1.00  0.00     0.056 A 
HETATM   15  C   UNL     1       7.244  23.736  55.336  1.00  0.00     0.106 A 
HETATM   16  C   UNL     1       8.257  23.157  54.607  1.00  0.00     0.105 A 
HETATM   17  O   UNL     1       7.365  23.505  56.670  1.00  0.00    -0.323 OA
HETATM   18  O   UNL     1       9.140  22.486  55.395  1.00  0.00    -0.323 OA
HETATM   19  C   UNL     1       8.333  23.282  53.235  1.00  0.00     0.041 A 
HETATM   20  C   UNL     1       8.585  22.735  56.703  1.00  0.00     0.352 A 
HETATM   21  C   UNL     1       7.336  24.023  52.593  1.00  0.00     0.020 A 
ENDBRANCH   9  13
BRANCH   1  22
HETATM   22  C   UNL     1       7.005  29.546  56.348  1.00  0.00    -0.005 A 
HETATM   23  C   UNL     1       8.282  29.273  55.831  1.00  0.00     0.014 A 
HETATM   24  C   UNL     1       9.396  29.206  56.671  1.00  0.00     0.001 A 
HETATM   25  C   UNL     1       9.245  29.407  58.042  1.00  0.00     0.000 A 
HETATM   26  C   UNL     1       7.982  29.664  58.571  1.00  0.00     0.001 A 
HETATM   27  C   UNL     1       6.866  29.729  57.730  1.00  0.00     0.014 A 
ENDBRANCH   1  22
TORSDOF 2
ENDMDL
MODEL 6
REMARK VINA RESULT:      -9.2      3.175      7.055
REMARK  2 active torsions:
REMARK  status: ('A' for Active; 'I' for Inactive)
REMARK    1  A    between atoms: C_4  and  C_5 
REMARK       I    between atoms: N_12  and  C_13 
REMARK    2  A    between atoms: C_13  and  C_14 
ROOT
HETATM    1  C   UNL     1       3.192  28.822  50.726  1.00  0.00     0.097 A 
HETATM    2  N   UNL     1       2.621  30.036  50.592  1.00  0.00    -0.173 NA
HETATM    3  N   UNL     1       2.745  30.617  51.794  1.00  0.00    -0.281 N 
HETATM    4  H   UNL     1       2.388  31.560  51.913  1.00  0.00     0.189 HD
HETATM    5  C   UNL     1       3.385  29.831  52.692  1.00  0.00     0.039 A 
HETATM    6  C   UNL     1       3.672  28.645  52.057  1.00  0.00     0.015 A 
HETATM    7  C   UNL     1       4.390  27.519  52.713  1.00  0.00     0.169 C 
HETATM    8  N   UNL     1       4.958  27.944  54.016  1.00  0.00    -0.343 N 
HETATM    9  C   UNL     1       5.843  27.133  54.736  1.00  0.00     0.254 C 
HETATM   10  O   UNL     1       6.105  27.302  55.926  1.00  0.00    -0.267 OA
HETATM   11  C   UNL     1       4.159  28.895  54.821  1.00  0.00     0.132 C 
HETATM   12  C   UNL     1       3.777  30.186  54.071  1.00  0.00     0.079 C 
ENDROOT
BRANCH   9  13
HETATM   13  C   UNL     1       6.469  25.968  54.078  1.00  0.00     0.035 A 
HETATM   14  C   UNL     1       6.474  24.753  54.774  1.00  0.00     0.056 A 
HETATM   15  C   UNL     1       7.087  23.680  54.168  1.00  0.00     0.106 A 
HETATM   16  C   UNL     1       7.682  23.785  52.932  1.00  0.00     0.105 A 
HETATM   17  O   UNL     1       7.185  22.427  54.687  1.00  0.00    -0.323 OA
HETATM   18  O   UNL     1       8.227  22.610  52.519  1.00  0.00    -0.323 OA
HETATM   19  C   UNL     1       7.709  24.976  52.234  1.00  0.00     0.041 A 
HETATM   20  C   UNL     1       7.935  21.761  53.649  1.00  0.00     0.352 A 
HETATM   21  C   UNL     1       7.103  26.090  52.824  1.00  0.00     0.020 A 
ENDBRANCH   9  13
BRANCH   1  22
HETATM   22  C   UNL     1       3.298  27.919  49.578  1.00  0.00    -0.005 A 
HETATM   23  C   UNL     1       4.538  27.338  49.263  1.00  0.00     0.014 A 
HETATM   24  C   UNL     1       4.662  26.448  48.195  1.00  0.00     0.001 A 
HETATM   25  C   UNL     1       3.546  26.129  47.423  1.00  0.00     0.000 A 
HETATM   26  C   UNL     1       2.313  26.708  47.714  1.00  0.00     0.001 A 
HETATM   27  C   UNL     1       2.189  27.602  48.782  1.00  0.00     0.014 A 
ENDBRANCH   1  22
TORSDOF 2
ENDMDL
MODEL 7
REMARK VINA RESULT:      -9.0      6.499      8.589
REMARK  2 active torsions:
REMARK  status: ('A' for Active; 'I' for Inactive)
REMARK    1  A    between atoms: C_4  and  C_5 
REMARK       I    between atoms: N_12  and  C_13 
REMARK    2  A    between atoms: C_13  and  C_14 
ROOT
HETATM    1  C   UNL     1       8.641  30.628  60.251  1.00  0.00     0.097 A 
HETATM    2  N   UNL     1       9.229  30.083  61.334  1.00  0.00    -0.173 NA
HETATM    3  N   UNL     1       8.601  30.628  62.386  1.00  0.00    -0.281 N 
HETATM    4  H   UNL     1       8.882  30.340  63.318  1.00  0.00     0.189 HD
HETATM    5  C   UNL     1       7.624  31.493  62.022  1.00  0.00     0.039 A 
HETATM    6  C   UNL     1       7.627  31.549  60.648  1.00  0.00     0.015 A 
HETATM    7  C   UNL     1       6.682  32.386  59.861  1.00  0.00     0.169 C 
HETATM    8  N   UNL     1       5.609  32.927  60.730  1.00  0.00    -0.343 N 
HETATM    9  C   UNL     1       4.488  33.580  60.203  1.00  0.00     0.254 C 
HETATM   10  O   UNL     1       3.736  34.287  60.870  1.00  0.00    -0.267 OA
HETATM   11  C   UNL     1       5.989  33.317  62.107  1.00  0.00     0.132 C 
HETATM   12  C   UNL     1       6.675  32.194  62.910  1.00  0.00     0.079 C 
ENDROOT
BRANCH   9  13
HETATM   13  C   UNL     1       4.197  33.481  58.758  1.00  0.00     0.035 A 
HETATM   14  C   UNL     1       3.540  32.330  58.303  1.00  0.00     0.056 A 
HETATM   15  C   UNL     1       3.299  32.231  56.952  1.00  0.00     0.106 A 
HETATM   16  C   UNL     1       3.691  33.212  56.071  1.00  0.00     0.105 A 
HETATM   17  O   UNL     1       2.673  31.195  56.333  1.00  0.00    -0.323 OA
HETATM   18  O   UNL     1       3.357  32.914  54.786  1.00  0.00    -0.323 OA
HETATM   19  C   UNL     1       4.358  34.345  56.489  1.00  0.00     0.041 A 
HETATM   20  C   UNL     1       2.739  31.622  54.956  1.00  0.00     0.352 A 
HETATM   21  C   UNL     1       4.626  34.476  57.855  1.00  0.00     0.020 A 
ENDBRANCH   9  13
BRANCH   1  22
HETATM   22  C   UNL     1       9.035  30.212  58.902  1.00  0.00    -0.005 A 
HETATM   23  C   UNL     1      10.185  30.762  58.314  1.00  0.00     0.014 A 
HETATM   24  C   UNL     1      10.603  30.360  57.044  1.00  0.00     0.001 A 
HETATM   25  C   UNL     1       9.873  29.403  56.343  1.00  0.00     0.000 A 
HETATM   26  C   UNL     1       8.721  28.858  56.907  1.00  0.00     0.001 A 
HETATM   27  C   UNL     1       8.301  29.263  58.178  1.00  0.00     0.014 A 
ENDBRANCH   1  22
TORSDOF 2
ENDMDL
MODEL 8
REMARK VINA RESULT:      -9.0      8.274     12.309
REMARK  2 active torsions:
REMARK  status: ('A' for Active; 'I' for Inactive)
REMARK    1  A    between atoms: C_4  and  C_5 
REMARK       I    between atoms: N_12  and  C_13 
REMARK    2  A    between atoms: C_13  and  C_14 
ROOT
HETATM    1  C   UNL     1       5.376  32.347  57.902  1.00  0.00     0.097 A 
HETATM    2  N   UNL     1       5.325  31.652  56.748  1.00  0.00    -0.173 NA
HETATM    3  N   UNL     1       6.249  30.688  56.877  1.00  0.00    -0.281 N 
HETATM    4  H   UNL     1       6.368  30.030  56.114  1.00  0.00     0.189 HD
HETATM    5  C   UNL     1       6.883  30.729  58.073  1.00  0.00     0.039 A 
HETATM    6  C   UNL     1       6.372  31.802  58.764  1.00  0.00     0.015 A 
HETATM    7  C   UNL     1       6.809  32.174  60.137  1.00  0.00     0.169 C 
HETATM    8  N   UNL     1       7.651  31.106  60.730  1.00  0.00    -0.343 N 
HETATM    9  C   UNL     1       8.024  31.120  62.079  1.00  0.00     0.254 C 
HETATM   10  O   UNL     1       8.938  30.440  62.540  1.00  0.00    -0.267 OA
HETATM   11  C   UNL     1       8.572  30.390  59.817  1.00  0.00     0.132 C 
HETATM   12  C   UNL     1       7.880  29.769  58.589  1.00  0.00     0.079 C 
ENDROOT
BRANCH   9  13
HETATM   13  C   UNL     1       7.341  32.036  63.017  1.00  0.00     0.035 A 
HETATM   14  C   UNL     1       5.941  32.064  62.995  1.00  0.00     0.056 A 
HETATM   15  C   UNL     1       5.313  32.941  63.849  1.00  0.00     0.106 A 
HETATM   16  C   UNL     1       6.020  33.768  64.690  1.00  0.00     0.105 A 
HETATM   17  O   UNL     1       3.968  33.104  63.970  1.00  0.00    -0.323 OA
HETATM   18  O   UNL     1       5.207  34.553  65.446  1.00  0.00    -0.323 OA
HETATM   19  C   UNL     1       7.400  33.775  64.717  1.00  0.00     0.041 A 
HETATM   20  C   UNL     1       3.909  34.148  64.964  1.00  0.00     0.352 A 
HETATM   21  C   UNL     1       8.072  32.902  63.856  1.00  0.00     0.020 A 
ENDBRANCH   9  13
BRANCH   1  22
HETATM   22  C   UNL     1       4.448  33.454  58.145  1.00  0.00    -0.005 A 
HETATM   23  C   UNL     1       3.764  34.037  57.066  1.00  0.00     0.014 A 
HETATM   24  C   UNL     1       2.848  35.071  57.271  1.00  0.00     0.001 A 
HETATM   25  C   UNL     1       2.606  35.538  58.561  1.00  0.00     0.000 A 
HETATM   26  C   UNL     1       3.287  34.979  59.641  1.00  0.00     0.001 A 
HETATM   27  C   UNL     1       4.206  33.946  59.435  1.00  0.00     0.014 A 
ENDBRANCH   1  22
TORSDOF 2
ENDMDL
MODEL 9
REMARK VINA RESULT:      -8.9     12.116     16.020
REMARK  2 active torsions:
REMARK  status: ('A' for Active; 'I' for Inactive)
REMARK    1  A    between atoms: C_4  and  C_5 
REMARK       I    between atoms: N_12  and  C_13 
REMARK    2  A    between atoms: C_13  and  C_14 
ROOT
HETATM    1  C   UNL     1       4.947  37.790  60.884  1.00  0.00     0.097 A 
HETATM    2  N   UNL     1       4.259  38.295  59.842  1.00  0.00    -0.173 NA
HETATM    3  N   UNL     1       3.557  37.264  59.350  1.00  0.00    -0.281 N 
HETATM    4  H   UNL     1       2.947  37.431  58.556  1.00  0.00     0.189 HD
HETATM    5  C   UNL     1       3.756  36.118  60.044  1.00  0.00     0.039 A 
HETATM    6  C   UNL     1       4.669  36.400  61.033  1.00  0.00     0.015 A 
HETATM    7  C   UNL     1       5.140  35.392  62.022  1.00  0.00     0.169 C 
HETATM    8  N   UNL     1       4.317  34.160  61.952  1.00  0.00    -0.343 N 
HETATM    9  C   UNL     1       4.426  33.142  62.906  1.00  0.00     0.254 C 
HETATM   10  O   UNL     1       3.996  32.003  62.739  1.00  0.00    -0.267 OA
HETATM   11  C   UNL     1       3.852  33.735  60.612  1.00  0.00     0.132 C 
HETATM   12  C   UNL     1       3.076  34.822  59.844  1.00  0.00     0.079 C 
ENDROOT
BRANCH   9  13
HETATM   13  C   UNL     1       5.144  33.400  64.172  1.00  0.00     0.035 A 
HETATM   14  C   UNL     1       4.387  33.810  65.277  1.00  0.00     0.056 A 
HETATM   15  C   UNL     1       5.065  34.078  66.444  1.00  0.00     0.106 A 
HETATM   16  C   UNL     1       6.433  33.960  66.533  1.00  0.00     0.105 A 
HETATM   17  O   UNL     1       4.501  34.481  67.614  1.00  0.00    -0.323 OA
HETATM   18  O   UNL     1       6.899  34.273  67.772  1.00  0.00    -0.323 OA
HETATM   19  C   UNL     1       7.204  33.578  65.454  1.00  0.00     0.041 A 
HETATM   20  C   UNL     1       5.672  34.630  68.443  1.00  0.00     0.352 A 
HETATM   21  C   UNL     1       6.549  33.306  64.249  1.00  0.00     0.020 A 
ENDBRANCH   9  13
BRANCH   1  22
HETATM   22  C   UNL     1       5.787  38.658  61.713  1.00  0.00    -0.005 A 
HETATM   23  C   UNL     1       6.935  39.247  61.158  1.00  0.00     0.014 A 
HETATM   24  C   UNL     1       7.737  40.105  61.913  1.00  0.00     0.001 A 
HETATM   25  C   UNL     1       7.402  40.384  63.237  1.00  0.00     0.000 A 
HETATM   26  C   UNL     1       6.273  39.796  63.806  1.00  0.00     0.001 A 
HETATM   27  C   UNL     1       5.472  38.934  63.050  1.00  0.00     0.014 A 
ENDBRANCH   1  22
TORSDOF 2
ENDMDL
MODEL 10
REMARK VINA RESULT:      -8.7      2.317      5.429
REMARK  2 active torsions:
REMARK  status: ('A' for Active; 'I' for Inactive)
REMARK    1  A    between atoms: C_4  and  C_5 
REMARK       I    between atoms: N_12  and  C_13 
REMARK    2  A    between atoms: C_13  and  C_14 
ROOT
HETATM    1  C   UNL     1       7.482  27.110  57.101  1.00  0.00     0.097 A 
HETATM    2  N   UNL     1       8.302  26.280  57.776  1.00  0.00    -0.173 NA
HETATM    3  N   UNL     1       8.253  25.118  57.108  1.00  0.00    -0.281 N 
HETATM    4  H   UNL     1       8.819  24.345  57.443  1.00  0.00     0.189 HD
HETATM    5  C   UNL     1       7.444  25.173  56.023  1.00  0.00     0.039 A 
HETATM    6  C   UNL     1       6.899  26.435  55.989  1.00  0.00     0.015 A 
HETATM    7  C   UNL     1       5.960  26.892  54.930  1.00  0.00     0.169 C 
HETATM    8  N   UNL     1       5.905  25.914  53.816  1.00  0.00    -0.343 N 
HETATM    9  C   UNL     1       5.252  26.199  52.612  1.00  0.00     0.254 C 
HETATM   10  O   UNL     1       4.930  25.342  51.792  1.00  0.00    -0.267 OA
HETATM   11  C   UNL     1       5.991  24.479  54.174  1.00  0.00     0.132 C 
HETATM   12  C   UNL     1       7.231  24.116  55.013  1.00  0.00     0.079 C 
ENDROOT
BRANCH   9  13
HETATM   13  C   UNL     1       4.861  27.591  52.303  1.00  0.00     0.035 A 
HETATM   14  C   UNL     1       5.716  28.341  51.485  1.00  0.00     0.056 A 
HETATM   15  C   UNL     1       5.361  29.645  51.227  1.00  0.00     0.106 A 
HETATM   16  C   UNL     1       4.220  30.205  51.754  1.00  0.00     0.105 A 
HETATM   17  O   UNL     1       6.062  30.519  50.456  1.00  0.00    -0.323 OA
HETATM   18  O   UNL     1       4.061  31.502  51.375  1.00  0.00    -0.323 OA
HETATM   19  C   UNL     1       3.372  29.495  52.579  1.00  0.00     0.041 A 
HETATM   20  C   UNL     1       5.246  31.703  50.577  1.00  0.00     0.352 A 
HETATM   21  C   UNL     1       3.706  28.169  52.869  1.00  0.00     0.020 A 
ENDBRANCH   9  13
BRANCH   1  22
HETATM   22  C   UNL     1       7.335  28.508  57.514  1.00  0.00    -0.005 A 
HETATM   23  C   UNL     1       6.084  29.137  57.401  1.00  0.00     0.014 A 
HETATM   24  C   UNL     1       5.906  30.458  57.817  1.00  0.00     0.001 A 
HETATM   25  C   UNL     1       6.979  31.169  58.351  1.00  0.00     0.000 A 
HETATM   26  C   UNL     1       8.230  30.563  58.456  1.00  0.00     0.001 A 
HETATM   27  C   UNL     1       8.409  29.242  58.036  1.00  0.00     0.014 A 
ENDBRANCH   1  22
TORSDOF 2
ENDMDL
