MODEL 1
REMARK VINA RESULT:      -8.4      0.000      0.000
REMARK  5 active torsions:
REMARK  status: ('A' for Active; 'I' for Inactive)
REMARK    1  A    between atoms: S_2  and  C_3 
REMARK    2  A    between atoms: C_3  and  C_4 
REMARK    3  A    between atoms: C_7  and  C_8 
REMARK       I    between atoms: C_8  and  N_9 
REMARK    4  A    between atoms: N_9  and  C_10 
REMARK    5  A    between atoms: C_12  and  C_13 
ROOT
HETATM    1  C   UNL     1       6.537  27.056  56.074  1.00  0.00     0.256 C 
HETATM    2  N   UNL     1       7.676  26.574  55.451  1.00  0.00    -0.323 N 
HETATM    3  O   UNL     1       5.413  26.572  55.996  1.00  0.00    -0.267 OA
HETATM    4  H   UNL     1       8.548  27.050  55.628  1.00  0.00     0.169 HD
ENDROOT
BRANCH   2   5
HETATM    5  C   UNL     1       7.752  25.525  54.506  1.00  0.00     0.035 A 
HETATM    6  C   UNL     1       8.115  24.212  54.824  1.00  0.00     0.042 A 
HETATM    7  C   UNL     1       8.105  23.196  53.853  1.00  0.00    -0.021 A 
HETATM    8  C   UNL     1       7.751  23.526  52.539  1.00  0.00     0.012 A 
HETATM    9  C   UNL     1       7.402  24.836  52.206  1.00  0.00     0.003 A 
HETATM   10  C   UNL     1       7.394  25.827  53.188  1.00  0.00     0.029 A 
BRANCH   7  11
HETATM   11  C   UNL     1       8.421  21.826  54.232  1.00  0.00     0.010 A 
HETATM   12  C   UNL     1       8.520  20.650  53.448  1.00  0.00     0.152 A 
HETATM   13  N   UNL     1       8.850  19.572  54.164  1.00  0.00    -0.187 NA
HETATM   14  N   UNL     1       8.951  20.047  55.414  1.00  0.00    -0.289 N 
HETATM   15  H   UNL     1       9.193  19.399  56.156  1.00  0.00     0.188 HD
HETATM   16  C   UNL     1       8.707  21.387  55.510  1.00  0.00     0.123 A 
ENDBRANCH   7  11
ENDBRANCH   2   5
BRANCH   1  17
HETATM   17  C   UNL     1       6.705  28.306  56.881  1.00  0.00     0.032 A 
HETATM   18  C   UNL     1       5.747  29.325  56.938  1.00  0.00     0.017 A 
HETATM   19  C   UNL     1       5.944  30.428  57.776  1.00  0.00     0.009 A 
HETATM   20  C   UNL     1       7.104  30.540  58.556  1.00  0.00    -0.049 A 
HETATM   21  C   UNL     1       8.082  29.542  58.459  1.00  0.00     0.009 A 
HETATM   22  C   UNL     1       7.883  28.436  57.630  1.00  0.00     0.017 A 
BRANCH  20  23
HETATM   23  C   UNL     1       7.291  31.701  59.501  1.00  0.00     0.112 C 
BRANCH  23  24
HETATM   24  S   UNL     1       9.025  31.944  60.004  1.00  0.00    -0.169 SA
HETATM   25  C   UNL     1       8.934  31.342  61.710  1.00  0.00     0.090 C 
ENDBRANCH  23  24
ENDBRANCH  20  23
ENDBRANCH   1  17
TORSDOF 5
ENDMDL
MODEL 2
REMARK VINA RESULT:      -8.3      4.064      6.718
REMARK  5 active torsions:
REMARK  status: ('A' for Active; 'I' for Inactive)
REMARK    1  A    between atoms: S_2  and  C_3 
REMARK    2  A    between atoms: C_3  and  C_4 
REMARK    3  A    between atoms: C_7  and  C_8 
REMARK       I    between atoms: C_8  and  N_9 
REMARK    4  A    between atoms: N_9  and  C_10 
REMARK    5  A    between atoms: C_12  and  C_13 
ROOT
HETATM    1  C   UNL     1       7.398  31.971  60.159  1.00  0.00     0.256 C 
HETATM    2  N   UNL     1       8.235  30.870  60.092  1.00  0.00    -0.323 N 
HETATM    3  O   UNL     1       6.871  32.535  59.206  1.00  0.00    -0.267 OA
HETATM    4  H   UNL     1       8.575  30.482  60.960  1.00  0.00     0.169 HD
ENDROOT
BRANCH   2   5
HETATM    5  C   UNL     1       8.753  30.262  58.926  1.00  0.00     0.035 A 
HETATM    6  C   UNL     1       8.133  29.200  58.258  1.00  0.00     0.042 A 
HETATM    7  C   UNL     1       8.660  28.682  57.063  1.00  0.00    -0.021 A 
HETATM    8  C   UNL     1       9.846  29.231  56.558  1.00  0.00     0.012 A 
HETATM    9  C   UNL     1      10.481  30.280  57.224  1.00  0.00     0.003 A 
HETATM   10  C   UNL     1       9.931  30.798  58.396  1.00  0.00     0.029 A 
BRANCH   7  11
HETATM   11  C   UNL     1       7.953  27.623  56.356  1.00  0.00     0.010 A 
HETATM   12  C   UNL     1       7.868  26.233  56.621  1.00  0.00     0.152 A 
HETATM   13  N   UNL     1       7.101  25.582  55.743  1.00  0.00    -0.187 NA
HETATM   14  N   UNL     1       6.700  26.546  54.902  1.00  0.00    -0.289 N 
HETATM   15  H   UNL     1       6.098  26.288  54.129  1.00  0.00     0.188 HD
HETATM   16  C   UNL     1       7.179  27.783  55.224  1.00  0.00     0.123 A 
ENDBRANCH   7  11
ENDBRANCH   2   5
BRANCH   1  17
HETATM   17  C   UNL     1       7.159  32.537  61.525  1.00  0.00     0.032 A 
HETATM   18  C   UNL     1       5.992  33.220  61.886  1.00  0.00     0.017 A 
HETATM   19  C   UNL     1       5.811  33.651  63.205  1.00  0.00     0.009 A 
HETATM   20  C   UNL     1       6.796  33.423  64.178  1.00  0.00    -0.049 A 
HETATM   21  C   UNL     1       7.982  32.782  63.800  1.00  0.00     0.009 A 
HETATM   22  C   UNL     1       8.161  32.343  62.487  1.00  0.00     0.017 A 
BRANCH  20  23
HETATM   23  C   UNL     1       6.577  33.839  65.611  1.00  0.00     0.112 C 
BRANCH  23  24
HETATM   24  S   UNL     1       4.816  34.021  66.043  1.00  0.00    -0.169 SA
HETATM   25  C   UNL     1       4.956  34.158  67.843  1.00  0.00     0.090 C 
ENDBRANCH  23  24
ENDBRANCH  20  23
ENDBRANCH   1  17
TORSDOF 5
ENDMDL
MODEL 3
REMARK VINA RESULT:      -8.1      5.272     11.028
REMARK  5 active torsions:
REMARK  status: ('A' for Active; 'I' for Inactive)
REMARK    1  A    between atoms: S_2  and  C_3 
REMARK    2  A    between atoms: C_3  and  C_4 
REMARK    3  A    between atoms: C_7  and  C_8 
REMARK       I    between atoms: C_8  and  N_9 
REMARK    4  A    between atoms: N_9  and  C_10 
REMARK    5  A    between atoms: C_12  and  C_13 
ROOT
HETATM    1  C   UNL     1       8.063  31.305  59.441  1.00  0.00     0.256 C 
HETATM    2  N   UNL     1       7.461  30.944  60.635  1.00  0.00    -0.323 N 
HETATM    3  O   UNL     1       8.586  32.386  59.196  1.00  0.00    -0.267 OA
HETATM    4  H   UNL     1       7.098  30.006  60.715  1.00  0.00     0.169 HD
ENDROOT
BRANCH   2   5
HETATM    5  C   UNL     1       7.210  31.776  61.750  1.00  0.00     0.035 A 
HETATM    6  C   UNL     1       5.950  32.292  62.071  1.00  0.00     0.042 A 
HETATM    7  C   UNL     1       5.749  33.057  63.233  1.00  0.00    -0.021 A 
HETATM    8  C   UNL     1       6.848  33.325  64.059  1.00  0.00     0.012 A 
HETATM    9  C   UNL     1       8.112  32.829  63.740  1.00  0.00     0.003 A 
HETATM   10  C   UNL     1       8.289  32.050  62.596  1.00  0.00     0.029 A 
BRANCH   7  11
HETATM   11  C   UNL     1       4.411  33.521  63.575  1.00  0.00     0.010 A 
HETATM   12  C   UNL     1       3.205  33.489  62.831  1.00  0.00     0.152 A 
HETATM   13  N   UNL     1       2.169  34.003  63.499  1.00  0.00    -0.187 NA
HETATM   14  N   UNL     1       2.706  34.380  64.668  1.00  0.00    -0.289 N 
HETATM   15  H   UNL     1       2.101  34.813  65.357  1.00  0.00     0.188 HD
HETATM   16  C   UNL     1       4.041  34.113  64.766  1.00  0.00     0.123 A 
ENDBRANCH   7  11
ENDBRANCH   2   5
BRANCH   1  17
HETATM   17  C   UNL     1       8.026  30.283  58.348  1.00  0.00     0.032 A 
HETATM   18  C   UNL     1       9.170  29.678  57.814  1.00  0.00     0.017 A 
HETATM   19  C   UNL     1       9.048  28.674  56.847  1.00  0.00     0.009 A 
HETATM   20  C   UNL     1       7.786  28.272  56.385  1.00  0.00    -0.049 A 
HETATM   21  C   UNL     1       6.647  28.913  56.886  1.00  0.00     0.009 A 
HETATM   22  C   UNL     1       6.767  29.909  57.858  1.00  0.00     0.017 A 
BRANCH  20  23
HETATM   23  C   UNL     1       7.652  27.152  55.383  1.00  0.00     0.112 C 
BRANCH  23  24
HETATM   24  S   UNL     1       7.278  25.544  56.152  1.00  0.00    -0.169 SA
HETATM   25  C   UNL     1       7.938  24.436  54.880  1.00  0.00     0.090 C 
ENDBRANCH  23  24
ENDBRANCH  20  23
ENDBRANCH   1  17
TORSDOF 5
ENDMDL
MODEL 4
REMARK VINA RESULT:      -8.0      3.958      9.186
REMARK  5 active torsions:
REMARK  status: ('A' for Active; 'I' for Inactive)
REMARK    1  A    between atoms: S_2  and  C_3 
REMARK    2  A    between atoms: C_3  and  C_4 
REMARK    3  A    between atoms: C_7  and  C_8 
REMARK       I    between atoms: C_8  and  N_9 
REMARK    4  A    between atoms: N_9  and  C_10 
REMARK    5  A    between atoms: C_12  and  C_13 
ROOT
HETATM    1  C   UNL     1       7.662  27.570  56.455  1.00  0.00     0.256 C 
HETATM    2  N   UNL     1       8.761  27.960  57.201  1.00  0.00    -0.323 N 
HETATM    3  O   UNL     1       6.757  28.302  56.068  1.00  0.00    -0.267 OA
HETATM    4  H   UNL     1       9.451  27.259  57.425  1.00  0.00     0.169 HD
ENDROOT
BRANCH   2   5
HETATM    5  C   UNL     1       8.997  29.231  57.773  1.00  0.00     0.035 A 
HETATM    6  C   UNL     1       8.212  29.788  58.788  1.00  0.00     0.042 A 
HETATM    7  C   UNL     1       8.537  31.027  59.366  1.00  0.00    -0.021 A 
HETATM    8  C   UNL     1       9.655  31.719  58.885  1.00  0.00     0.012 A 
HETATM    9  C   UNL     1      10.437  31.181  57.862  1.00  0.00     0.003 A 
HETATM   10  C   UNL     1      10.113  29.939  57.316  1.00  0.00     0.029 A 
BRANCH   7  11
HETATM   11  C   UNL     1       7.739  31.547  60.468  1.00  0.00     0.010 A 
HETATM   12  C   UNL     1       6.685  32.494  60.478  1.00  0.00     0.152 A 
HETATM   13  N   UNL     1       6.184  32.702  61.699  1.00  0.00    -0.187 NA
HETATM   14  N   UNL     1       6.923  31.901  62.480  1.00  0.00    -0.289 N 
HETATM   15  H   UNL     1       6.729  31.890  63.476  1.00  0.00     0.188 HD
HETATM   16  C   UNL     1       7.864  31.188  61.795  1.00  0.00     0.123 A 
ENDBRANCH   7  11
ENDBRANCH   2   5
BRANCH   1  17
HETATM   17  C   UNL     1       7.563  26.110  56.138  1.00  0.00     0.032 A 
HETATM   18  C   UNL     1       6.979  25.610  54.968  1.00  0.00     0.017 A 
HETATM   19  C   UNL     1       6.995  24.235  54.708  1.00  0.00     0.009 A 
HETATM   20  C   UNL     1       7.576  23.338  55.616  1.00  0.00    -0.049 A 
HETATM   21  C   UNL     1       8.116  23.839  56.807  1.00  0.00     0.009 A 
HETATM   22  C   UNL     1       8.109  25.211  57.065  1.00  0.00     0.017 A 
BRANCH  20  23
HETATM   23  C   UNL     1       7.642  21.863  55.310  1.00  0.00     0.112 C 
BRANCH  23  24
HETATM   24  S   UNL     1       8.989  21.429  54.162  1.00  0.00    -0.169 SA
HETATM   25  C   UNL     1       8.045  20.516  52.915  1.00  0.00     0.090 C 
ENDBRANCH  23  24
ENDBRANCH  20  23
ENDBRANCH   1  17
TORSDOF 5
ENDMDL
MODEL 5
REMARK VINA RESULT:      -8.0      1.451      2.092
REMARK  5 active torsions:
REMARK  status: ('A' for Active; 'I' for Inactive)
REMARK    1  A    between atoms: S_2  and  C_3 
REMARK    2  A    between atoms: C_3  and  C_4 
REMARK    3  A    between atoms: C_7  and  C_8 
REMARK       I    between atoms: C_8  and  N_9 
REMARK    4  A    between atoms: N_9  and  C_10 
REMARK    5  A    between atoms: C_12  and  C_13 
ROOT
HETATM    1  C   UNL     1       6.338  26.739  56.241  1.00  0.00     0.256 C 
HETATM    2  N   UNL     1       7.422  26.551  55.401  1.00  0.00    -0.323 N 
HETATM    3  O   UNL     1       5.418  25.949  56.418  1.00  0.00    -0.267 OA
HETATM    4  H   UNL     1       8.129  27.271  55.375  1.00  0.00     0.169 HD
ENDROOT
BRANCH   2   5
HETATM    5  C   UNL     1       7.621  25.489  54.490  1.00  0.00     0.035 A 
HETATM    6  C   UNL     1       8.002  24.197  54.867  1.00  0.00     0.042 A 
HETATM    7  C   UNL     1       8.116  23.163  53.922  1.00  0.00    -0.021 A 
HETATM    8  C   UNL     1       7.869  23.455  52.575  1.00  0.00     0.012 A 
HETATM    9  C   UNL     1       7.503  24.744  52.184  1.00  0.00     0.003 A 
HETATM   10  C   UNL     1       7.371  25.752  53.139  1.00  0.00     0.029 A 
BRANCH   7  11
HETATM   11  C   UNL     1       8.447  21.813  54.357  1.00  0.00     0.010 A 
HETATM   12  C   UNL     1       8.504  20.597  53.632  1.00  0.00     0.152 A 
HETATM   13  N   UNL     1       8.866  19.557  54.388  1.00  0.00    -0.187 NA
HETATM   14  N   UNL     1       9.032  20.097  55.604  1.00  0.00    -0.289 N 
HETATM   15  H   UNL     1       9.308  19.488  56.366  1.00  0.00     0.188 HD
HETATM   16  C   UNL     1       8.796  21.441  55.640  1.00  0.00     0.123 A 
ENDBRANCH   7  11
ENDBRANCH   2   5
BRANCH   1  17
HETATM   17  C   UNL     1       6.280  28.051  56.960  1.00  0.00     0.032 A 
HETATM   18  C   UNL     1       7.356  28.592  57.672  1.00  0.00     0.017 A 
HETATM   19  C   UNL     1       7.248  29.861  58.252  1.00  0.00     0.009 A 
HETATM   20  C   UNL     1       6.061  30.601  58.147  1.00  0.00    -0.049 A 
HETATM   21  C   UNL     1       4.971  30.035  57.474  1.00  0.00     0.009 A 
HETATM   22  C   UNL     1       5.080  28.773  56.887  1.00  0.00     0.017 A 
BRANCH  20  23
HETATM   23  C   UNL     1       5.963  31.991  58.724  1.00  0.00     0.112 C 
BRANCH  23  24
HETATM   24  S   UNL     1       4.311  32.734  58.529  1.00  0.00    -0.169 SA
HETATM   25  C   UNL     1       4.660  33.906  57.193  1.00  0.00     0.090 C 
ENDBRANCH  23  24
ENDBRANCH  20  23
ENDBRANCH   1  17
TORSDOF 5
ENDMDL
MODEL 6
REMARK VINA RESULT:      -7.9      4.795      7.000
REMARK  5 active torsions:
REMARK  status: ('A' for Active; 'I' for Inactive)
REMARK    1  A    between atoms: S_2  and  C_3 
REMARK    2  A    between atoms: C_3  and  C_4 
REMARK    3  A    between atoms: C_7  and  C_8 
REMARK       I    between atoms: C_8  and  N_9 
REMARK    4  A    between atoms: N_9  and  C_10 
REMARK    5  A    between atoms: C_12  and  C_13 
ROOT
HETATM    1  C   UNL     1       7.978  32.059  60.034  1.00  0.00     0.256 C 
HETATM    2  N   UNL     1       7.296  30.922  59.636  1.00  0.00    -0.323 N 
HETATM    3  O   UNL     1       8.867  32.623  59.405  1.00  0.00    -0.267 OA
HETATM    4  H   UNL     1       6.561  30.579  60.236  1.00  0.00     0.169 HD
ENDROOT
BRANCH   2   5
HETATM    5  C   UNL     1       7.568  30.115  58.507  1.00  0.00     0.035 A 
HETATM    6  C   UNL     1       6.587  29.653  57.623  1.00  0.00     0.042 A 
HETATM    7  C   UNL     1       6.926  28.911  56.479  1.00  0.00    -0.021 A 
HETATM    8  C   UNL     1       8.275  28.611  56.248  1.00  0.00     0.012 A 
HETATM    9  C   UNL     1       9.260  29.054  57.131  1.00  0.00     0.003 A 
HETATM   10  C   UNL     1       8.908  29.810  58.249  1.00  0.00     0.029 A 
BRANCH   7  11
HETATM   11  C   UNL     1       5.888  28.504  55.542  1.00  0.00     0.010 A 
HETATM   12  C   UNL     1       5.045  29.277  54.706  1.00  0.00     0.152 A 
HETATM   13  N   UNL     1       4.218  28.531  53.968  1.00  0.00    -0.187 NA
HETATM   14  N   UNL     1       4.515  27.277  54.337  1.00  0.00    -0.289 N 
HETATM   15  H   UNL     1       4.002  26.515  53.907  1.00  0.00     0.188 HD
HETATM   16  C   UNL     1       5.507  27.205  55.273  1.00  0.00     0.123 A 
ENDBRANCH   7  11
ENDBRANCH   2   5
BRANCH   1  17
HETATM   17  C   UNL     1       7.614  32.612  61.377  1.00  0.00     0.032 A 
HETATM   18  C   UNL     1       6.520  33.457  61.595  1.00  0.00     0.017 A 
HETATM   19  C   UNL     1       6.199  33.869  62.893  1.00  0.00     0.009 A 
HETATM   20  C   UNL     1       6.973  33.461  63.989  1.00  0.00    -0.049 A 
HETATM   21  C   UNL     1       8.095  32.655  63.760  1.00  0.00     0.009 A 
HETATM   22  C   UNL     1       8.411  32.235  62.467  1.00  0.00     0.017 A 
BRANCH  20  23
HETATM   23  C   UNL     1       6.595  33.860  65.393  1.00  0.00     0.112 C 
BRANCH  23  24
HETATM   24  S   UNL     1       4.795  33.870  65.675  1.00  0.00    -0.169 SA
HETATM   25  C   UNL     1       4.542  35.638  65.975  1.00  0.00     0.090 C 
ENDBRANCH  23  24
ENDBRANCH  20  23
ENDBRANCH   1  17
TORSDOF 5
ENDMDL
MODEL 7
REMARK VINA RESULT:      -7.9      4.498      6.827
REMARK  5 active torsions:
REMARK  status: ('A' for Active; 'I' for Inactive)
REMARK    1  A    between atoms: S_2  and  C_3 
REMARK    2  A    between atoms: C_3  and  C_4 
REMARK    3  A    between atoms: C_7  and  C_8 
REMARK       I    between atoms: C_8  and  N_9 
REMARK    4  A    between atoms: N_9  and  C_10 
REMARK    5  A    between atoms: C_12  and  C_13 
ROOT
HETATM    1  C   UNL     1       5.306  25.575  52.169  1.00  0.00     0.256 C 
HETATM    2  N   UNL     1       6.284  25.877  53.101  1.00  0.00    -0.323 N 
HETATM    3  O   UNL     1       4.590  24.579  52.171  1.00  0.00    -0.267 OA
HETATM    4  H   UNL     1       6.779  26.750  53.000  1.00  0.00     0.169 HD
ENDROOT
BRANCH   2   5
HETATM    5  C   UNL     1       6.743  25.051  54.152  1.00  0.00     0.035 A 
HETATM    6  C   UNL     1       7.176  23.732  53.977  1.00  0.00     0.042 A 
HETATM    7  C   UNL     1       7.688  22.983  55.050  1.00  0.00    -0.021 A 
HETATM    8  C   UNL     1       7.733  23.572  56.320  1.00  0.00     0.012 A 
HETATM    9  C   UNL     1       7.290  24.882  56.510  1.00  0.00     0.003 A 
HETATM   10  C   UNL     1       6.807  25.619  55.429  1.00  0.00     0.029 A 
BRANCH   7  11
HETATM   11  C   UNL     1       8.193  21.636  54.820  1.00  0.00     0.010 A 
HETATM   12  C   UNL     1       8.302  20.883  53.625  1.00  0.00     0.152 A 
HETATM   13  N   UNL     1       8.839  19.674  53.819  1.00  0.00    -0.187 NA
HETATM   14  N   UNL     1       9.064  19.641  55.140  1.00  0.00    -0.289 N 
HETATM   15  H   UNL     1       9.472  18.801  55.536  1.00  0.00     0.188 HD
HETATM   16  C   UNL     1       8.699  20.787  55.785  1.00  0.00     0.123 A 
ENDBRANCH   7  11
ENDBRANCH   2   5
BRANCH   1  17
HETATM   17  C   UNL     1       5.150  26.545  51.039  1.00  0.00     0.032 A 
HETATM   18  C   UNL     1       5.452  27.908  51.141  1.00  0.00     0.017 A 
HETATM   19  C   UNL     1       5.354  28.735  50.016  1.00  0.00     0.009 A 
HETATM   20  C   UNL     1       4.935  28.221  48.780  1.00  0.00    -0.049 A 
HETATM   21  C   UNL     1       4.587  26.868  48.695  1.00  0.00     0.009 A 
HETATM   22  C   UNL     1       4.694  26.038  49.813  1.00  0.00     0.017 A 
BRANCH  20  23
HETATM   23  C   UNL     1       4.882  29.101  47.556  1.00  0.00     0.112 C 
BRANCH  23  24
HETATM   24  S   UNL     1       4.619  30.860  47.949  1.00  0.00    -0.169 SA
HETATM   25  C   UNL     1       2.812  30.882  48.058  1.00  0.00     0.090 C 
ENDBRANCH  23  24
ENDBRANCH  20  23
ENDBRANCH   1  17
TORSDOF 5
ENDMDL
MODEL 8
REMARK VINA RESULT:      -7.9      6.133      9.066
REMARK  5 active torsions:
REMARK  status: ('A' for Active; 'I' for Inactive)
REMARK    1  A    between atoms: S_2  and  C_3 
REMARK    2  A    between atoms: C_3  and  C_4 
REMARK    3  A    between atoms: C_7  and  C_8 
REMARK       I    between atoms: C_8  and  N_9 
REMARK    4  A    between atoms: N_9  and  C_10 
REMARK    5  A    between atoms: C_12  and  C_13 
ROOT
HETATM    1  C   UNL     1       5.347  26.431  51.953  1.00  0.00     0.256 C 
HETATM    2  N   UNL     1       5.607  26.579  50.601  1.00  0.00    -0.323 N 
HETATM    3  O   UNL     1       4.498  27.040  52.595  1.00  0.00    -0.267 OA
HETATM    4  H   UNL     1       6.314  25.988  50.190  1.00  0.00     0.169 HD
ENDROOT
BRANCH   2   5
HETATM    5  C   UNL     1       5.050  27.539  49.726  1.00  0.00     0.035 A 
HETATM    6  C   UNL     1       3.950  27.294  48.896  1.00  0.00     0.042 A 
HETATM    7  C   UNL     1       3.397  28.310  48.098  1.00  0.00    -0.021 A 
HETATM    8  C   UNL     1       3.988  29.579  48.121  1.00  0.00     0.012 A 
HETATM    9  C   UNL     1       5.095  29.831  48.933  1.00  0.00     0.003 A 
HETATM   10  C   UNL     1       5.616  28.818  49.737  1.00  0.00     0.029 A 
BRANCH   7  11
HETATM   11  C   UNL     1       2.210  28.040  47.298  1.00  0.00     0.010 A 
HETATM   12  C   UNL     1       1.248  28.922  46.747  1.00  0.00     0.152 A 
HETATM   13  N   UNL     1       0.299  28.289  46.052  1.00  0.00    -0.187 NA
HETATM   14  N   UNL     1       0.638  26.997  46.165  1.00  0.00    -0.289 N 
HETATM   15  H   UNL     1       0.049  26.305  45.714  1.00  0.00     0.188 HD
HETATM   16  C   UNL     1       1.772  26.794  46.897  1.00  0.00     0.123 A 
ENDBRANCH   7  11
ENDBRANCH   2   5
BRANCH   1  17
HETATM   17  C   UNL     1       6.221  25.465  52.692  1.00  0.00     0.032 A 
HETATM   18  C   UNL     1       5.969  25.038  54.001  1.00  0.00     0.017 A 
HETATM   19  C   UNL     1       6.791  24.074  54.595  1.00  0.00     0.009 A 
HETATM   20  C   UNL     1       7.884  23.534  53.901  1.00  0.00    -0.049 A 
HETATM   21  C   UNL     1       8.160  24.000  52.610  1.00  0.00     0.009 A 
HETATM   22  C   UNL     1       7.337  24.956  52.012  1.00  0.00     0.017 A 
BRANCH  20  23
HETATM   23  C   UNL     1       8.735  22.455  54.521  1.00  0.00     0.112 C 
BRANCH  23  24
HETATM   24  S   UNL     1       8.353  22.161  56.278  1.00  0.00    -0.169 SA
HETATM   25  C   UNL     1       7.827  20.430  56.191  1.00  0.00     0.090 C 
ENDBRANCH  23  24
ENDBRANCH  20  23
ENDBRANCH   1  17
TORSDOF 5
ENDMDL
MODEL 9
REMARK VINA RESULT:      -7.6      5.758      9.135
REMARK  5 active torsions:
REMARK  status: ('A' for Active; 'I' for Inactive)
REMARK    1  A    between atoms: S_2  and  C_3 
REMARK    2  A    between atoms: C_3  and  C_4 
REMARK    3  A    between atoms: C_7  and  C_8 
REMARK       I    between atoms: C_8  and  N_9 
REMARK    4  A    between atoms: N_9  and  C_10 
REMARK    5  A    between atoms: C_12  and  C_13 
ROOT
HETATM    1  C   UNL     1       5.359  26.040  52.002  1.00  0.00     0.256 C 
HETATM    2  N   UNL     1       5.473  25.951  50.625  1.00  0.00    -0.323 N 
HETATM    3  O   UNL     1       4.595  26.775  52.616  1.00  0.00    -0.267 OA
HETATM    4  H   UNL     1       6.121  25.277  50.247  1.00  0.00     0.169 HD
ENDROOT
BRANCH   2   5
HETATM    5  C   UNL     1       4.838  26.770  49.662  1.00  0.00     0.035 A 
HETATM    6  C   UNL     1       5.107  28.133  49.497  1.00  0.00     0.042 A 
HETATM    7  C   UNL     1       4.494  28.879  48.476  1.00  0.00    -0.021 A 
HETATM    8  C   UNL     1       3.576  28.238  47.634  1.00  0.00     0.012 A 
HETATM    9  C   UNL     1       3.289  26.883  47.799  1.00  0.00     0.003 A 
HETATM   10  C   UNL     1       3.924  26.152  48.802  1.00  0.00     0.029 A 
BRANCH   7  11
HETATM   11  C   UNL     1       4.848  30.279  48.287  1.00  0.00     0.010 A 
HETATM   12  C   UNL     1       4.630  31.146  47.188  1.00  0.00     0.152 A 
HETATM   13  N   UNL     1       5.092  32.382  47.399  1.00  0.00    -0.187 NA
HETATM   14  N   UNL     1       5.621  32.311  48.629  1.00  0.00    -0.289 N 
HETATM   15  H   UNL     1       6.049  33.145  49.017  1.00  0.00     0.188 HD
HETATM   16  C   UNL     1       5.500  31.078  49.204  1.00  0.00     0.123 A 
ENDBRANCH   7  11
ENDBRANCH   2   5
BRANCH   1  17
HETATM   17  C   UNL     1       6.294  25.182  52.797  1.00  0.00     0.032 A 
HETATM   18  C   UNL     1       6.078  24.838  54.137  1.00  0.00     0.017 A 
HETATM   19  C   UNL     1       6.958  23.968  54.789  1.00  0.00     0.009 A 
HETATM   20  C   UNL     1       8.076  23.443  54.122  1.00  0.00    -0.049 A 
HETATM   21  C   UNL     1       8.314  23.829  52.798  1.00  0.00     0.009 A 
HETATM   22  C   UNL     1       7.432  24.689  52.142  1.00  0.00     0.017 A 
BRANCH  20  23
HETATM   23  C   UNL     1       8.994  22.463  54.808  1.00  0.00     0.112 C 
BRANCH  23  24
HETATM   24  S   UNL     1       8.490  20.727  54.576  1.00  0.00    -0.169 SA
HETATM   25  C   UNL     1       7.987  20.326  56.269  1.00  0.00     0.090 C 
ENDBRANCH  23  24
ENDBRANCH  20  23
ENDBRANCH   1  17
TORSDOF 5
ENDMDL
MODEL 10
REMARK VINA RESULT:      -7.5      2.219      3.126
REMARK  5 active torsions:
REMARK  status: ('A' for Active; 'I' for Inactive)
REMARK    1  A    between atoms: S_2  and  C_3 
REMARK    2  A    between atoms: C_3  and  C_4 
REMARK    3  A    between atoms: C_7  and  C_8 
REMARK       I    between atoms: C_8  and  N_9 
REMARK    4  A    between atoms: N_9  and  C_10 
REMARK    5  A    between atoms: C_12  and  C_13 
ROOT
HETATM    1  C   UNL     1       8.353  29.563  57.553  1.00  0.00     0.256 C 
HETATM    2  N   UNL     1       7.318  28.890  56.927  1.00  0.00    -0.323 N 
HETATM    3  O   UNL     1       9.548  29.438  57.307  1.00  0.00    -0.267 OA
HETATM    4  H   UNL     1       6.374  29.113  57.205  1.00  0.00     0.169 HD
ENDROOT
BRANCH   2   5
HETATM    5  C   UNL     1       7.429  27.841  55.985  1.00  0.00     0.035 A 
HETATM    6  C   UNL     1       7.630  26.500  56.329  1.00  0.00     0.042 A 
HETATM    7  C   UNL     1       7.662  25.492  55.351  1.00  0.00    -0.021 A 
HETATM    8  C   UNL     1       7.518  25.857  54.006  1.00  0.00     0.012 A 
HETATM    9  C   UNL     1       7.332  27.193  53.650  1.00  0.00     0.003 A 
HETATM   10  C   UNL     1       7.279  28.178  54.636  1.00  0.00     0.029 A 
BRANCH   7  11
HETATM   11  C   UNL     1       7.804  24.098  55.748  1.00  0.00     0.010 A 
HETATM   12  C   UNL     1       7.390  22.907  55.102  1.00  0.00     0.152 A 
HETATM   13  N   UNL     1       7.718  21.805  55.781  1.00  0.00    -0.187 NA
HETATM   14  N   UNL     1       8.333  22.282  56.873  1.00  0.00    -0.289 N 
HETATM   15  H   UNL     1       8.676  21.619  57.559  1.00  0.00     0.188 HD
HETATM   16  C   UNL     1       8.413  23.645  56.902  1.00  0.00     0.123 A 
ENDBRANCH   7  11
ENDBRANCH   2   5
BRANCH   1  17
HETATM   17  C   UNL     1       7.962  30.494  58.659  1.00  0.00     0.032 A 
HETATM   18  C   UNL     1       6.909  31.411  58.562  1.00  0.00     0.017 A 
HETATM   19  C   UNL     1       6.555  32.193  59.668  1.00  0.00     0.009 A 
HETATM   20  C   UNL     1       7.256  32.086  60.878  1.00  0.00    -0.049 A 
HETATM   21  C   UNL     1       8.339  31.201  60.955  1.00  0.00     0.009 A 
HETATM   22  C   UNL     1       8.688  30.414  59.856  1.00  0.00     0.017 A 
BRANCH  20  23
HETATM   23  C   UNL     1       6.840  32.888  62.085  1.00  0.00     0.112 C 
BRANCH  23  24
HETATM   24  S   UNL     1       7.920  32.624  63.528  1.00  0.00    -0.169 SA
HETATM   25  C   UNL     1       6.984  33.537  64.782  1.00  0.00     0.090 C 
ENDBRANCH  23  24
ENDBRANCH  20  23
ENDBRANCH   1  17
TORSDOF 5
ENDMDL
