MODEL 1
REMARK VINA RESULT:     -10.3      0.000      0.000
REMARK  8 active torsions:
REMARK  status: ('A' for Active; 'I' for Inactive)
REMARK    1  A    between atoms: C_2  and  O_3 
REMARK    2  A    between atoms: O_3  and  C_4 
REMARK    3  A    between atoms: C_4  and  C_5 
REMARK    4  A    between atoms: C_6  and  C_7 
REMARK    5  A    between atoms: C_7  and  O_8 
REMARK    6  A    between atoms: O_8  and  C_9 
REMARK    7  A    between atoms: C_9  and  C_10 
REMARK       I    between atoms: C_10  and  N_11 
REMARK       I    between atoms: N_11  and  C_12 
REMARK       I    between atoms: C_12  and  N_13 
REMARK    8  A    between atoms: N_13  and  C_14 
ROOT
HETATM    1  C   UNL     1       7.262  28.081  56.058  1.00  0.00     0.282 C 
ENDROOT
BRANCH   1   2
HETATM    2  O   UNL     1       7.584  26.759  55.609  1.00  0.00    -0.307 OA
BRANCH   2   3
HETATM    3  C   UNL     1       6.482  26.006  55.305  1.00  0.00     0.318 C 
HETATM    4  O   UNL     1       5.328  26.410  55.402  1.00  0.00    -0.257 OA
BRANCH   3   5
HETATM    5  C   UNL     1       6.876  24.699  54.841  1.00  0.00     0.160 A 
HETATM    6  C   UNL     1       7.110  24.171  53.576  1.00  0.00     0.018 A 
HETATM    7  C   UNL     1       7.521  22.815  53.784  1.00  0.00     0.009 A 
HETATM    8  C   UNL     1       7.505  22.616  55.157  1.00  0.00     0.087 A 
HETATM    9  C   UNL     1       7.926  21.745  52.963  1.00  0.00     0.015 A 
HETATM   10  O   UNL     1       7.124  23.748  55.795  1.00  0.00    -0.303 OA
HETATM   11  C   UNL     1       7.848  21.420  55.783  1.00  0.00     0.038 A 
HETATM   12  C   UNL     1       8.240  20.369  54.950  1.00  0.00     0.003 A 
HETATM   13  C   UNL     1       8.282  20.527  53.562  1.00  0.00     0.001 A 
BRANCH   6  14
HETATM   14  C   UNL     1       7.041  24.892  52.278  1.00  0.00     0.210 C 
BRANCH  14  15
HETATM   15  O   UNL     1       5.683  25.219  51.979  1.00  0.00    -0.387 OA
BRANCH  15  16
HETATM   16  C   UNL     1       5.552  26.522  51.422  1.00  0.00     0.163 C 
HETATM   17  C   UNL     1       4.877  26.395  50.069  1.00  0.00     0.033 C 
ENDBRANCH  15  16
ENDBRANCH  14  15
ENDBRANCH   6  14
ENDBRANCH   3   5
ENDBRANCH   2   3
ENDBRANCH   1   2
BRANCH   1  18
HETATM   18  C   UNL     1       7.355  28.242  57.583  1.00  0.00     0.249 C 
HETATM   19  N   UNL     1       7.011  29.435  58.174  1.00  0.00    -0.277 N 
HETATM   20  C   UNL     1       6.502  30.564  57.593  1.00  0.00     0.327 C 
HETATM   21  H   UNL     1       7.343  29.503  59.121  1.00  0.00     0.173 HD
HETATM   22  N   UNL     1       6.703  31.746  58.249  1.00  0.00    -0.308 N 
HETATM   23  O   UNL     1       5.926  30.583  56.508  1.00  0.00    -0.247 OA
HETATM   24  H   UNL     1       6.726  32.522  57.597  1.00  0.00     0.170 HD
HETATM   25  O   UNL     1       7.784  27.328  58.296  1.00  0.00    -0.271 OA
BRANCH  22  26
HETATM   26  C   UNL     1       7.105  32.014  59.567  1.00  0.00     0.042 A 
HETATM   27  C   UNL     1       8.442  32.045  60.000  1.00  0.00    -0.035 A 
HETATM   28  C   UNL     1       9.623  31.717  59.126  1.00  0.00     0.050 C 
HETATM   29  C   UNL     1       8.707  32.314  61.358  1.00  0.00     0.015 A 
HETATM   30  C   UNL     1       7.675  32.500  62.285  1.00  0.00    -0.061 A 
HETATM   31  C   UNL     1       7.975  32.716  63.739  1.00  0.00     0.048 C 
HETATM   32  C   UNL     1       6.353  32.397  61.850  1.00  0.00     0.009 A 
HETATM   33  C   UNL     1       6.073  32.148  60.506  1.00  0.00     0.030 A 
ENDBRANCH  22  26
ENDBRANCH   1  18
TORSDOF 8
ENDMDL
MODEL 2
REMARK VINA RESULT:      -9.9      2.204     10.091
REMARK  8 active torsions:
REMARK  status: ('A' for Active; 'I' for Inactive)
REMARK    1  A    between atoms: C_2  and  O_3 
REMARK    2  A    between atoms: O_3  and  C_4 
REMARK    3  A    between atoms: C_4  and  C_5 
REMARK    4  A    between atoms: C_6  and  C_7 
REMARK    5  A    between atoms: C_7  and  O_8 
REMARK    6  A    between atoms: O_8  and  C_9 
REMARK    7  A    between atoms: C_9  and  C_10 
REMARK       I    between atoms: C_10  and  N_11 
REMARK       I    between atoms: N_11  and  C_12 
REMARK       I    between atoms: C_12  and  N_13 
REMARK    8  A    between atoms: N_13  and  C_14 
ROOT
HETATM    1  C   UNL     1       5.997  29.920  56.953  1.00  0.00     0.282 C 
ENDROOT
BRANCH   1   2
HETATM    2  O   UNL     1       6.675  30.362  58.135  1.00  0.00    -0.307 OA
BRANCH   2   3
HETATM    3  C   UNL     1       6.444  31.677  58.432  1.00  0.00     0.318 C 
HETATM    4  O   UNL     1       6.004  32.495  57.630  1.00  0.00    -0.257 OA
BRANCH   3   5
HETATM    5  C   UNL     1       6.770  31.948  59.811  1.00  0.00     0.160 A 
HETATM    6  C   UNL     1       7.934  31.800  60.558  1.00  0.00     0.018 A 
HETATM    7  C   UNL     1       7.627  32.293  61.867  1.00  0.00     0.009 A 
HETATM    8  C   UNL     1       6.302  32.701  61.823  1.00  0.00     0.087 A 
HETATM    9  C   UNL     1       8.333  32.460  63.075  1.00  0.00     0.015 A 
HETATM   10  O   UNL     1       5.786  32.501  60.587  1.00  0.00    -0.303 OA
HETATM   11  C   UNL     1       5.612  33.252  62.900  1.00  0.00     0.038 A 
HETATM   12  C   UNL     1       6.328  33.401  64.090  1.00  0.00     0.003 A 
HETATM   13  C   UNL     1       7.668  33.015  64.178  1.00  0.00     0.001 A 
BRANCH   6  14
HETATM   14  C   UNL     1       9.255  31.320  60.072  1.00  0.00     0.210 C 
BRANCH  14  15
HETATM   15  O   UNL     1       9.766  32.225  59.093  1.00  0.00    -0.387 OA
BRANCH  15  16
HETATM   16  C   UNL     1      10.263  31.548  57.943  1.00  0.00     0.163 C 
HETATM   17  C   UNL     1      10.188  30.055  58.200  1.00  0.00     0.033 C 
ENDBRANCH  15  16
ENDBRANCH  14  15
ENDBRANCH   6  14
ENDBRANCH   3   5
ENDBRANCH   2   3
ENDBRANCH   1   2
BRANCH   1  18
HETATM   18  C   UNL     1       6.884  29.077  56.024  1.00  0.00     0.249 C 
HETATM   19  N   UNL     1       6.415  27.891  55.509  1.00  0.00    -0.277 N 
HETATM   20  C   UNL     1       5.175  27.328  55.645  1.00  0.00     0.327 C 
HETATM   21  H   UNL     1       7.151  27.319  55.131  1.00  0.00     0.173 HD
HETATM   22  N   UNL     1       5.085  25.974  55.487  1.00  0.00    -0.308 N 
HETATM   23  O   UNL     1       4.161  27.955  55.943  1.00  0.00    -0.247 OA
HETATM   24  H   UNL     1       4.312  25.598  56.024  1.00  0.00     0.170 HD
HETATM   25  O   UNL     1       8.043  29.419  55.765  1.00  0.00    -0.271 OA
BRANCH  22  26
HETATM   26  C   UNL     1       5.985  25.047  54.936  1.00  0.00     0.042 A 
HETATM   27  C   UNL     1       5.997  24.656  53.586  1.00  0.00    -0.035 A 
HETATM   28  C   UNL     1       4.995  25.117  52.562  1.00  0.00     0.050 C 
HETATM   29  C   UNL     1       6.949  23.704  53.167  1.00  0.00     0.015 A 
HETATM   30  C   UNL     1       7.840  23.110  54.068  1.00  0.00    -0.061 A 
HETATM   31  C   UNL     1       8.799  22.048  53.616  1.00  0.00     0.048 C 
HETATM   32  C   UNL     1       7.767  23.460  55.417  1.00  0.00     0.009 A 
HETATM   33  C   UNL     1       6.842  24.413  55.846  1.00  0.00     0.030 A 
ENDBRANCH  22  26
ENDBRANCH   1  18
TORSDOF 8
ENDMDL
MODEL 3
REMARK VINA RESULT:      -9.6      3.948      9.152
REMARK  8 active torsions:
REMARK  status: ('A' for Active; 'I' for Inactive)
REMARK    1  A    between atoms: C_2  and  O_3 
REMARK    2  A    between atoms: O_3  and  C_4 
REMARK    3  A    between atoms: C_4  and  C_5 
REMARK    4  A    between atoms: C_6  and  C_7 
REMARK    5  A    between atoms: C_7  and  O_8 
REMARK    6  A    between atoms: O_8  and  C_9 
REMARK    7  A    between atoms: C_9  and  C_10 
REMARK       I    between atoms: C_10  and  N_11 
REMARK       I    between atoms: N_11  and  C_12 
REMARK       I    between atoms: C_12  and  N_13 
REMARK    8  A    between atoms: N_13  and  C_14 
ROOT
HETATM    1  C   UNL     1       5.583  27.970  53.197  1.00  0.00     0.282 C 
ENDROOT
BRANCH   1   2
HETATM    2  O   UNL     1       5.891  26.831  54.009  1.00  0.00    -0.307 OA
BRANCH   2   3
HETATM    3  C   UNL     1       7.225  26.528  54.034  1.00  0.00     0.318 C 
HETATM    4  O   UNL     1       8.119  27.352  53.868  1.00  0.00    -0.257 OA
BRANCH   3   5
HETATM    5  C   UNL     1       7.419  25.124  54.302  1.00  0.00     0.160 A 
HETATM    6  C   UNL     1       7.414  24.371  55.472  1.00  0.00     0.018 A 
HETATM    7  C   UNL     1       7.622  23.014  55.067  1.00  0.00     0.009 A 
HETATM    8  C   UNL     1       7.742  23.038  53.686  1.00  0.00     0.087 A 
HETATM    9  C   UNL     1       7.699  21.766  55.717  1.00  0.00     0.015 A 
HETATM   10  O   UNL     1       7.614  24.305  53.223  1.00  0.00    -0.303 OA
HETATM   11  C   UNL     1       7.950  21.912  52.893  1.00  0.00     0.038 A 
HETATM   12  C   UNL     1       8.031  20.686  53.559  1.00  0.00     0.003 A 
HETATM   13  C   UNL     1       7.905  20.611  54.948  1.00  0.00     0.001 A 
BRANCH   6  14
HETATM   14  C   UNL     1       7.149  24.860  56.851  1.00  0.00     0.210 C 
BRANCH  14  15
HETATM   15  O   UNL     1       8.157  25.799  57.230  1.00  0.00    -0.387 OA
BRANCH  15  16
HETATM   16  C   UNL     1       7.603  27.042  57.649  1.00  0.00     0.163 C 
HETATM   17  C   UNL     1       8.567  28.147  57.261  1.00  0.00     0.033 C 
ENDBRANCH  15  16
ENDBRANCH  14  15
ENDBRANCH   6  14
ENDBRANCH   3   5
ENDBRANCH   2   3
ENDBRANCH   1   2
BRANCH   1  18
HETATM   18  C   UNL     1       4.199  27.887  52.537  1.00  0.00     0.249 C 
HETATM   19  N   UNL     1       4.069  27.378  51.266  1.00  0.00    -0.277 N 
HETATM   20  C   UNL     1       5.030  26.834  50.457  1.00  0.00     0.327 C 
HETATM   21  H   UNL     1       3.179  27.601  50.852  1.00  0.00     0.173 HD
HETATM   22  N   UNL     1       4.798  26.858  49.111  1.00  0.00    -0.308 N 
HETATM   23  O   UNL     1       6.095  26.376  50.864  1.00  0.00    -0.247 OA
HETATM   24  H   UNL     1       5.669  26.881  48.594  1.00  0.00     0.170 HD
HETATM   25  O   UNL     1       3.192  28.319  53.109  1.00  0.00    -0.271 OA
BRANCH  22  26
HETATM   26  C   UNL     1       3.621  27.094  48.381  1.00  0.00     0.042 A 
HETATM   27  C   UNL     1       2.753  26.088  47.925  1.00  0.00    -0.035 A 
HETATM   28  C   UNL     1       3.007  24.613  48.087  1.00  0.00     0.050 C 
HETATM   29  C   UNL     1       1.610  26.463  47.190  1.00  0.00     0.015 A 
HETATM   30  C   UNL     1       1.351  27.800  46.866  1.00  0.00    -0.061 A 
HETATM   31  C   UNL     1       0.167  28.173  46.024  1.00  0.00     0.048 C 
HETATM   32  C   UNL     1       2.261  28.779  47.269  1.00  0.00     0.009 A 
HETATM   33  C   UNL     1       3.389  28.426  48.012  1.00  0.00     0.030 A 
ENDBRANCH  22  26
ENDBRANCH   1  18
TORSDOF 8
ENDMDL
MODEL 4
REMARK VINA RESULT:      -9.6      2.578      9.640
REMARK  8 active torsions:
REMARK  status: ('A' for Active; 'I' for Inactive)
REMARK    1  A    between atoms: C_2  and  O_3 
REMARK    2  A    between atoms: O_3  and  C_4 
REMARK    3  A    between atoms: C_4  and  C_5 
REMARK    4  A    between atoms: C_6  and  C_7 
REMARK    5  A    between atoms: C_7  and  O_8 
REMARK    6  A    between atoms: O_8  and  C_9 
REMARK    7  A    between atoms: C_9  and  C_10 
REMARK       I    between atoms: C_10  and  N_11 
REMARK       I    between atoms: N_11  and  C_12 
REMARK       I    between atoms: C_12  and  N_13 
REMARK    8  A    between atoms: N_13  and  C_14 
ROOT
HETATM    1  C   UNL     1       6.410  27.834  57.305  1.00  0.00     0.282 C 
ENDROOT
BRANCH   1   2
HETATM    2  O   UNL     1       6.750  28.969  56.499  1.00  0.00    -0.307 OA
BRANCH   2   3
HETATM    3  C   UNL     1       7.968  29.510  56.810  1.00  0.00     0.318 C 
HETATM    4  O   UNL     1       8.966  29.403  56.105  1.00  0.00    -0.257 OA
BRANCH   3   5
HETATM    5  C   UNL     1       7.897  30.228  58.058  1.00  0.00     0.160 A 
HETATM    6  C   UNL     1       7.056  31.231  58.531  1.00  0.00     0.018 A 
HETATM    7  C   UNL     1       7.472  31.493  59.875  1.00  0.00     0.009 A 
HETATM    8  C   UNL     1       8.534  30.637  60.123  1.00  0.00     0.087 A 
HETATM    9  C   UNL     1       7.050  32.345  60.915  1.00  0.00     0.015 A 
HETATM   10  O   UNL     1       8.788  29.871  59.035  1.00  0.00    -0.303 OA
HETATM   11  C   UNL     1       9.227  30.570  61.329  1.00  0.00     0.038 A 
HETATM   12  C   UNL     1       8.798  31.429  62.344  1.00  0.00     0.003 A 
HETATM   13  C   UNL     1       7.725  32.300  62.144  1.00  0.00     0.001 A 
BRANCH   6  14
HETATM   14  C   UNL     1       5.900  31.838  57.819  1.00  0.00     0.210 C 
BRANCH  14  15
HETATM   15  O   UNL     1       4.712  31.102  58.114  1.00  0.00    -0.387 OA
BRANCH  15  16
HETATM   16  C   UNL     1       3.833  31.820  58.973  1.00  0.00     0.163 C 
HETATM   17  C   UNL     1       3.998  33.301  58.692  1.00  0.00     0.033 C 
ENDBRANCH  15  16
ENDBRANCH  14  15
ENDBRANCH   6  14
ENDBRANCH   3   5
ENDBRANCH   2   3
ENDBRANCH   1   2
BRANCH   1  18
HETATM   18  C   UNL     1       5.979  26.612  56.480  1.00  0.00     0.249 C 
HETATM   19  N   UNL     1       6.701  25.443  56.546  1.00  0.00    -0.277 N 
HETATM   20  C   UNL     1       7.782  25.147  57.331  1.00  0.00     0.327 C 
HETATM   21  H   UNL     1       6.481  24.813  55.794  1.00  0.00     0.173 HD
HETATM   22  N   UNL     1       8.618  24.160  56.893  1.00  0.00    -0.308 N 
HETATM   23  O   UNL     1       8.066  25.742  58.368  1.00  0.00    -0.247 OA
HETATM   24  H   UNL     1       9.562  24.306  57.233  1.00  0.00     0.170 HD
HETATM   25  O   UNL     1       5.014  26.670  55.709  1.00  0.00    -0.271 OA
BRANCH  22  26
HETATM   26  C   UNL     1       8.447  23.175  55.906  1.00  0.00     0.042 A 
HETATM   27  C   UNL     1       8.256  21.808  56.170  1.00  0.00    -0.035 A 
HETATM   28  C   UNL     1       8.291  21.200  57.547  1.00  0.00     0.050 C 
HETATM   29  C   UNL     1       8.110  20.923  55.083  1.00  0.00     0.015 A 
HETATM   30  C   UNL     1       8.198  21.366  53.758  1.00  0.00    -0.061 A 
HETATM   31  C   UNL     1       8.109  20.399  52.615  1.00  0.00     0.048 C 
HETATM   32  C   UNL     1       8.456  22.716  53.516  1.00  0.00     0.009 A 
HETATM   33  C   UNL     1       8.587  23.608  54.580  1.00  0.00     0.030 A 
ENDBRANCH  22  26
ENDBRANCH   1  18
TORSDOF 8
ENDMDL
MODEL 5
REMARK VINA RESULT:      -9.5      2.180     10.030
REMARK  8 active torsions:
REMARK  status: ('A' for Active; 'I' for Inactive)
REMARK    1  A    between atoms: C_2  and  O_3 
REMARK    2  A    between atoms: O_3  and  C_4 
REMARK    3  A    between atoms: C_4  and  C_5 
REMARK    4  A    between atoms: C_6  and  C_7 
REMARK    5  A    between atoms: C_7  and  O_8 
REMARK    6  A    between atoms: O_8  and  C_9 
REMARK    7  A    between atoms: C_9  and  C_10 
REMARK       I    between atoms: C_10  and  N_11 
REMARK       I    between atoms: N_11  and  C_12 
REMARK       I    between atoms: C_12  and  N_13 
REMARK    8  A    between atoms: N_13  and  C_14 
ROOT
HETATM    1  C   UNL     1       7.494  29.349  58.182  1.00  0.00     0.282 C 
ENDROOT
BRANCH   1   2
HETATM    2  O   UNL     1       8.358  29.746  59.254  1.00  0.00    -0.307 OA
BRANCH   2   3
HETATM    3  C   UNL     1       8.617  31.090  59.271  1.00  0.00     0.318 C 
HETATM    4  O   UNL     1       9.336  31.660  58.456  1.00  0.00    -0.257 OA
BRANCH   3   5
HETATM    5  C   UNL     1       7.916  31.726  60.358  1.00  0.00     0.160 A 
HETATM    6  C   UNL     1       6.625  32.229  60.490  1.00  0.00     0.018 A 
HETATM    7  C   UNL     1       6.520  32.694  61.840  1.00  0.00     0.009 A 
HETATM    8  C   UNL     1       7.750  32.445  62.430  1.00  0.00     0.087 A 
HETATM    9  C   UNL     1       5.511  33.277  62.632  1.00  0.00     0.015 A 
HETATM   10  O   UNL     1       8.589  31.857  61.543  1.00  0.00    -0.303 OA
HETATM   11  C   UNL     1       8.066  32.746  63.752  1.00  0.00     0.038 A 
HETATM   12  C   UNL     1       7.053  33.331  64.518  1.00  0.00     0.003 A 
HETATM   13  C   UNL     1       5.794  33.590  63.970  1.00  0.00     0.001 A 
BRANCH   6  14
HETATM   14  C   UNL     1       5.545  32.201  59.469  1.00  0.00     0.210 C 
BRANCH  14  15
HETATM   15  O   UNL     1       6.031  32.740  58.239  1.00  0.00    -0.387 OA
BRANCH  15  16
HETATM   16  C   UNL     1       5.287  32.276  57.117  1.00  0.00     0.163 C 
HETATM   17  C   UNL     1       4.094  31.492  57.629  1.00  0.00     0.033 C 
ENDBRANCH  15  16
ENDBRANCH  14  15
ENDBRANCH   6  14
ENDBRANCH   3   5
ENDBRANCH   2   3
ENDBRANCH   1   2
BRANCH   1  18
HETATM   18  C   UNL     1       8.191  28.462  57.140  1.00  0.00     0.249 C 
HETATM   19  N   UNL     1       7.459  27.568  56.393  1.00  0.00    -0.277 N 
HETATM   20  C   UNL     1       6.105  27.369  56.379  1.00  0.00     0.327 C 
HETATM   21  H   UNL     1       8.039  26.883  55.937  1.00  0.00     0.173 HD
HETATM   22  N   UNL     1       5.661  26.146  55.963  1.00  0.00    -0.308 N 
HETATM   23  O   UNL     1       5.282  28.198  56.758  1.00  0.00    -0.247 OA
HETATM   24  H   UNL     1       4.771  25.919  56.392  1.00  0.00     0.170 HD
HETATM   25  O   UNL     1       9.417  28.497  56.989  1.00  0.00    -0.271 OA
BRANCH  22  26
HETATM   26  C   UNL     1       6.314  25.110  55.275  1.00  0.00     0.042 A 
HETATM   27  C   UNL     1       6.166  24.850  53.902  1.00  0.00    -0.035 A 
HETATM   28  C   UNL     1       5.223  25.595  52.996  1.00  0.00     0.050 C 
HETATM   29  C   UNL     1       6.873  23.767  53.339  1.00  0.00     0.015 A 
HETATM   30  C   UNL     1       7.672  22.926  54.121  1.00  0.00    -0.061 A 
HETATM   31  C   UNL     1       8.361  21.738  53.517  1.00  0.00     0.048 C 
HETATM   32  C   UNL     1       7.753  23.159  55.495  1.00  0.00     0.009 A 
HETATM   33  C   UNL     1       7.073  24.236  56.065  1.00  0.00     0.030 A 
ENDBRANCH  22  26
ENDBRANCH   1  18
TORSDOF 8
ENDMDL
MODEL 6
REMARK VINA RESULT:      -9.2      2.405     10.497
REMARK  8 active torsions:
REMARK  status: ('A' for Active; 'I' for Inactive)
REMARK    1  A    between atoms: C_2  and  O_3 
REMARK    2  A    between atoms: O_3  and  C_4 
REMARK    3  A    between atoms: C_4  and  C_5 
REMARK    4  A    between atoms: C_6  and  C_7 
REMARK    5  A    between atoms: C_7  and  O_8 
REMARK    6  A    between atoms: O_8  and  C_9 
REMARK    7  A    between atoms: C_9  and  C_10 
REMARK       I    between atoms: C_10  and  N_11 
REMARK       I    between atoms: N_11  and  C_12 
REMARK       I    between atoms: C_12  and  N_13 
REMARK    8  A    between atoms: N_13  and  C_14 
ROOT
HETATM    1  C   UNL     1       5.750  30.033  56.915  1.00  0.00     0.282 C 
ENDROOT
BRANCH   1   2
HETATM    2  O   UNL     1       6.329  30.637  58.078  1.00  0.00    -0.307 OA
BRANCH   2   3
HETATM    3  C   UNL     1       6.014  31.962  58.214  1.00  0.00     0.318 C 
HETATM    4  O   UNL     1       5.600  32.666  57.298  1.00  0.00    -0.257 OA
BRANCH   3   5
HETATM    5  C   UNL     1       6.217  32.392  59.575  1.00  0.00     0.160 A 
HETATM    6  C   UNL     1       5.512  33.246  60.417  1.00  0.00     0.018 A 
HETATM    7  C   UNL     1       6.202  33.223  61.671  1.00  0.00     0.009 A 
HETATM    8  C   UNL     1       7.276  32.362  61.502  1.00  0.00     0.087 A 
HETATM    9  C   UNL     1       6.022  33.818  62.935  1.00  0.00     0.015 A 
HETATM   10  O   UNL     1       7.284  31.856  60.245  1.00  0.00    -0.303 OA
HETATM   11  C   UNL     1       8.204  32.055  62.495  1.00  0.00     0.038 A 
HETATM   12  C   UNL     1       8.010  32.662  63.739  1.00  0.00     0.003 A 
HETATM   13  C   UNL     1       6.935  33.527  63.958  1.00  0.00     0.001 A 
BRANCH   6  14
HETATM   14  C   UNL     1       4.245  33.961  60.109  1.00  0.00     0.210 C 
BRANCH  14  15
HETATM   15  O   UNL     1       3.156  33.322  60.778  1.00  0.00    -0.387 OA
BRANCH  15  16
HETATM   16  C   UNL     1       2.213  34.259  61.287  1.00  0.00     0.163 C 
HETATM   17  C   UNL     1       2.312  34.258  62.801  1.00  0.00     0.033 C 
ENDBRANCH  15  16
ENDBRANCH  14  15
ENDBRANCH   6  14
ENDBRANCH   3   5
ENDBRANCH   2   3
ENDBRANCH   1   2
BRANCH   1  18
HETATM   18  C   UNL     1       6.746  29.179  56.116  1.00  0.00     0.249 C 
HETATM   19  N   UNL     1       6.324  28.031  55.487  1.00  0.00    -0.277 N 
HETATM   20  C   UNL     1       5.057  27.520  55.396  1.00  0.00     0.327 C 
HETATM   21  H   UNL     1       7.090  27.438  55.215  1.00  0.00     0.173 HD
HETATM   22  N   UNL     1       4.943  26.176  55.176  1.00  0.00    -0.308 N 
HETATM   23  O   UNL     1       4.033  28.181  55.546  1.00  0.00    -0.247 OA
HETATM   24  H   UNL     1       4.078  25.818  55.564  1.00  0.00     0.170 HD
HETATM   25  O   UNL     1       7.944  29.478  56.064  1.00  0.00    -0.271 OA
BRANCH  22  26
HETATM   26  C   UNL     1       5.886  25.227  54.748  1.00  0.00     0.042 A 
HETATM   27  C   UNL     1       6.009  24.769  53.425  1.00  0.00    -0.035 A 
HETATM   28  C   UNL     1       5.093  25.173  52.301  1.00  0.00     0.050 C 
HETATM   29  C   UNL     1       6.992  23.802  53.133  1.00  0.00     0.015 A 
HETATM   30  C   UNL     1       7.807  23.258  54.133  1.00  0.00    -0.061 A 
HETATM   31  C   UNL     1       8.800  22.180  53.815  1.00  0.00     0.048 C 
HETATM   32  C   UNL     1       7.624  23.675  55.452  1.00  0.00     0.009 A 
HETATM   33  C   UNL     1       6.667  24.644  55.755  1.00  0.00     0.030 A 
ENDBRANCH  22  26
ENDBRANCH   1  18
TORSDOF 8
ENDMDL
MODEL 7
REMARK VINA RESULT:      -9.2      2.530      9.736
REMARK  8 active torsions:
REMARK  status: ('A' for Active; 'I' for Inactive)
REMARK    1  A    between atoms: C_2  and  O_3 
REMARK    2  A    between atoms: O_3  and  C_4 
REMARK    3  A    between atoms: C_4  and  C_5 
REMARK    4  A    between atoms: C_6  and  C_7 
REMARK    5  A    between atoms: C_7  and  O_8 
REMARK    6  A    between atoms: O_8  and  C_9 
REMARK    7  A    between atoms: C_9  and  C_10 
REMARK       I    between atoms: C_10  and  N_11 
REMARK       I    between atoms: N_11  and  C_12 
REMARK       I    between atoms: C_12  and  N_13 
REMARK    8  A    between atoms: N_13  and  C_14 
ROOT
HETATM    1  C   UNL     1       6.109  27.924  57.435  1.00  0.00     0.282 C 
ENDROOT
BRANCH   1   2
HETATM    2  O   UNL     1       6.906  28.848  56.685  1.00  0.00    -0.307 OA
BRANCH   2   3
HETATM    3  C   UNL     1       6.383  30.113  56.651  1.00  0.00     0.318 C 
HETATM    4  O   UNL     1       5.795  30.586  55.684  1.00  0.00    -0.257 OA
BRANCH   3   5
HETATM    5  C   UNL     1       6.605  30.785  57.907  1.00  0.00     0.160 A 
HETATM    6  C   UNL     1       7.685  30.827  58.784  1.00  0.00     0.018 A 
HETATM    7  C   UNL     1       7.302  31.716  59.838  1.00  0.00     0.009 A 
HETATM    8  C   UNL     1       6.020  32.148  59.531  1.00  0.00     0.087 A 
HETATM    9  C   UNL     1       7.909  32.219  61.006  1.00  0.00     0.015 A 
HETATM   10  O   UNL     1       5.602  31.594  58.367  1.00  0.00    -0.303 OA
HETATM   11  C   UNL     1       5.281  33.036  60.307  1.00  0.00     0.038 A 
HETATM   12  C   UNL     1       5.898  33.517  61.465  1.00  0.00     0.003 A 
HETATM   13  C   UNL     1       7.193  33.120  61.809  1.00  0.00     0.001 A 
BRANCH   6  14
HETATM   14  C   UNL     1       9.004  30.161  58.613  1.00  0.00     0.210 C 
BRANCH  14  15
HETATM   15  O   UNL     1       9.958  31.104  58.121  1.00  0.00    -0.387 OA
BRANCH  15  16
HETATM   16  C   UNL     1      10.984  30.480  57.356  1.00  0.00     0.163 C 
HETATM   17  C   UNL     1      10.334  29.746  56.199  1.00  0.00     0.033 C 
ENDBRANCH  15  16
ENDBRANCH  14  15
ENDBRANCH   6  14
ENDBRANCH   3   5
ENDBRANCH   2   3
ENDBRANCH   1   2
BRANCH   1  18
HETATM   18  C   UNL     1       5.707  26.679  56.631  1.00  0.00     0.249 C 
HETATM   19  N   UNL     1       6.494  25.551  56.664  1.00  0.00    -0.277 N 
HETATM   20  C   UNL     1       7.625  25.317  57.398  1.00  0.00     0.327 C 
HETATM   21  H   UNL     1       6.274  24.908  55.923  1.00  0.00     0.173 HD
HETATM   22  N   UNL     1       8.492  24.375  56.921  1.00  0.00    -0.308 N 
HETATM   23  O   UNL     1       7.924  25.929  58.420  1.00  0.00    -0.247 OA
HETATM   24  H   UNL     1       9.441  24.574  57.217  1.00  0.00     0.170 HD
HETATM   25  O   UNL     1       4.706  26.682  55.907  1.00  0.00    -0.271 OA
BRANCH  22  26
HETATM   26  C   UNL     1       8.329  23.380  55.943  1.00  0.00     0.042 A 
HETATM   27  C   UNL     1       8.218  22.006  56.217  1.00  0.00    -0.035 A 
HETATM   28  C   UNL     1       8.341  21.404  57.592  1.00  0.00     0.050 C 
HETATM   29  C   UNL     1       8.070  21.111  55.138  1.00  0.00     0.015 A 
HETATM   30  C   UNL     1       8.081  21.554  53.810  1.00  0.00    -0.061 A 
HETATM   31  C   UNL     1       7.992  20.579  52.673  1.00  0.00     0.048 C 
HETATM   32  C   UNL     1       8.260  22.914  53.555  1.00  0.00     0.009 A 
HETATM   33  C   UNL     1       8.392  23.815  54.612  1.00  0.00     0.030 A 
ENDBRANCH  22  26
ENDBRANCH   1  18
TORSDOF 8
ENDMDL
MODEL 8
REMARK VINA RESULT:      -9.0      2.437     10.344
REMARK  8 active torsions:
REMARK  status: ('A' for Active; 'I' for Inactive)
REMARK    1  A    between atoms: C_2  and  O_3 
REMARK    2  A    between atoms: O_3  and  C_4 
REMARK    3  A    between atoms: C_4  and  C_5 
REMARK    4  A    between atoms: C_6  and  C_7 
REMARK    5  A    between atoms: C_7  and  O_8 
REMARK    6  A    between atoms: O_8  and  C_9 
REMARK    7  A    between atoms: C_9  and  C_10 
REMARK       I    between atoms: C_10  and  N_11 
REMARK       I    between atoms: N_11  and  C_12 
REMARK       I    between atoms: C_12  and  N_13 
REMARK    8  A    between atoms: N_13  and  C_14 
ROOT
HETATM    1  C   UNL     1       7.418  30.231  57.916  1.00  0.00     0.282 C 
ENDROOT
BRANCH   1   2
HETATM    2  O   UNL     1       7.779  30.401  59.292  1.00  0.00    -0.307 OA
BRANCH   2   3
HETATM    3  C   UNL     1       8.239  31.657  59.581  1.00  0.00     0.318 C 
HETATM    4  O   UNL     1       9.104  32.237  58.931  1.00  0.00    -0.257 OA
BRANCH   3   5
HETATM    5  C   UNL     1       7.553  32.195  60.729  1.00  0.00     0.160 A 
HETATM    6  C   UNL     1       6.243  32.610  60.945  1.00  0.00     0.018 A 
HETATM    7  C   UNL     1       6.174  33.001  62.320  1.00  0.00     0.009 A 
HETATM    8  C   UNL     1       7.444  32.801  62.840  1.00  0.00     0.087 A 
HETATM    9  C   UNL     1       5.171  33.481  63.185  1.00  0.00     0.015 A 
HETATM   10  O   UNL     1       8.273  32.311  61.888  1.00  0.00    -0.303 OA
HETATM   11  C   UNL     1       7.803  33.057  64.161  1.00  0.00     0.038 A 
HETATM   12  C   UNL     1       6.795  33.539  65.000  1.00  0.00     0.003 A 
HETATM   13  C   UNL     1       5.498  33.746  64.523  1.00  0.00     0.001 A 
BRANCH   6  14
HETATM   14  C   UNL     1       5.118  32.564  59.973  1.00  0.00     0.210 C 
BRANCH  14  15
HETATM   15  O   UNL     1       4.669  33.891  59.694  1.00  0.00    -0.387 OA
BRANCH  15  16
HETATM   16  C   UNL     1       4.567  34.142  58.296  1.00  0.00     0.163 C 
HETATM   17  C   UNL     1       3.983  35.529  58.104  1.00  0.00     0.033 C 
ENDBRANCH  15  16
ENDBRANCH  14  15
ENDBRANCH   6  14
ENDBRANCH   3   5
ENDBRANCH   2   3
ENDBRANCH   1   2
BRANCH   1  18
HETATM   18  C   UNL     1       8.170  29.081  57.231  1.00  0.00     0.249 C 
HETATM   19  N   UNL     1       7.599  28.418  56.169  1.00  0.00    -0.277 N 
HETATM   20  C   UNL     1       6.413  28.674  55.536  1.00  0.00     0.327 C 
HETATM   21  H   UNL     1       8.059  27.545  55.969  1.00  0.00     0.173 HD
HETATM   22  N   UNL     1       5.825  27.635  54.872  1.00  0.00    -0.308 N 
HETATM   23  O   UNL     1       5.832  29.756  55.569  1.00  0.00    -0.247 OA
HETATM   24  H   UNL     1       4.818  27.750  54.840  1.00  0.00     0.170 HD
HETATM   25  O   UNL     1       9.269  28.699  57.647  1.00  0.00    -0.271 OA
BRANCH  22  26
HETATM   26  C   UNL     1       6.334  26.388  54.472  1.00  0.00     0.042 A 
HETATM   27  C   UNL     1       6.213  25.203  55.218  1.00  0.00    -0.035 A 
HETATM   28  C   UNL     1       5.590  25.124  56.586  1.00  0.00     0.050 C 
HETATM   29  C   UNL     1       6.782  24.020  54.705  1.00  0.00     0.015 A 
HETATM   30  C   UNL     1       7.502  24.012  53.504  1.00  0.00    -0.061 A 
HETATM   31  C   UNL     1       8.160  22.759  53.009  1.00  0.00     0.048 C 
HETATM   32  C   UNL     1       7.670  25.212  52.812  1.00  0.00     0.009 A 
HETATM   33  C   UNL     1       7.098  26.389  53.297  1.00  0.00     0.030 A 
ENDBRANCH  22  26
ENDBRANCH   1  18
TORSDOF 8
ENDMDL
MODEL 9
REMARK VINA RESULT:      -8.9      2.369      4.110
REMARK  8 active torsions:
REMARK  status: ('A' for Active; 'I' for Inactive)
REMARK    1  A    between atoms: C_2  and  O_3 
REMARK    2  A    between atoms: O_3  and  C_4 
REMARK    3  A    between atoms: C_4  and  C_5 
REMARK    4  A    between atoms: C_6  and  C_7 
REMARK    5  A    between atoms: C_7  and  O_8 
REMARK    6  A    between atoms: O_8  and  C_9 
REMARK    7  A    between atoms: C_9  and  C_10 
REMARK       I    between atoms: C_10  and  N_11 
REMARK       I    between atoms: N_11  and  C_12 
REMARK       I    between atoms: C_12  and  N_13 
REMARK    8  A    between atoms: N_13  and  C_14 
ROOT
HETATM    1  C   UNL     1       8.768  30.424  59.362  1.00  0.00     0.282 C 
ENDROOT
BRANCH   1   2
HETATM    2  O   UNL     1       8.176  29.286  58.724  1.00  0.00    -0.307 OA
BRANCH   2   3
HETATM    3  C   UNL     1       8.659  29.059  57.464  1.00  0.00     0.318 C 
HETATM    4  O   UNL     1       9.354  29.856  56.842  1.00  0.00    -0.257 OA
BRANCH   3   5
HETATM    5  C   UNL     1       8.253  27.758  56.994  1.00  0.00     0.160 A 
HETATM    6  C   UNL     1       7.371  27.339  56.003  1.00  0.00     0.018 A 
HETATM    7  C   UNL     1       7.442  25.909  55.992  1.00  0.00     0.009 A 
HETATM    8  C   UNL     1       8.356  25.561  56.975  1.00  0.00     0.087 A 
HETATM    9  C   UNL     1       6.849  24.874  55.241  1.00  0.00     0.015 A 
HETATM   10  O   UNL     1       8.850  26.671  57.575  1.00  0.00    -0.303 OA
HETATM   11  C   UNL     1       8.720  24.254  57.286  1.00  0.00     0.038 A 
HETATM   12  C   UNL     1       8.115  23.242  56.535  1.00  0.00     0.003 A 
HETATM   13  C   UNL     1       7.197  23.545  55.526  1.00  0.00     0.001 A 
BRANCH   6  14
HETATM   14  C   UNL     1       6.588  28.201  55.078  1.00  0.00     0.210 C 
BRANCH  14  15
HETATM   15  O   UNL     1       7.169  28.160  53.774  1.00  0.00    -0.387 OA
BRANCH  15  16
HETATM   16  C   UNL     1       6.189  28.262  52.746  1.00  0.00     0.163 C 
HETATM   17  C   UNL     1       5.735  26.861  52.381  1.00  0.00     0.033 C 
ENDBRANCH  15  16
ENDBRANCH  14  15
ENDBRANCH   6  14
ENDBRANCH   3   5
ENDBRANCH   2   3
ENDBRANCH   1   2
BRANCH   1  18
HETATM   18  C   UNL     1       8.572  30.435  60.886  1.00  0.00     0.249 C 
HETATM   19  N   UNL     1       7.563  31.182  61.447  1.00  0.00    -0.277 N 
HETATM   20  C   UNL     1       6.595  31.921  60.824  1.00  0.00     0.327 C 
HETATM   21  H   UNL     1       7.685  31.310  62.438  1.00  0.00     0.173 HD
HETATM   22  N   UNL     1       6.035  32.943  61.538  1.00  0.00    -0.308 N 
HETATM   23  O   UNL     1       6.239  31.752  59.660  1.00  0.00    -0.247 OA
HETATM   24  H   UNL     1       5.709  33.679  60.922  1.00  0.00     0.170 HD
HETATM   25  O   UNL     1       9.340  29.819  61.632  1.00  0.00    -0.271 OA
BRANCH  22  26
HETATM   26  C   UNL     1       6.062  33.232  62.912  1.00  0.00     0.042 A 
HETATM   27  C   UNL     1       4.929  33.546  63.681  1.00  0.00    -0.035 A 
HETATM   28  C   UNL     1       3.539  33.694  63.120  1.00  0.00     0.050 C 
HETATM   29  C   UNL     1       5.099  33.829  65.052  1.00  0.00     0.015 A 
HETATM   30  C   UNL     1       6.366  33.853  65.645  1.00  0.00    -0.061 A 
HETATM   31  C   UNL     1       6.534  34.225  67.089  1.00  0.00     0.048 C 
HETATM   32  C   UNL     1       7.487  33.606  64.850  1.00  0.00     0.009 A 
HETATM   33  C   UNL     1       7.334  33.307  63.495  1.00  0.00     0.030 A 
ENDBRANCH  22  26
ENDBRANCH   1  18
TORSDOF 8
ENDMDL
MODEL 10
REMARK VINA RESULT:      -8.9      2.263     10.501
REMARK  8 active torsions:
REMARK  status: ('A' for Active; 'I' for Inactive)
REMARK    1  A    between atoms: C_2  and  O_3 
REMARK    2  A    between atoms: O_3  and  C_4 
REMARK    3  A    between atoms: C_4  and  C_5 
REMARK    4  A    between atoms: C_6  and  C_7 
REMARK    5  A    between atoms: C_7  and  O_8 
REMARK    6  A    between atoms: O_8  and  C_9 
REMARK    7  A    between atoms: C_9  and  C_10 
REMARK       I    between atoms: C_10  and  N_11 
REMARK       I    between atoms: N_11  and  C_12 
REMARK       I    between atoms: C_12  and  N_13 
REMARK    8  A    between atoms: N_13  and  C_14 
ROOT
HETATM    1  C   UNL     1       7.345  28.796  57.758  1.00  0.00     0.282 C 
ENDROOT
BRANCH   1   2
HETATM    2  O   UNL     1       8.047  29.358  58.874  1.00  0.00    -0.307 OA
BRANCH   2   3
HETATM    3  C   UNL     1       8.346  30.684  58.714  1.00  0.00     0.318 C 
HETATM    4  O   UNL     1       9.382  31.096  58.201  1.00  0.00    -0.257 OA
BRANCH   3   5
HETATM    5  C   UNL     1       7.272  31.507  59.211  1.00  0.00     0.160 A 
HETATM    6  C   UNL     1       7.098  32.236  60.383  1.00  0.00     0.018 A 
HETATM    7  C   UNL     1       5.828  32.884  60.260  1.00  0.00     0.009 A 
HETATM    8  C   UNL     1       5.320  32.502  59.027  1.00  0.00     0.087 A 
HETATM    9  C   UNL     1       5.064  33.769  61.046  1.00  0.00     0.015 A 
HETATM   10  O   UNL     1       6.189  31.679  58.392  1.00  0.00    -0.303 OA
HETATM   11  C   UNL     1       4.094  32.921  58.516  1.00  0.00     0.038 A 
HETATM   12  C   UNL     1       3.349  33.793  59.315  1.00  0.00     0.003 A 
HETATM   13  C   UNL     1       3.826  34.214  60.559  1.00  0.00     0.001 A 
BRANCH   6  14
HETATM   14  C   UNL     1       8.074  32.390  61.495  1.00  0.00     0.210 C 
BRANCH  14  15
HETATM   15  O   UNL     1       7.477  31.964  62.721  1.00  0.00    -0.387 OA
BRANCH  15  16
HETATM   16  C   UNL     1       7.941  32.719  63.835  1.00  0.00     0.163 C 
HETATM   17  C   UNL     1       6.827  33.651  64.275  1.00  0.00     0.033 C 
ENDBRANCH  15  16
ENDBRANCH  14  15
ENDBRANCH   6  14
ENDBRANCH   3   5
ENDBRANCH   2   3
ENDBRANCH   1   2
BRANCH   1  18
HETATM   18  C   UNL     1       8.217  27.870  56.898  1.00  0.00     0.249 C 
HETATM   19  N   UNL     1       7.634  27.016  55.991  1.00  0.00    -0.277 N 
HETATM   20  C   UNL     1       6.312  26.892  55.658  1.00  0.00     0.327 C 
HETATM   21  H   UNL     1       8.266  26.300  55.676  1.00  0.00     0.173 HD
HETATM   22  N   UNL     1       5.911  25.695  55.137  1.00  0.00    -0.308 N 
HETATM   23  O   UNL     1       5.469  27.766  55.844  1.00  0.00    -0.247 OA
HETATM   24  H   UNL     1       4.935  25.518  55.344  1.00  0.00     0.170 HD
HETATM   25  O   UNL     1       9.445  27.837  57.038  1.00  0.00    -0.271 OA
BRANCH  22  26
HETATM   26  C   UNL     1       6.651  24.623  54.609  1.00  0.00     0.042 A 
HETATM   27  C   UNL     1       7.017  24.498  53.258  1.00  0.00    -0.035 A 
HETATM   28  C   UNL     1       6.597  25.456  52.175  1.00  0.00     0.050 C 
HETATM   29  C   UNL     1       7.751  23.363  52.859  1.00  0.00     0.015 A 
HETATM   30  C   UNL     1       8.076  22.344  53.762  1.00  0.00    -0.061 A 
HETATM   31  C   UNL     1       8.796  21.110  53.303  1.00  0.00     0.048 C 
HETATM   32  C   UNL     1       7.644  22.453  55.084  1.00  0.00     0.009 A 
HETATM   33  C   UNL     1       6.932  23.578  55.500  1.00  0.00     0.030 A 
ENDBRANCH  22  26
ENDBRANCH   1  18
TORSDOF 8
ENDMDL
