MODEL 1
REMARK VINA RESULT:     -10.0      0.000      0.000
REMARK  6 active torsions:
REMARK  status: ('A' for Active; 'I' for Inactive)
REMARK    1  A    between atoms: C_5  and  C_6 
REMARK    2  A    between atoms: C_11  and  C_12 
REMARK       I    between atoms: C_12  and  N_13 
REMARK    3  A    between atoms: N_13  and  C_14 
REMARK    4  A    between atoms: C_16  and  C_17 
REMARK    5  A    between atoms: C_17  and  O_18 
REMARK    6  A    between atoms: C_25  and  C_26 
ROOT
HETATM    1  C   UNL     1       5.148  26.231  54.367  1.00  0.00     0.118 C 
HETATM    2  N   UNL     1       4.873  26.757  55.698  1.00  0.00    -0.366 N 
HETATM    3  C   UNL     1       5.445  27.882  56.172  1.00  0.00     0.123 A 
HETATM    4  N   UNL     1       6.303  28.630  55.417  1.00  0.00    -0.240 N 
HETATM    5  N   UNL     1       6.733  29.752  56.027  1.00  0.00    -0.165 NA
HETATM    6  C   UNL     1       6.155  29.687  57.249  1.00  0.00     0.148 A 
HETATM    7  C   UNL     1       5.345  28.526  57.375  1.00  0.00     0.089 A 
HETATM    8  C   UNL     1       6.684  28.304  54.056  1.00  0.00     0.221 C 
HETATM    9  C   UNL     1       5.662  27.338  53.428  1.00  0.00     0.066 C 
HETATM   10  H   UNL     1       4.328  26.147  56.305  1.00  0.00     0.161 HD
ENDROOT
BRANCH   6  11
HETATM   11  C   UNL     1       6.367  30.719  58.281  1.00  0.00     0.276 C 
HETATM   12  N   UNL     1       7.342  30.355  59.188  1.00  0.00    -0.322 N 
HETATM   13  H   UNL     1       7.736  29.433  59.013  1.00  0.00     0.169 HD
HETATM   14  O   UNL     1       5.710  31.755  58.285  1.00  0.00    -0.266 OA
BRANCH  12  15
HETATM   15  C   UNL     1       7.817  31.079  60.295  1.00  0.00     0.035 A 
HETATM   16  C   UNL     1       6.990  31.588  61.300  1.00  0.00     0.039 A 
HETATM   17  C   UNL     1       7.521  32.310  62.386  1.00  0.00    -0.028 A 
HETATM   18  C   UNL     1       8.907  32.503  62.454  1.00  0.00     0.010 A 
HETATM   19  C   UNL     1       9.739  32.002  61.453  1.00  0.00     0.003 A 
HETATM   20  C   UNL     1       9.196  31.297  60.377  1.00  0.00     0.029 A 
BRANCH  17  21
HETATM   21  C   UNL     1       6.585  32.830  63.457  1.00  0.00     0.147 C 
HETATM   22  C   UNL     1       7.353  33.444  64.622  1.00  0.00     0.044 C 
BRANCH  21  23
HETATM   23  O   UNL     1       5.699  33.810  62.919  1.00  0.00    -0.391 OA
HETATM   24  H   UNL     1       4.803  33.560  63.196  1.00  0.00     0.210 HD
ENDBRANCH  21  23
ENDBRANCH  17  21
ENDBRANCH  12  15
ENDBRANCH   6  11
BRANCH   8  25
HETATM   25  C   UNL     1       8.111  27.809  54.015  1.00  0.00     0.409 C 
HETATM   26  F   UNL     1       9.029  28.788  53.933  1.00  0.00    -0.169 F 
HETATM   27  F   UNL     1       8.388  27.090  55.133  1.00  0.00    -0.169 F 
HETATM   28  F   UNL     1       8.320  26.972  52.970  1.00  0.00    -0.169 F 
ENDBRANCH   8  25
BRANCH   1  29
HETATM   29  C   UNL     1       5.990  24.969  54.397  1.00  0.00    -0.035 A 
HETATM   30  C   UNL     1       6.406  24.457  55.638  1.00  0.00     0.010 A 
HETATM   31  C   UNL     1       7.207  23.314  55.717  1.00  0.00     0.007 A 
HETATM   32  C   UNL     1       7.619  22.656  54.555  1.00  0.00    -0.062 A 
HETATM   33  C   UNL     1       8.454  21.413  54.628  1.00  0.00     0.048 C 
HETATM   34  C   UNL     1       7.199  23.148  53.317  1.00  0.00     0.007 A 
HETATM   35  C   UNL     1       6.403  24.296  53.239  1.00  0.00     0.010 A 
ENDBRANCH   1  29
TORSDOF 6
ENDMDL
MODEL 2
REMARK VINA RESULT:      -9.8      7.057     10.189
REMARK  6 active torsions:
REMARK  status: ('A' for Active; 'I' for Inactive)
REMARK    1  A    between atoms: C_5  and  C_6 
REMARK    2  A    between atoms: C_11  and  C_12 
REMARK       I    between atoms: C_12  and  N_13 
REMARK    3  A    between atoms: N_13  and  C_14 
REMARK    4  A    between atoms: C_16  and  C_17 
REMARK    5  A    between atoms: C_17  and  O_18 
REMARK    6  A    between atoms: C_25  and  C_26 
ROOT
HETATM    1  C   UNL     1       4.572  29.323  48.228  1.00  0.00     0.118 C 
HETATM    2  N   UNL     1       4.812  29.160  49.656  1.00  0.00    -0.366 N 
HETATM    3  C   UNL     1       4.920  27.952  50.246  1.00  0.00     0.123 A 
HETATM    4  N   UNL     1       4.844  26.790  49.532  1.00  0.00    -0.240 N 
HETATM    5  N   UNL     1       5.033  25.680  50.272  1.00  0.00    -0.165 NA
HETATM    6  C   UNL     1       5.188  26.161  51.527  1.00  0.00     0.148 A 
HETATM    7  C   UNL     1       5.119  27.581  51.547  1.00  0.00     0.089 A 
HETATM    8  C   UNL     1       4.644  26.730  48.097  1.00  0.00     0.221 C 
HETATM    9  C   UNL     1       5.014  28.074  47.444  1.00  0.00     0.066 C 
HETATM   10  H   UNL     1       4.754  30.013  50.210  1.00  0.00     0.161 HD
ENDROOT
BRANCH   6  11
HETATM   11  C   UNL     1       5.406  25.282  52.690  1.00  0.00     0.276 C 
HETATM   12  N   UNL     1       6.737  24.949  52.847  1.00  0.00    -0.322 N 
HETATM   13  H   UNL     1       7.342  25.341  52.128  1.00  0.00     0.169 HD
HETATM   14  O   UNL     1       4.470  24.914  53.391  1.00  0.00    -0.266 OA
BRANCH  12  15
HETATM   15  C   UNL     1       7.323  24.143  53.838  1.00  0.00     0.035 A 
HETATM   16  C   UNL     1       7.502  22.763  53.709  1.00  0.00     0.039 A 
HETATM   17  C   UNL     1       8.093  22.003  54.737  1.00  0.00    -0.028 A 
HETATM   18  C   UNL     1       8.516  22.659  55.900  1.00  0.00     0.010 A 
HETATM   19  C   UNL     1       8.337  24.035  56.040  1.00  0.00     0.003 A 
HETATM   20  C   UNL     1       7.741  24.772  55.015  1.00  0.00     0.029 A 
BRANCH  17  21
HETATM   21  C   UNL     1       8.277  20.513  54.543  1.00  0.00     0.147 C 
HETATM   22  C   UNL     1       8.649  20.177  53.104  1.00  0.00     0.044 C 
BRANCH  21  23
HETATM   23  O   UNL     1       9.293  20.014  55.412  1.00  0.00    -0.391 OA
HETATM   24  H   UNL     1       9.922  19.524  54.857  1.00  0.00     0.210 HD
ENDBRANCH  21  23
ENDBRANCH  17  21
ENDBRANCH  12  15
ENDBRANCH   6  11
BRANCH   8  25
HETATM   25  C   UNL     1       3.246  26.252  47.782  1.00  0.00     0.409 C 
HETATM   26  F   UNL     1       2.313  26.669  48.657  1.00  0.00    -0.169 F 
HETATM   27  F   UNL     1       2.869  26.689  46.553  1.00  0.00    -0.169 F 
HETATM   28  F   UNL     1       3.178  24.900  47.735  1.00  0.00    -0.169 F 
ENDBRANCH   8  25
BRANCH   1  29
HETATM   29  C   UNL     1       3.169  29.814  47.921  1.00  0.00    -0.035 A 
HETATM   30  C   UNL     1       2.283  30.053  48.986  1.00  0.00     0.010 A 
HETATM   31  C   UNL     1       0.971  30.477  48.754  1.00  0.00     0.007 A 
HETATM   32  C   UNL     1       0.509  30.667  47.448  1.00  0.00    -0.062 A 
HETATM   33  C   UNL     1      -0.887  31.149  47.187  1.00  0.00     0.048 C 
HETATM   34  C   UNL     1       1.386  30.446  46.384  1.00  0.00     0.007 A 
HETATM   35  C   UNL     1       2.696  30.014  46.617  1.00  0.00     0.010 A 
ENDBRANCH   1  29
TORSDOF 6
ENDMDL
MODEL 3
REMARK VINA RESULT:      -9.6      1.507      1.956
REMARK  6 active torsions:
REMARK  status: ('A' for Active; 'I' for Inactive)
REMARK    1  A    between atoms: C_5  and  C_6 
REMARK    2  A    between atoms: C_11  and  C_12 
REMARK       I    between atoms: C_12  and  N_13 
REMARK    3  A    between atoms: N_13  and  C_14 
REMARK    4  A    between atoms: C_16  and  C_17 
REMARK    5  A    between atoms: C_17  and  O_18 
REMARK    6  A    between atoms: C_25  and  C_26 
ROOT
HETATM    1  C   UNL     1       5.067  26.637  54.655  1.00  0.00     0.118 C 
HETATM    2  N   UNL     1       4.780  27.229  55.955  1.00  0.00    -0.366 N 
HETATM    3  C   UNL     1       5.390  28.347  56.400  1.00  0.00     0.123 A 
HETATM    4  N   UNL     1       6.302  29.024  55.640  1.00  0.00    -0.240 N 
HETATM    5  N   UNL     1       6.766  30.150  56.216  1.00  0.00    -0.165 NA
HETATM    6  C   UNL     1       6.153  30.161  57.423  1.00  0.00     0.148 A 
HETATM    7  C   UNL     1       5.288  29.044  57.573  1.00  0.00     0.089 A 
HETATM    8  C   UNL     1       6.703  28.624  54.305  1.00  0.00     0.221 C 
HETATM    9  C   UNL     1       5.656  27.679  53.687  1.00  0.00     0.066 C 
HETATM   10  H   UNL     1       4.193  26.670  56.571  1.00  0.00     0.161 HD
ENDROOT
BRANCH   6  11
HETATM   11  C   UNL     1       6.384  31.225  58.418  1.00  0.00     0.276 C 
HETATM   12  N   UNL     1       5.264  31.465  59.191  1.00  0.00    -0.322 N 
HETATM   13  H   UNL     1       4.464  30.891  58.935  1.00  0.00     0.169 HD
HETATM   14  O   UNL     1       7.463  31.801  58.491  1.00  0.00    -0.266 OA
BRANCH  12  15
HETATM   15  C   UNL     1       5.109  32.392  60.235  1.00  0.00     0.035 A 
HETATM   16  C   UNL     1       5.485  32.140  61.557  1.00  0.00     0.039 A 
HETATM   17  C   UNL     1       5.303  33.106  62.565  1.00  0.00    -0.028 A 
HETATM   18  C   UNL     1       4.746  34.344  62.219  1.00  0.00     0.010 A 
HETATM   19  C   UNL     1       4.363  34.602  60.903  1.00  0.00     0.003 A 
HETATM   20  C   UNL     1       4.541  33.630  59.917  1.00  0.00     0.029 A 
BRANCH  17  21
HETATM   21  C   UNL     1       5.739  32.790  63.981  1.00  0.00     0.147 C 
HETATM   22  C   UNL     1       6.980  33.582  64.375  1.00  0.00     0.044 C 
BRANCH  21  23
HETATM   23  O   UNL     1       4.692  33.078  64.907  1.00  0.00    -0.391 OA
HETATM   24  H   UNL     1       4.329  33.944  64.659  1.00  0.00     0.210 HD
ENDBRANCH  21  23
ENDBRANCH  17  21
ENDBRANCH  12  15
ENDBRANCH   6  11
BRANCH   8  25
HETATM   25  C   UNL     1       8.107  28.065  54.325  1.00  0.00     0.409 C 
HETATM   26  F   UNL     1       9.069  28.994  54.185  1.00  0.00    -0.169 F 
HETATM   27  F   UNL     1       8.336  27.421  55.498  1.00  0.00    -0.169 F 
HETATM   28  F   UNL     1       8.292  27.144  53.349  1.00  0.00    -0.169 F 
ENDBRANCH   8  25
BRANCH   1  29
HETATM   29  C   UNL     1       5.850  25.341  54.760  1.00  0.00    -0.035 A 
HETATM   30  C   UNL     1       6.282  24.907  56.025  1.00  0.00     0.010 A 
HETATM   31  C   UNL     1       7.031  23.735  56.171  1.00  0.00     0.007 A 
HETATM   32  C   UNL     1       7.373  22.970  55.053  1.00  0.00    -0.062 A 
HETATM   33  C   UNL     1       8.151  21.696  55.199  1.00  0.00     0.048 C 
HETATM   34  C   UNL     1       6.935  23.384  53.792  1.00  0.00     0.007 A 
HETATM   35  C   UNL     1       6.192  24.561  53.647  1.00  0.00     0.010 A 
ENDBRANCH   1  29
TORSDOF 6
ENDMDL
MODEL 4
REMARK VINA RESULT:      -9.4      6.309      9.714
REMARK  6 active torsions:
REMARK  status: ('A' for Active; 'I' for Inactive)
REMARK    1  A    between atoms: C_5  and  C_6 
REMARK    2  A    between atoms: C_11  and  C_12 
REMARK       I    between atoms: C_12  and  N_13 
REMARK    3  A    between atoms: N_13  and  C_14 
REMARK    4  A    between atoms: C_16  and  C_17 
REMARK    5  A    between atoms: C_17  and  O_18 
REMARK    6  A    between atoms: C_25  and  C_26 
ROOT
HETATM    1  C   UNL     1       4.429  29.495  48.129  1.00  0.00     0.118 C 
HETATM    2  N   UNL     1       4.720  29.372  49.552  1.00  0.00    -0.366 N 
HETATM    3  C   UNL     1       4.930  28.184  50.155  1.00  0.00     0.123 A 
HETATM    4  N   UNL     1       4.917  27.009  49.460  1.00  0.00    -0.240 N 
HETATM    5  N   UNL     1       5.205  25.926  50.210  1.00  0.00    -0.165 NA
HETATM    6  C   UNL     1       5.360  26.438  51.453  1.00  0.00     0.148 A 
HETATM    7  C   UNL     1       5.191  27.849  51.455  1.00  0.00     0.089 A 
HETATM    8  C   UNL     1       4.682  26.911  48.032  1.00  0.00     0.221 C 
HETATM    9  C   UNL     1       4.936  28.268  47.350  1.00  0.00     0.066 C 
HETATM   10  H   UNL     1       4.617  30.228  50.095  1.00  0.00     0.161 HD
ENDROOT
BRANCH   6  11
HETATM   11  C   UNL     1       5.673  25.595  52.622  1.00  0.00     0.276 C 
HETATM   12  N   UNL     1       6.896  24.965  52.496  1.00  0.00    -0.322 N 
HETATM   13  H   UNL     1       7.367  25.165  51.616  1.00  0.00     0.169 HD
HETATM   14  O   UNL     1       4.889  25.496  53.560  1.00  0.00    -0.266 OA
BRANCH  12  15
HETATM   15  C   UNL     1       7.527  24.098  53.404  1.00  0.00     0.035 A 
HETATM   16  C   UNL     1       7.868  24.458  54.711  1.00  0.00     0.039 A 
HETATM   17  C   UNL     1       8.502  23.548  55.577  1.00  0.00    -0.028 A 
HETATM   18  C   UNL     1       8.779  22.256  55.111  1.00  0.00     0.010 A 
HETATM   19  C   UNL     1       8.447  21.889  53.807  1.00  0.00     0.003 A 
HETATM   20  C   UNL     1       7.827  22.807  52.958  1.00  0.00     0.029 A 
BRANCH  17  21
HETATM   21  C   UNL     1       8.839  23.981  56.988  1.00  0.00     0.147 C 
HETATM   22  C   UNL     1       8.222  25.335  57.321  1.00  0.00     0.044 C 
BRANCH  21  23
HETATM   23  O   UNL     1       8.380  23.017  57.935  1.00  0.00    -0.391 OA
HETATM   24  H   UNL     1       7.521  22.698  57.615  1.00  0.00     0.210 HD
ENDBRANCH  21  23
ENDBRANCH  17  21
ENDBRANCH  12  15
ENDBRANCH   6  11
BRANCH   8  25
HETATM   25  C   UNL     1       3.312  26.331  47.765  1.00  0.00     0.409 C 
HETATM   26  F   UNL     1       3.279  24.986  47.753  1.00  0.00    -0.169 F 
HETATM   27  F   UNL     1       2.435  26.748  48.714  1.00  0.00    -0.169 F 
HETATM   28  F   UNL     1       2.811  26.757  46.580  1.00  0.00    -0.169 F 
ENDBRANCH   8  25
BRANCH   1  29
HETATM   29  C   UNL     1       2.987  29.880  47.856  1.00  0.00    -0.035 A 
HETATM   30  C   UNL     1       2.559  30.023  46.525  1.00  0.00     0.010 A 
HETATM   31  C   UNL     1       1.249  30.406  46.223  1.00  0.00     0.007 A 
HETATM   32  C   UNL     1       0.332  30.660  47.246  1.00  0.00    -0.062 A 
HETATM   33  C   UNL     1      -1.084  31.042  46.935  1.00  0.00     0.048 C 
HETATM   34  C   UNL     1       0.742  30.506  48.573  1.00  0.00     0.007 A 
HETATM   35  C   UNL     1       2.056  30.131  48.874  1.00  0.00     0.010 A 
ENDBRANCH   1  29
TORSDOF 6
ENDMDL
MODEL 5
REMARK VINA RESULT:      -9.2      6.251      9.207
REMARK  6 active torsions:
REMARK  status: ('A' for Active; 'I' for Inactive)
REMARK    1  A    between atoms: C_5  and  C_6 
REMARK    2  A    between atoms: C_11  and  C_12 
REMARK       I    between atoms: C_12  and  N_13 
REMARK    3  A    between atoms: N_13  and  C_14 
REMARK    4  A    between atoms: C_16  and  C_17 
REMARK    5  A    between atoms: C_17  and  O_18 
REMARK    6  A    between atoms: C_25  and  C_26 
ROOT
HETATM    1  C   UNL     1       2.303  29.671  50.990  1.00  0.00     0.118 C 
HETATM    2  N   UNL     1       2.635  28.581  51.899  1.00  0.00    -0.366 N 
HETATM    3  C   UNL     1       3.905  28.236  52.194  1.00  0.00     0.123 A 
HETATM    4  N   UNL     1       4.975  28.915  51.684  1.00  0.00    -0.240 N 
HETATM    5  N   UNL     1       6.167  28.474  52.131  1.00  0.00    -0.165 NA
HETATM    6  C   UNL     1       5.837  27.431  52.929  1.00  0.00     0.148 A 
HETATM    7  C   UNL     1       4.429  27.252  52.988  1.00  0.00     0.089 A 
HETATM    8  C   UNL     1       4.865  30.051  50.790  1.00  0.00     0.221 C 
HETATM    9  C   UNL     1       3.463  30.679  50.885  1.00  0.00     0.066 C 
HETATM   10  H   UNL     1       1.851  28.000  52.190  1.00  0.00     0.161 HD
ENDROOT
BRANCH   6  11
HETATM   11  C   UNL     1       6.849  26.620  53.631  1.00  0.00     0.276 C 
HETATM   12  N   UNL     1       6.344  25.403  54.044  1.00  0.00    -0.322 N 
HETATM   13  H   UNL     1       5.360  25.274  53.820  1.00  0.00     0.169 HD
HETATM   14  O   UNL     1       7.987  27.041  53.808  1.00  0.00    -0.266 OA
BRANCH  12  15
HETATM   15  C   UNL     1       7.008  24.372  54.731  1.00  0.00     0.035 A 
HETATM   16  C   UNL     1       7.145  23.073  54.235  1.00  0.00     0.039 A 
HETATM   17  C   UNL     1       7.819  22.078  54.968  1.00  0.00    -0.028 A 
HETATM   18  C   UNL     1       8.367  22.415  56.213  1.00  0.00     0.010 A 
HETATM   19  C   UNL     1       8.231  23.707  56.718  1.00  0.00     0.003 A 
HETATM   20  C   UNL     1       7.552  24.680  55.982  1.00  0.00     0.029 A 
BRANCH  17  21
HETATM   21  C   UNL     1       7.953  20.689  54.381  1.00  0.00     0.147 C 
HETATM   22  C   UNL     1       8.307  20.739  52.900  1.00  0.00     0.044 C 
BRANCH  21  23
HETATM   23  O   UNL     1       8.956  19.944  55.072  1.00  0.00    -0.391 OA
HETATM   24  H   UNL     1       9.814  20.266  54.752  1.00  0.00     0.210 HD
ENDBRANCH  21  23
ENDBRANCH  17  21
ENDBRANCH  12  15
ENDBRANCH   6  11
BRANCH   8  25
HETATM   25  C   UNL     1       5.274  29.658  49.389  1.00  0.00     0.409 C 
HETATM   26  F   UNL     1       6.586  29.815  49.136  1.00  0.00    -0.169 F 
HETATM   27  F   UNL     1       4.973  28.353  49.164  1.00  0.00    -0.169 F 
HETATM   28  F   UNL     1       4.596  30.365  48.453  1.00  0.00    -0.169 F 
ENDBRANCH   8  25
BRANCH   1  29
HETATM   29  C   UNL     1       1.752  29.183  49.664  1.00  0.00    -0.035 A 
HETATM   30  C   UNL     1       1.187  30.114  48.776  1.00  0.00     0.010 A 
HETATM   31  C   UNL     1       0.638  29.710  47.555  1.00  0.00     0.007 A 
HETATM   32  C   UNL     1       0.636  28.360  47.193  1.00  0.00    -0.062 A 
HETATM   33  C   UNL     1       0.077  27.917  45.874  1.00  0.00     0.048 C 
HETATM   34  C   UNL     1       1.208  27.427  48.061  1.00  0.00     0.007 A 
HETATM   35  C   UNL     1       1.749  27.833  49.286  1.00  0.00     0.010 A 
ENDBRANCH   1  29
TORSDOF 6
ENDMDL
MODEL 6
REMARK VINA RESULT:      -9.1      5.880     10.564
REMARK  6 active torsions:
REMARK  status: ('A' for Active; 'I' for Inactive)
REMARK    1  A    between atoms: C_5  and  C_6 
REMARK    2  A    between atoms: C_11  and  C_12 
REMARK       I    between atoms: C_12  and  N_13 
REMARK    3  A    between atoms: N_13  and  C_14 
REMARK    4  A    between atoms: C_16  and  C_17 
REMARK    5  A    between atoms: C_17  and  O_18 
REMARK    6  A    between atoms: C_25  and  C_26 
ROOT
HETATM    1  C   UNL     1       5.480  26.599  55.384  1.00  0.00     0.118 C 
HETATM    2  N   UNL     1       4.746  27.418  54.427  1.00  0.00    -0.366 N 
HETATM    3  C   UNL     1       4.748  27.173  53.102  1.00  0.00     0.123 A 
HETATM    4  N   UNL     1       5.418  26.110  52.565  1.00  0.00    -0.240 N 
HETATM    5  N   UNL     1       5.263  25.982  51.232  1.00  0.00    -0.165 NA
HETATM    6  C   UNL     1       4.495  27.047  50.902  1.00  0.00     0.148 A 
HETATM    7  C   UNL     1       4.158  27.815  52.048  1.00  0.00     0.089 A 
HETATM    8  C   UNL     1       6.181  25.153  53.342  1.00  0.00     0.221 C 
HETATM    9  C   UNL     1       5.748  25.192  54.819  1.00  0.00     0.066 C 
HETATM   10  H   UNL     1       4.342  28.274  54.804  1.00  0.00     0.161 HD
ENDROOT
BRANCH   6  11
HETATM   11  C   UNL     1       4.082  27.324  49.513  1.00  0.00     0.276 C 
HETATM   12  N   UNL     1       2.987  28.164  49.455  1.00  0.00    -0.322 N 
HETATM   13  H   UNL     1       2.633  28.433  50.370  1.00  0.00     0.169 HD
HETATM   14  O   UNL     1       4.676  26.825  48.564  1.00  0.00    -0.266 OA
BRANCH  12  15
HETATM   15  C   UNL     1       2.322  28.651  48.317  1.00  0.00     0.035 A 
HETATM   16  C   UNL     1       1.234  28.009  47.721  1.00  0.00     0.039 A 
HETATM   17  C   UNL     1       0.607  28.542  46.578  1.00  0.00    -0.028 A 
HETATM   18  C   UNL     1       1.086  29.746  46.048  1.00  0.00     0.010 A 
HETATM   19  C   UNL     1       2.175  30.392  46.633  1.00  0.00     0.003 A 
HETATM   20  C   UNL     1       2.791  29.845  47.760  1.00  0.00     0.029 A 
BRANCH  17  21
HETATM   21  C   UNL     1      -0.578  27.815  45.977  1.00  0.00     0.147 C 
HETATM   22  C   UNL     1      -1.687  28.782  45.583  1.00  0.00     0.044 C 
BRANCH  21  23
HETATM   23  O   UNL     1      -0.181  27.070  44.826  1.00  0.00    -0.391 OA
HETATM   24  H   UNL     1      -0.591  27.501  44.059  1.00  0.00     0.210 HD
ENDBRANCH  21  23
ENDBRANCH  17  21
ENDBRANCH  12  15
ENDBRANCH   6  11
BRANCH   8  25
HETATM   25  C   UNL     1       7.662  25.363  53.125  1.00  0.00     0.409 C 
HETATM   26  F   UNL     1       8.135  24.807  51.995  1.00  0.00    -0.169 F 
HETATM   27  F   UNL     1       7.942  26.691  53.069  1.00  0.00    -0.169 F 
HETATM   28  F   UNL     1       8.393  24.869  54.153  1.00  0.00    -0.169 F 
ENDBRANCH   8  25
BRANCH   1  29
HETATM   29  C   UNL     1       6.696  27.308  55.952  1.00  0.00    -0.035 A 
HETATM   30  C   UNL     1       6.962  28.629  55.554  1.00  0.00     0.010 A 
HETATM   31  C   UNL     1       8.085  29.315  56.026  1.00  0.00     0.007 A 
HETATM   32  C   UNL     1       8.976  28.693  56.906  1.00  0.00    -0.062 A 
HETATM   33  C   UNL     1      10.168  29.428  57.442  1.00  0.00     0.048 C 
HETATM   34  C   UNL     1       8.713  27.385  57.319  1.00  0.00     0.007 A 
HETATM   35  C   UNL     1       7.592  26.698  56.840  1.00  0.00     0.010 A 
ENDBRANCH   1  29
TORSDOF 6
ENDMDL
MODEL 7
REMARK VINA RESULT:      -8.9      4.724     11.001
REMARK  6 active torsions:
REMARK  status: ('A' for Active; 'I' for Inactive)
REMARK    1  A    between atoms: C_5  and  C_6 
REMARK    2  A    between atoms: C_11  and  C_12 
REMARK       I    between atoms: C_12  and  N_13 
REMARK    3  A    between atoms: N_13  and  C_14 
REMARK    4  A    between atoms: C_16  and  C_17 
REMARK    5  A    between atoms: C_17  and  O_18 
REMARK    6  A    between atoms: C_25  and  C_26 
ROOT
HETATM    1  C   UNL     1       4.245  34.566  62.585  1.00  0.00     0.118 C 
HETATM    2  N   UNL     1       4.642  34.192  61.233  1.00  0.00    -0.366 N 
HETATM    3  C   UNL     1       5.524  33.204  60.978  1.00  0.00     0.123 A 
HETATM    4  N   UNL     1       6.083  32.458  61.977  1.00  0.00    -0.240 N 
HETATM    5  N   UNL     1       6.894  31.476  61.538  1.00  0.00    -0.165 NA
HETATM    6  C   UNL     1       6.887  31.639  60.194  1.00  0.00     0.148 A 
HETATM    7  C   UNL     1       6.041  32.715  59.810  1.00  0.00     0.089 A 
HETATM    8  C   UNL     1       5.796  32.643  63.386  1.00  0.00     0.221 C 
HETATM    9  C   UNL     1       4.472  33.407  63.572  1.00  0.00     0.066 C 
HETATM   10  H   UNL     1       4.321  34.816  60.494  1.00  0.00     0.161 HD
ENDROOT
BRANCH   6  11
HETATM   11  C   UNL     1       7.668  30.778  59.288  1.00  0.00     0.276 C 
HETATM   12  N   UNL     1       6.861  29.946  58.537  1.00  0.00    -0.322 N 
HETATM   13  H   UNL     1       5.870  30.045  58.746  1.00  0.00     0.169 HD
HETATM   14  O   UNL     1       8.893  30.832  59.261  1.00  0.00    -0.266 OA
BRANCH  12  15
HETATM   15  C   UNL     1       7.243  29.000  57.571  1.00  0.00     0.035 A 
HETATM   16  C   UNL     1       7.274  27.622  57.804  1.00  0.00     0.039 A 
HETATM   17  C   UNL     1       7.669  26.720  56.798  1.00  0.00    -0.028 A 
HETATM   18  C   UNL     1       8.023  27.226  55.541  1.00  0.00     0.010 A 
HETATM   19  C   UNL     1       7.999  28.600  55.300  1.00  0.00     0.003 A 
HETATM   20  C   UNL     1       7.614  29.482  56.312  1.00  0.00     0.029 A 
BRANCH  17  21
HETATM   21  C   UNL     1       7.673  25.235  57.096  1.00  0.00     0.147 C 
HETATM   22  C   UNL     1       8.172  24.426  55.904  1.00  0.00     0.044 C 
BRANCH  21  23
HETATM   23  O   UNL     1       8.496  24.950  58.226  1.00  0.00    -0.391 OA
HETATM   24  H   UNL     1       8.989  24.141  58.017  1.00  0.00     0.210 HD
ENDBRANCH  21  23
ENDBRANCH  17  21
ENDBRANCH  12  15
ENDBRANCH   6  11
BRANCH   8  25
HETATM   25  C   UNL     1       6.979  33.275  64.083  1.00  0.00     0.409 C 
HETATM   26  F   UNL     1       7.460  34.369  63.466  1.00  0.00    -0.169 F 
HETATM   27  F   UNL     1       6.636  33.642  65.345  1.00  0.00    -0.169 F 
HETATM   28  F   UNL     1       8.007  32.402  64.214  1.00  0.00    -0.169 F 
ENDBRANCH   8  25
BRANCH   1  29
HETATM   29  C   UNL     1       4.819  35.903  63.016  1.00  0.00    -0.035 A 
HETATM   30  C   UNL     1       5.483  36.698  62.067  1.00  0.00     0.010 A 
HETATM   31  C   UNL     1       6.055  37.923  62.422  1.00  0.00     0.007 A 
HETATM   32  C   UNL     1       5.982  38.383  63.740  1.00  0.00    -0.062 A 
HETATM   33  C   UNL     1       6.566  39.708  64.127  1.00  0.00     0.048 C 
HETATM   34  C   UNL     1       5.312  37.607  64.688  1.00  0.00     0.007 A 
HETATM   35  C   UNL     1       4.747  36.378  64.333  1.00  0.00     0.010 A 
ENDBRANCH   1  29
TORSDOF 6
ENDMDL
MODEL 8
REMARK VINA RESULT:      -8.8      4.094     10.459
REMARK  6 active torsions:
REMARK  status: ('A' for Active; 'I' for Inactive)
REMARK    1  A    between atoms: C_5  and  C_6 
REMARK    2  A    between atoms: C_11  and  C_12 
REMARK       I    between atoms: C_12  and  N_13 
REMARK    3  A    between atoms: N_13  and  C_14 
REMARK    4  A    between atoms: C_16  and  C_17 
REMARK    5  A    between atoms: C_17  and  O_18 
REMARK    6  A    between atoms: C_25  and  C_26 
ROOT
HETATM    1  C   UNL     1       6.008  34.889  62.428  1.00  0.00     0.118 C 
HETATM    2  N   UNL     1       7.179  34.189  61.915  1.00  0.00    -0.366 N 
HETATM    3  C   UNL     1       7.093  33.124  61.092  1.00  0.00     0.123 A 
HETATM    4  N   UNL     1       5.891  32.647  60.652  1.00  0.00    -0.240 N 
HETATM    5  N   UNL     1       5.994  31.617  59.789  1.00  0.00    -0.165 NA
HETATM    6  C   UNL     1       7.328  31.400  59.717  1.00  0.00     0.148 A 
HETATM    7  C   UNL     1       8.045  32.324  60.524  1.00  0.00     0.089 A 
HETATM    8  C   UNL     1       4.608  33.219  61.013  1.00  0.00     0.221 C 
HETATM    9  C   UNL     1       4.785  34.662  61.521  1.00  0.00     0.066 C 
HETATM   10  H   UNL     1       8.069  34.464  62.329  1.00  0.00     0.161 HD
ENDROOT
BRANCH   6  11
HETATM   11  C   UNL     1       7.912  30.331  58.886  1.00  0.00     0.276 C 
HETATM   12  N   UNL     1       6.950  29.650  58.164  1.00  0.00    -0.322 N 
HETATM   13  H   UNL     1       6.003  29.978  58.340  1.00  0.00     0.169 HD
HETATM   14  O   UNL     1       9.118  30.113  58.889  1.00  0.00    -0.266 OA
BRANCH  12  15
HETATM   15  C   UNL     1       7.127  28.584  57.266  1.00  0.00     0.035 A 
HETATM   16  C   UNL     1       7.399  27.272  57.665  1.00  0.00     0.039 A 
HETATM   17  C   UNL     1       7.570  26.242  56.720  1.00  0.00    -0.028 A 
HETATM   18  C   UNL     1       7.449  26.550  55.359  1.00  0.00     0.010 A 
HETATM   19  C   UNL     1       7.183  27.857  54.952  1.00  0.00     0.003 A 
HETATM   20  C   UNL     1       7.025  28.869  55.901  1.00  0.00     0.029 A 
BRANCH  17  21
HETATM   21  C   UNL     1       7.850  24.835  57.203  1.00  0.00     0.147 C 
HETATM   22  C   UNL     1       8.736  24.073  56.224  1.00  0.00     0.044 C 
BRANCH  21  23
HETATM   23  O   UNL     1       8.485  24.857  58.481  1.00  0.00    -0.391 OA
HETATM   24  H   UNL     1       8.238  25.697  58.902  1.00  0.00     0.210 HD
ENDBRANCH  21  23
ENDBRANCH  17  21
ENDBRANCH  12  15
ENDBRANCH   6  11
BRANCH   8  25
HETATM   25  C   UNL     1       3.880  32.309  61.974  1.00  0.00     0.409 C 
HETATM   26  F   UNL     1       4.677  31.723  62.885  1.00  0.00    -0.169 F 
HETATM   27  F   UNL     1       2.936  33.008  62.655  1.00  0.00    -0.169 F 
HETATM   28  F   UNL     1       3.218  31.321  61.324  1.00  0.00    -0.169 F 
ENDBRANCH   8  25
BRANCH   1  29
HETATM   29  C   UNL     1       5.771  34.634  63.905  1.00  0.00    -0.035 A 
HETATM   30  C   UNL     1       4.555  35.041  64.481  1.00  0.00     0.010 A 
HETATM   31  C   UNL     1       4.302  34.856  65.843  1.00  0.00     0.007 A 
HETATM   32  C   UNL     1       5.262  34.262  66.667  1.00  0.00    -0.062 A 
HETATM   33  C   UNL     1       4.991  34.031  68.124  1.00  0.00     0.048 C 
HETATM   34  C   UNL     1       6.468  33.840  66.102  1.00  0.00     0.007 A 
HETATM   35  C   UNL     1       6.723  34.034  64.740  1.00  0.00     0.010 A 
ENDBRANCH   1  29
TORSDOF 6
ENDMDL
MODEL 9
REMARK VINA RESULT:      -8.7      6.723      9.726
REMARK  6 active torsions:
REMARK  status: ('A' for Active; 'I' for Inactive)
REMARK    1  A    between atoms: C_5  and  C_6 
REMARK    2  A    between atoms: C_11  and  C_12 
REMARK       I    between atoms: C_12  and  N_13 
REMARK    3  A    between atoms: N_13  and  C_14 
REMARK    4  A    between atoms: C_16  and  C_17 
REMARK    5  A    between atoms: C_17  and  O_18 
REMARK    6  A    between atoms: C_25  and  C_26 
ROOT
HETATM    1  C   UNL     1       2.514  28.557  49.272  1.00  0.00     0.118 C 
HETATM    2  N   UNL     1       3.409  27.408  49.227  1.00  0.00    -0.366 N 
HETATM    3  C   UNL     1       4.235  27.085  50.243  1.00  0.00     0.123 A 
HETATM    4  N   UNL     1       4.263  27.800  51.407  1.00  0.00    -0.240 N 
HETATM    5  N   UNL     1       5.103  27.301  52.335  1.00  0.00    -0.165 NA
HETATM    6  C   UNL     1       5.671  26.244  51.710  1.00  0.00     0.148 A 
HETATM    7  C   UNL     1       5.153  26.082  50.396  1.00  0.00     0.089 A 
HETATM    8  C   UNL     1       3.429  28.956  51.670  1.00  0.00     0.221 C 
HETATM    9  C   UNL     1       2.214  28.972  50.724  1.00  0.00     0.066 C 
HETATM   10  H   UNL     1       3.478  26.942  48.324  1.00  0.00     0.161 HD
ENDROOT
BRANCH   6  11
HETATM   11  C   UNL     1       6.689  25.395  52.356  1.00  0.00     0.276 C 
HETATM   12  N   UNL     1       6.235  24.853  53.543  1.00  0.00    -0.322 N 
HETATM   13  H   UNL     1       5.291  25.144  53.788  1.00  0.00     0.169 HD
HETATM   14  O   UNL     1       7.796  25.239  51.854  1.00  0.00    -0.266 OA
BRANCH  12  15
HETATM   15  C   UNL     1       6.915  23.997  54.426  1.00  0.00     0.035 A 
HETATM   16  C   UNL     1       7.248  22.674  54.119  1.00  0.00     0.039 A 
HETATM   17  C   UNL     1       7.927  21.859  55.044  1.00  0.00    -0.028 A 
HETATM   18  C   UNL     1       8.281  22.401  56.287  1.00  0.00     0.010 A 
HETATM   19  C   UNL     1       7.949  23.718  56.603  1.00  0.00     0.003 A 
HETATM   20  C   UNL     1       7.266  24.510  55.678  1.00  0.00     0.029 A 
BRANCH  17  21
HETATM   21  C   UNL     1       8.278  20.437  54.660  1.00  0.00     0.147 C 
HETATM   22  C   UNL     1       8.728  20.344  53.207  1.00  0.00     0.044 C 
BRANCH  21  23
HETATM   23  O   UNL     1       9.314  19.929  55.500  1.00  0.00    -0.391 OA
HETATM   24  H   UNL     1       8.891  19.326  56.133  1.00  0.00     0.210 HD
ENDBRANCH  21  23
ENDBRANCH  17  21
ENDBRANCH  12  15
ENDBRANCH   6  11
BRANCH   8  25
HETATM   25  C   UNL     1       4.257  30.219  51.635  1.00  0.00     0.409 C 
HETATM   26  F   UNL     1       3.582  31.307  51.224  1.00  0.00    -0.169 F 
HETATM   27  F   UNL     1       4.746  30.492  52.873  1.00  0.00    -0.169 F 
HETATM   28  F   UNL     1       5.338  30.087  50.828  1.00  0.00    -0.169 F 
ENDBRANCH   8  25
BRANCH   1  29
HETATM   29  C   UNL     1       2.959  29.684  48.358  1.00  0.00    -0.035 A 
HETATM   30  C   UNL     1       4.141  29.530  47.613  1.00  0.00     0.010 A 
HETATM   31  C   UNL     1       4.609  30.551  46.780  1.00  0.00     0.007 A 
HETATM   32  C   UNL     1       3.909  31.756  46.676  1.00  0.00    -0.062 A 
HETATM   33  C   UNL     1       4.385  32.847  45.764  1.00  0.00     0.048 C 
HETATM   34  C   UNL     1       2.726  31.914  47.401  1.00  0.00     0.007 A 
HETATM   35  C   UNL     1       2.263  30.894  48.240  1.00  0.00     0.010 A 
ENDBRANCH   1  29
TORSDOF 6
ENDMDL
MODEL 10
REMARK VINA RESULT:      -8.6      4.603     11.015
REMARK  6 active torsions:
REMARK  status: ('A' for Active; 'I' for Inactive)
REMARK    1  A    between atoms: C_5  and  C_6 
REMARK    2  A    between atoms: C_11  and  C_12 
REMARK       I    between atoms: C_12  and  N_13 
REMARK    3  A    between atoms: N_13  and  C_14 
REMARK    4  A    between atoms: C_16  and  C_17 
REMARK    5  A    between atoms: C_17  and  O_18 
REMARK    6  A    between atoms: C_25  and  C_26 
ROOT
HETATM    1  C   UNL     1       4.090  34.612  62.609  1.00  0.00     0.118 C 
HETATM    2  N   UNL     1       4.367  34.319  61.208  1.00  0.00    -0.366 N 
HETATM    3  C   UNL     1       5.229  33.358  60.818  1.00  0.00     0.123 A 
HETATM    4  N   UNL     1       5.882  32.565  61.718  1.00  0.00    -0.240 N 
HETATM    5  N   UNL     1       6.658  31.620  61.153  1.00  0.00    -0.165 NA
HETATM    6  C   UNL     1       6.527  31.858  59.827  1.00  0.00     0.148 A 
HETATM    7  C   UNL     1       5.643  32.943  59.582  1.00  0.00     0.089 A 
HETATM    8  C   UNL     1       5.723  32.667  63.156  1.00  0.00     0.221 C 
HETATM    9  C   UNL     1       4.416  33.402  63.503  1.00  0.00     0.066 C 
HETATM   10  H   UNL     1       3.976  34.979  60.538  1.00  0.00     0.161 HD
ENDROOT
BRANCH   6  11
HETATM   11  C   UNL     1       7.230  31.059  58.806  1.00  0.00     0.276 C 
HETATM   12  N   UNL     1       6.453  30.019  58.334  1.00  0.00    -0.322 N 
HETATM   13  H   UNL     1       5.540  29.961  58.780  1.00  0.00     0.169 HD
HETATM   14  O   UNL     1       8.378  31.329  58.469  1.00  0.00    -0.266 OA
BRANCH  12  15
HETATM   15  C   UNL     1       6.779  29.060  57.361  1.00  0.00     0.035 A 
HETATM   16  C   UNL     1       6.185  29.005  56.097  1.00  0.00     0.039 A 
HETATM   17  C   UNL     1       6.549  28.019  55.160  1.00  0.00    -0.028 A 
HETATM   18  C   UNL     1       7.535  27.089  55.512  1.00  0.00     0.010 A 
HETATM   19  C   UNL     1       8.130  27.132  56.772  1.00  0.00     0.003 A 
HETATM   20  C   UNL     1       7.751  28.111  57.693  1.00  0.00     0.029 A 
BRANCH  17  21
HETATM   21  C   UNL     1       5.885  28.010  53.799  1.00  0.00     0.147 C 
HETATM   22  C   UNL     1       4.409  28.376  53.893  1.00  0.00     0.044 C 
BRANCH  21  23
HETATM   23  O   UNL     1       6.534  28.925  52.917  1.00  0.00    -0.391 OA
HETATM   24  H   UNL     1       6.616  29.766  53.395  1.00  0.00     0.210 HD
ENDBRANCH  21  23
ENDBRANCH  17  21
ENDBRANCH  12  15
ENDBRANCH   6  11
BRANCH   8  25
HETATM   25  C   UNL     1       6.959  33.274  63.778  1.00  0.00     0.409 C 
HETATM   26  F   UNL     1       6.741  33.867  64.966  1.00  0.00    -0.169 F 
HETATM   27  F   UNL     1       7.902  32.316  63.973  1.00  0.00    -0.169 F 
HETATM   28  F   UNL     1       7.527  34.197  62.965  1.00  0.00    -0.169 F 
ENDBRANCH   8  25
BRANCH   1  29
HETATM   29  C   UNL     1       4.691  35.929  63.063  1.00  0.00    -0.035 A 
HETATM   30  C   UNL     1       5.377  36.724  62.128  1.00  0.00     0.010 A 
HETATM   31  C   UNL     1       5.973  37.931  62.503  1.00  0.00     0.007 A 
HETATM   32  C   UNL     1       5.904  38.373  63.827  1.00  0.00    -0.062 A 
HETATM   33  C   UNL     1       6.515  39.680  64.236  1.00  0.00     0.048 C 
HETATM   34  C   UNL     1       5.213  37.598  64.762  1.00  0.00     0.007 A 
HETATM   35  C   UNL     1       4.623  36.386  64.386  1.00  0.00     0.010 A 
ENDBRANCH   1  29
TORSDOF 6
ENDMDL
