MODEL 1
REMARK VINA RESULT:      -8.9      0.000      0.000
REMARK  8 active torsions:
REMARK  status: ('A' for Active; 'I' for Inactive)
REMARK    1  A    between atoms: C_2  and  C_3 
REMARK    2  A    between atoms: C_3  and  C_4 
REMARK    3  A    between atoms: C_4  and  O_5 
REMARK    4  A    between atoms: O_5  and  C_6 
REMARK    5  A    between atoms: C_9  and  C_10 
REMARK    6  A    between atoms: C_10  and  N_11 
REMARK    7  A    between atoms: N_11  and  C_12 
REMARK    8  A    between atoms: C_19  and  C_20 
REMARK       I    between atoms: C_20  and  N_21 
ROOT
HETATM    1  C   UNL     1       7.494  25.150  54.418  1.00  0.00     0.009 A 
HETATM    2  C   UNL     1       7.906  24.012  55.137  1.00  0.00     0.039 A 
HETATM    3  C   UNL     1       8.065  22.771  54.484  1.00  0.00     0.030 A 
HETATM    4  C   UNL     1       7.846  22.706  53.116  1.00  0.00     0.063 A 
HETATM    5  N   UNL     1       8.081  21.405  52.771  1.00  0.00    -0.277 N 
HETATM    6  H   UNL     1       8.022  20.996  51.846  1.00  0.00     0.189 HD
HETATM    7  N   UNL     1       8.430  20.612  53.798  1.00  0.00    -0.168 NA
HETATM    8  C   UNL     1       8.427  21.445  54.864  1.00  0.00     0.156 A 
HETATM    9  C   UNL     1       7.481  23.816  52.353  1.00  0.00     0.034 A 
HETATM   10  C   UNL     1       7.325  25.033  53.033  1.00  0.00     0.026 A 
ENDROOT
BRANCH   1  11
HETATM   11  N   UNL     1       7.415  26.374  55.100  1.00  0.00    -0.289 NA
HETATM   12  H   UNL     1       7.874  27.124  54.588  1.00  0.00     0.128 HD
BRANCH  11  13
HETATM   13  C   UNL     1       7.741  26.406  56.519  1.00  0.00     0.131 C 
BRANCH  13  14
HETATM   14  C   UNL     1       7.789  27.834  57.011  1.00  0.00    -0.045 A 
HETATM   15  C   UNL     1       6.600  28.537  57.260  1.00  0.00     0.011 A 
HETATM   16  C   UNL     1       6.634  29.832  57.788  1.00  0.00     0.037 A 
HETATM   17  C   UNL     1       7.858  30.434  58.078  1.00  0.00     0.068 A 
HETATM   18  C   UNL     1       9.043  29.764  57.780  1.00  0.00     0.037 A 
HETATM   19  C   UNL     1       9.013  28.469  57.254  1.00  0.00     0.011 A 
BRANCH  17  20
HETATM   20  O   UNL     1       8.007  31.676  58.634  1.00  0.00    -0.351 OA
BRANCH  20  21
HETATM   21  C   UNL     1       9.137  31.824  59.500  1.00  0.00     0.176 C 
BRANCH  21  22
HETATM   22  C   UNL     1       8.670  32.572  60.749  1.00  0.00     0.030 C 
BRANCH  22  23
HETATM   23  C   UNL     1       8.236  31.643  61.894  1.00  0.00    -0.021 C 
HETATM   24  C   UNL     1       8.134  32.380  63.230  1.00  0.00     0.009 C 
HETATM   25  C   UNL     1       9.215  30.474  62.020  1.00  0.00     0.009 C 
ENDBRANCH  22  23
ENDBRANCH  21  22
ENDBRANCH  20  21
ENDBRANCH  17  20
ENDBRANCH  13  14
ENDBRANCH  11  13
ENDBRANCH   1  11
BRANCH   8  26
HETATM   26  C   UNL     1       8.761  20.961  56.210  1.00  0.00     0.270 C 
HETATM   27  N   UNL     1       9.707  19.973  56.229  1.00  0.00    -0.365 N 
HETATM   28  H   UNL     1      10.092  19.656  55.347  1.00  0.00     0.159 HD
HETATM   29  H   UNL     1       9.999  19.574  57.107  1.00  0.00     0.159 HD
HETATM   30  O   UNL     1       8.256  21.379  57.247  1.00  0.00    -0.266 OA
ENDBRANCH   8  26
TORSDOF 8
ENDMDL
MODEL 2
REMARK VINA RESULT:      -8.8      3.105      9.572
REMARK  8 active torsions:
REMARK  status: ('A' for Active; 'I' for Inactive)
REMARK    1  A    between atoms: C_2  and  C_3 
REMARK    2  A    between atoms: C_3  and  C_4 
REMARK    3  A    between atoms: C_4  and  O_5 
REMARK    4  A    between atoms: O_5  and  C_6 
REMARK    5  A    between atoms: C_9  and  C_10 
REMARK    6  A    between atoms: C_10  and  N_11 
REMARK    7  A    between atoms: N_11  and  C_12 
REMARK    8  A    between atoms: C_19  and  C_20 
REMARK       I    between atoms: C_20  and  N_21 
ROOT
HETATM    1  C   UNL     1       8.057  28.478  57.227  1.00  0.00     0.009 A 
HETATM    2  C   UNL     1       7.576  29.409  58.167  1.00  0.00     0.039 A 
HETATM    3  C   UNL     1       8.381  30.492  58.579  1.00  0.00     0.030 A 
HETATM    4  C   UNL     1       9.639  30.640  58.011  1.00  0.00     0.063 A 
HETATM    5  N   UNL     1      10.169  31.760  58.589  1.00  0.00    -0.277 N 
HETATM    6  H   UNL     1      11.077  32.172  58.407  1.00  0.00     0.189 HD
HETATM    7  N   UNL     1       9.368  32.353  59.490  1.00  0.00    -0.168 NA
HETATM    8  C   UNL     1       8.257  31.580  59.492  1.00  0.00     0.156 A 
HETATM    9  C   UNL     1      10.141  29.770  57.044  1.00  0.00     0.034 A 
HETATM   10  C   UNL     1       9.319  28.700  56.660  1.00  0.00     0.026 A 
ENDROOT
BRANCH   1  11
HETATM   11  N   UNL     1       7.194  27.458  56.800  1.00  0.00    -0.289 NA
HETATM   12  H   UNL     1       7.522  26.538  57.088  1.00  0.00     0.128 HD
BRANCH  11  13
HETATM   13  C   UNL     1       6.736  27.462  55.417  1.00  0.00     0.131 C 
BRANCH  13  14
HETATM   14  C   UNL     1       7.099  26.159  54.744  1.00  0.00    -0.045 A 
HETATM   15  C   UNL     1       6.921  24.941  55.417  1.00  0.00     0.011 A 
HETATM   16  C   UNL     1       7.181  23.725  54.775  1.00  0.00     0.037 A 
HETATM   17  C   UNL     1       7.615  23.717  53.450  1.00  0.00     0.068 A 
HETATM   18  C   UNL     1       7.848  24.925  52.794  1.00  0.00     0.037 A 
HETATM   19  C   UNL     1       7.588  26.140  53.432  1.00  0.00     0.011 A 
BRANCH  17  20
HETATM   20  O   UNL     1       7.858  22.589  52.714  1.00  0.00    -0.351 OA
BRANCH  20  21
HETATM   21  C   UNL     1       8.852  21.712  53.254  1.00  0.00     0.176 C 
BRANCH  21  22
HETATM   22  C   UNL     1       8.144  20.442  53.726  1.00  0.00     0.030 C 
BRANCH  22  23
HETATM   23  C   UNL     1       8.451  20.074  55.186  1.00  0.00    -0.021 C 
HETATM   24  C   UNL     1       7.279  20.382  56.119  1.00  0.00     0.009 C 
HETATM   25  C   UNL     1       9.701  20.815  55.661  1.00  0.00     0.009 C 
ENDBRANCH  22  23
ENDBRANCH  21  22
ENDBRANCH  20  21
ENDBRANCH  17  20
ENDBRANCH  13  14
ENDBRANCH  11  13
ENDBRANCH   1  11
BRANCH   8  26
HETATM   26  C   UNL     1       7.114  31.892  60.361  1.00  0.00     0.270 C 
HETATM   27  N   UNL     1       7.125  31.228  61.557  1.00  0.00    -0.365 N 
HETATM   28  H   UNL     1       7.890  30.592  61.750  1.00  0.00     0.159 HD
HETATM   29  H   UNL     1       6.380  31.374  62.219  1.00  0.00     0.159 HD
HETATM   30  O   UNL     1       6.211  32.670  60.072  1.00  0.00    -0.266 OA
ENDBRANCH   8  26
TORSDOF 8
ENDMDL
MODEL 3
REMARK VINA RESULT:      -8.4      4.987     10.257
REMARK  8 active torsions:
REMARK  status: ('A' for Active; 'I' for Inactive)
REMARK    1  A    between atoms: C_2  and  C_3 
REMARK    2  A    between atoms: C_3  and  C_4 
REMARK    3  A    between atoms: C_4  and  O_5 
REMARK    4  A    between atoms: O_5  and  C_6 
REMARK    5  A    between atoms: C_9  and  C_10 
REMARK    6  A    between atoms: C_10  and  N_11 
REMARK    7  A    between atoms: N_11  and  C_12 
REMARK    8  A    between atoms: C_19  and  C_20 
REMARK       I    between atoms: C_20  and  N_21 
ROOT
HETATM    1  C   UNL     1       8.192  32.303  60.433  1.00  0.00     0.009 A 
HETATM    2  C   UNL     1       6.788  32.368  60.346  1.00  0.00     0.039 A 
HETATM    3  C   UNL     1       5.997  32.368  61.514  1.00  0.00     0.030 A 
HETATM    4  C   UNL     1       6.631  32.342  62.748  1.00  0.00     0.063 A 
HETATM    5  N   UNL     1       5.627  32.358  63.674  1.00  0.00    -0.277 N 
HETATM    6  H   UNL     1       5.723  32.353  64.683  1.00  0.00     0.189 HD
HETATM    7  N   UNL     1       4.389  32.388  63.152  1.00  0.00    -0.168 NA
HETATM    8  C   UNL     1       4.603  32.397  61.816  1.00  0.00     0.156 A 
HETATM    9  C   UNL     1       8.019  32.322  62.886  1.00  0.00     0.034 A 
HETATM   10  C   UNL     1       8.778  32.316  61.706  1.00  0.00     0.026 A 
ENDROOT
BRANCH   1  11
HETATM   11  N   UNL     1       8.936  32.372  59.246  1.00  0.00    -0.289 NA
HETATM   12  H   UNL     1       8.348  32.580  58.441  1.00  0.00     0.128 HD
BRANCH  11  13
HETATM   13  C   UNL     1       9.895  31.314  58.959  1.00  0.00     0.131 C 
BRANCH  13  14
HETATM   14  C   UNL     1       9.265  30.266  58.071  1.00  0.00    -0.045 A 
HETATM   15  C   UNL     1       9.765  30.040  56.779  1.00  0.00     0.011 A 
HETATM   16  C   UNL     1       9.240  29.021  55.978  1.00  0.00     0.037 A 
HETATM   17  C   UNL     1       8.212  28.213  56.465  1.00  0.00     0.068 A 
HETATM   18  C   UNL     1       7.672  28.469  57.725  1.00  0.00     0.037 A 
HETATM   19  C   UNL     1       8.197  29.485  58.528  1.00  0.00     0.011 A 
BRANCH  17  20
HETATM   20  O   UNL     1       7.654  27.164  55.787  1.00  0.00    -0.351 OA
BRANCH  20  21
HETATM   21  C   UNL     1       7.606  25.928  56.508  1.00  0.00     0.176 C 
BRANCH  21  22
HETATM   22  C   UNL     1       6.976  24.879  55.592  1.00  0.00     0.030 C 
BRANCH  22  23
HETATM   23  C   UNL     1       7.983  24.202  54.649  1.00  0.00    -0.021 C 
HETATM   24  C   UNL     1       7.296  23.471  53.496  1.00  0.00     0.009 C 
HETATM   25  C   UNL     1       8.860  23.226  55.434  1.00  0.00     0.009 C 
ENDBRANCH  22  23
ENDBRANCH  21  22
ENDBRANCH  20  21
ENDBRANCH  17  20
ENDBRANCH  13  14
ENDBRANCH  11  13
ENDBRANCH   1  11
BRANCH   8  26
HETATM   26  C   UNL     1       3.484  32.428  60.865  1.00  0.00     0.270 C 
HETATM   27  N   UNL     1       3.080  31.193  60.439  1.00  0.00    -0.365 N 
HETATM   28  H   UNL     1       3.564  30.376  60.793  1.00  0.00     0.159 HD
HETATM   29  H   UNL     1       2.320  31.112  59.782  1.00  0.00     0.159 HD
HETATM   30  O   UNL     1       2.937  33.451  60.465  1.00  0.00    -0.266 OA
ENDBRANCH   8  26
TORSDOF 8
ENDMDL
MODEL 4
REMARK VINA RESULT:      -8.4      1.601      2.012
REMARK  8 active torsions:
REMARK  status: ('A' for Active; 'I' for Inactive)
REMARK    1  A    between atoms: C_2  and  C_3 
REMARK    2  A    between atoms: C_3  and  C_4 
REMARK    3  A    between atoms: C_4  and  O_5 
REMARK    4  A    between atoms: O_5  and  C_6 
REMARK    5  A    between atoms: C_9  and  C_10 
REMARK    6  A    between atoms: C_10  and  N_11 
REMARK    7  A    between atoms: N_11  and  C_12 
REMARK    8  A    between atoms: C_19  and  C_20 
REMARK       I    between atoms: C_20  and  N_21 
ROOT
HETATM    1  C   UNL     1       5.758  25.467  54.519  1.00  0.00     0.009 A 
HETATM    2  C   UNL     1       6.459  24.593  55.371  1.00  0.00     0.039 A 
HETATM    3  C   UNL     1       7.343  23.630  54.839  1.00  0.00     0.030 A 
HETATM    4  C   UNL     1       7.535  23.588  53.466  1.00  0.00     0.063 A 
HETATM    5  N   UNL     1       8.433  22.580  53.254  1.00  0.00    -0.277 N 
HETATM    6  H   UNL     1       8.809  22.272  52.365  1.00  0.00     0.189 HD
HETATM    7  N   UNL     1       8.841  21.955  54.371  1.00  0.00    -0.168 NA
HETATM    8  C   UNL     1       8.177  22.596  55.360  1.00  0.00     0.156 A 
HETATM    9  C   UNL     1       6.897  24.462  52.585  1.00  0.00     0.034 A 
HETATM   10  C   UNL     1       6.020  25.404  53.144  1.00  0.00     0.026 A 
ENDROOT
BRANCH   1  11
HETATM   11  N   UNL     1       4.942  26.449  55.099  1.00  0.00    -0.289 NA
HETATM   12  H   UNL     1       3.954  26.215  55.026  1.00  0.00     0.128 HD
BRANCH  11  13
HETATM   13  C   UNL     1       5.194  27.847  54.776  1.00  0.00     0.131 C 
BRANCH  13  14
HETATM   14  C   UNL     1       6.285  28.400  55.663  1.00  0.00    -0.045 A 
HETATM   15  C   UNL     1       7.592  28.540  55.172  1.00  0.00     0.011 A 
HETATM   16  C   UNL     1       8.592  29.121  55.959  1.00  0.00     0.037 A 
HETATM   17  C   UNL     1       8.291  29.575  57.243  1.00  0.00     0.068 A 
HETATM   18  C   UNL     1       7.009  29.386  57.758  1.00  0.00     0.037 A 
HETATM   19  C   UNL     1       6.008  28.808  56.973  1.00  0.00     0.011 A 
BRANCH  17  20
HETATM   20  O   UNL     1       9.178  30.195  58.082  1.00  0.00    -0.351 OA
BRANCH  20  21
HETATM   21  C   UNL     1       8.745  30.320  59.441  1.00  0.00     0.176 C 
BRANCH  21  22
HETATM   22  C   UNL     1       9.386  31.581  60.019  1.00  0.00     0.030 C 
BRANCH  22  23
HETATM   23  C   UNL     1       8.418  32.435  60.853  1.00  0.00    -0.021 C 
HETATM   24  C   UNL     1       8.483  32.094  62.342  1.00  0.00     0.009 C 
HETATM   25  C   UNL     1       6.988  32.256  60.341  1.00  0.00     0.009 C 
ENDBRANCH  22  23
ENDBRANCH  21  22
ENDBRANCH  20  21
ENDBRANCH  17  20
ENDBRANCH  13  14
ENDBRANCH  11  13
ENDBRANCH   1  11
BRANCH   8  26
HETATM   26  C   UNL     1       8.346  22.209  56.767  1.00  0.00     0.270 C 
HETATM   27  N   UNL     1       8.442  23.267  57.629  1.00  0.00    -0.365 N 
HETATM   28  H   UNL     1       8.394  24.205  57.250  1.00  0.00     0.159 HD
HETATM   29  H   UNL     1       8.564  23.101  58.616  1.00  0.00     0.159 HD
HETATM   30  O   UNL     1       8.403  21.051  57.170  1.00  0.00    -0.266 OA
ENDBRANCH   8  26
TORSDOF 8
ENDMDL
MODEL 5
REMARK VINA RESULT:      -8.3      4.234     10.377
REMARK  8 active torsions:
REMARK  status: ('A' for Active; 'I' for Inactive)
REMARK    1  A    between atoms: C_2  and  C_3 
REMARK    2  A    between atoms: C_3  and  C_4 
REMARK    3  A    between atoms: C_4  and  O_5 
REMARK    4  A    between atoms: O_5  and  C_6 
REMARK    5  A    between atoms: C_9  and  C_10 
REMARK    6  A    between atoms: C_10  and  N_11 
REMARK    7  A    between atoms: N_11  and  C_12 
REMARK    8  A    between atoms: C_19  and  C_20 
REMARK       I    between atoms: C_20  and  N_21 
ROOT
HETATM    1  C   UNL     1       8.200  31.074  59.659  1.00  0.00     0.009 A 
HETATM    2  C   UNL     1       7.019  31.459  60.322  1.00  0.00     0.039 A 
HETATM    3  C   UNL     1       7.067  31.953  61.643  1.00  0.00     0.030 A 
HETATM    4  C   UNL     1       8.303  32.087  62.258  1.00  0.00     0.063 A 
HETATM    5  N   UNL     1       8.038  32.587  63.503  1.00  0.00    -0.277 N 
HETATM    6  H   UNL     1       8.709  32.817  64.227  1.00  0.00     0.189 HD
HETATM    7  N   UNL     1       6.733  32.786  63.755  1.00  0.00    -0.168 NA
HETATM    8  C   UNL     1       6.121  32.400  62.612  1.00  0.00     0.156 A 
HETATM    9  C   UNL     1       9.504  31.762  61.627  1.00  0.00     0.034 A 
HETATM   10  C   UNL     1       9.422  31.268  60.317  1.00  0.00     0.026 A 
ENDROOT
BRANCH   1  11
HETATM   11  N   UNL     1       8.107  30.652  58.325  1.00  0.00    -0.289 NA
HETATM   12  H   UNL     1       8.646  31.247  57.699  1.00  0.00     0.128 HD
BRANCH  11  13
HETATM   13  C   UNL     1       6.792  30.343  57.780  1.00  0.00     0.131 C 
BRANCH  13  14
HETATM   14  C   UNL     1       6.690  28.869  57.466  1.00  0.00    -0.045 A 
HETATM   15  C   UNL     1       5.452  28.300  57.132  1.00  0.00     0.011 A 
HETATM   16  C   UNL     1       5.360  26.953  56.765  1.00  0.00     0.037 A 
HETATM   17  C   UNL     1       6.509  26.164  56.722  1.00  0.00     0.068 A 
HETATM   18  C   UNL     1       7.734  26.708  57.107  1.00  0.00     0.037 A 
HETATM   19  C   UNL     1       7.828  28.053  57.472  1.00  0.00     0.011 A 
BRANCH  17  20
HETATM   20  O   UNL     1       6.542  24.851  56.338  1.00  0.00    -0.351 OA
BRANCH  20  21
HETATM   21  C   UNL     1       7.609  24.503  55.448  1.00  0.00     0.176 C 
BRANCH  21  22
HETATM   22  C   UNL     1       7.502  23.006  55.158  1.00  0.00     0.030 C 
BRANCH  22  23
HETATM   23  C   UNL     1       7.480  22.671  53.658  1.00  0.00    -0.021 C 
HETATM   24  C   UNL     1       8.393  21.493  53.314  1.00  0.00     0.009 C 
HETATM   25  C   UNL     1       7.888  23.899  52.842  1.00  0.00     0.009 C 
ENDBRANCH  22  23
ENDBRANCH  21  22
ENDBRANCH  20  21
ENDBRANCH  17  20
ENDBRANCH  13  14
ENDBRANCH  11  13
ENDBRANCH   1  11
BRANCH   8  26
HETATM   26  C   UNL     1       4.660  32.462  62.471  1.00  0.00     0.270 C 
HETATM   27  N   UNL     1       4.045  31.240  62.503  1.00  0.00    -0.365 N 
HETATM   28  H   UNL     1       4.619  30.413  62.614  1.00  0.00     0.159 HD
HETATM   29  H   UNL     1       3.043  31.180  62.411  1.00  0.00     0.159 HD
HETATM   30  O   UNL     1       4.016  33.497  62.333  1.00  0.00    -0.266 OA
ENDBRANCH   8  26
TORSDOF 8
ENDMDL
MODEL 6
REMARK VINA RESULT:      -8.1      4.731      7.689
REMARK  8 active torsions:
REMARK  status: ('A' for Active; 'I' for Inactive)
REMARK    1  A    between atoms: C_2  and  C_3 
REMARK    2  A    between atoms: C_3  and  C_4 
REMARK    3  A    between atoms: C_4  and  O_5 
REMARK    4  A    between atoms: O_5  and  C_6 
REMARK    5  A    between atoms: C_9  and  C_10 
REMARK    6  A    between atoms: C_10  and  N_11 
REMARK    7  A    between atoms: N_11  and  C_12 
REMARK    8  A    between atoms: C_19  and  C_20 
REMARK       I    between atoms: C_20  and  N_21 
ROOT
HETATM    1  C   UNL     1       8.534  30.587  59.463  1.00  0.00     0.009 A 
HETATM    2  C   UNL     1       7.837  29.882  58.463  1.00  0.00     0.039 A 
HETATM    3  C   UNL     1       8.435  29.641  57.208  1.00  0.00     0.030 A 
HETATM    4  C   UNL     1       9.734  30.077  56.995  1.00  0.00     0.063 A 
HETATM    5  N   UNL     1      10.041  29.699  55.718  1.00  0.00    -0.277 N 
HETATM    6  H   UNL     1      10.914  29.850  55.227  1.00  0.00     0.189 HD
HETATM    7  N   UNL     1       9.050  29.058  55.075  1.00  0.00    -0.168 NA
HETATM    8  C   UNL     1       8.051  29.012  55.987  1.00  0.00     0.156 A 
HETATM    9  C   UNL     1      10.481  30.740  57.969  1.00  0.00     0.034 A 
HETATM   10  C   UNL     1       9.856  30.971  59.204  1.00  0.00     0.026 A 
ENDROOT
BRANCH   1  11
HETATM   11  N   UNL     1       7.921  30.744  60.715  1.00  0.00    -0.289 NA
HETATM   12  H   UNL     1       6.916  30.883  60.632  1.00  0.00     0.128 HD
BRANCH  11  13
HETATM   13  C   UNL     1       8.518  31.663  61.675  1.00  0.00     0.131 C 
BRANCH  13  14
HETATM   14  C   UNL     1       7.484  32.108  62.683  1.00  0.00    -0.045 A 
HETATM   15  C   UNL     1       7.876  32.791  63.845  1.00  0.00     0.011 A 
HETATM   16  C   UNL     1       6.922  33.274  64.746  1.00  0.00     0.037 A 
HETATM   17  C   UNL     1       5.564  33.084  64.490  1.00  0.00     0.068 A 
HETATM   18  C   UNL     1       5.170  32.357  63.368  1.00  0.00     0.037 A 
HETATM   19  C   UNL     1       6.121  31.875  62.465  1.00  0.00     0.011 A 
BRANCH  17  20
HETATM   20  O   UNL     1       4.547  33.550  65.279  1.00  0.00    -0.351 OA
BRANCH  20  21
HETATM   21  C   UNL     1       3.860  34.699  64.772  1.00  0.00     0.176 C 
BRANCH  21  22
HETATM   22  C   UNL     1       4.820  35.886  64.848  1.00  0.00     0.030 C 
BRANCH  22  23
HETATM   23  C   UNL     1       4.913  36.687  63.540  1.00  0.00    -0.021 C 
HETATM   24  C   UNL     1       5.694  35.939  62.458  1.00  0.00     0.009 C 
HETATM   25  C   UNL     1       5.562  38.046  63.804  1.00  0.00     0.009 C 
ENDBRANCH  22  23
ENDBRANCH  21  22
ENDBRANCH  20  21
ENDBRANCH  17  20
ENDBRANCH  13  14
ENDBRANCH  11  13
ENDBRANCH   1  11
BRANCH   8  26
HETATM   26  C   UNL     1       6.763  28.379  55.674  1.00  0.00     0.270 C 
HETATM   27  N   UNL     1       6.246  28.737  54.459  1.00  0.00    -0.365 N 
HETATM   28  H   UNL     1       6.767  29.389  53.885  1.00  0.00     0.159 HD
HETATM   29  H   UNL     1       5.363  28.357  54.157  1.00  0.00     0.159 HD
HETATM   30  O   UNL     1       6.172  27.598  56.413  1.00  0.00    -0.266 OA
ENDBRANCH   8  26
TORSDOF 8
ENDMDL
MODEL 7
REMARK VINA RESULT:      -8.1      3.393      5.044
REMARK  8 active torsions:
REMARK  status: ('A' for Active; 'I' for Inactive)
REMARK    1  A    between atoms: C_2  and  C_3 
REMARK    2  A    between atoms: C_3  and  C_4 
REMARK    3  A    between atoms: C_4  and  O_5 
REMARK    4  A    between atoms: O_5  and  C_6 
REMARK    5  A    between atoms: C_9  and  C_10 
REMARK    6  A    between atoms: C_10  and  N_11 
REMARK    7  A    between atoms: N_11  and  C_12 
REMARK    8  A    between atoms: C_19  and  C_20 
REMARK       I    between atoms: C_20  and  N_21 
ROOT
HETATM    1  C   UNL     1       6.720  26.053  54.052  1.00  0.00     0.009 A 
HETATM    2  C   UNL     1       6.461  27.215  53.300  1.00  0.00     0.039 A 
HETATM    3  C   UNL     1       5.685  27.149  52.124  1.00  0.00     0.030 A 
HETATM    4  C   UNL     1       5.151  25.926  51.746  1.00  0.00     0.063 A 
HETATM    5  N   UNL     1       4.454  26.171  50.596  1.00  0.00    -0.277 N 
HETATM    6  H   UNL     1       3.929  25.504  50.043  1.00  0.00     0.189 HD
HETATM    7  N   UNL     1       4.491  27.451  50.187  1.00  0.00    -0.168 NA
HETATM    8  C   UNL     1       5.247  28.068  51.124  1.00  0.00     0.156 A 
HETATM    9  C   UNL     1       5.342  24.756  52.481  1.00  0.00     0.034 A 
HETATM   10  C   UNL     1       6.123  24.853  53.642  1.00  0.00     0.026 A 
ENDROOT
BRANCH   1  11
HETATM   11  N   UNL     1       7.441  26.182  55.248  1.00  0.00    -0.289 NA
HETATM   12  H   UNL     1       8.132  25.442  55.357  1.00  0.00     0.128 HD
BRANCH  11  13
HETATM   13  C   UNL     1       6.708  26.425  56.483  1.00  0.00     0.131 C 
BRANCH  13  14
HETATM   14  C   UNL     1       6.952  27.836  56.965  1.00  0.00    -0.045 A 
HETATM   15  C   UNL     1       5.945  28.807  56.851  1.00  0.00     0.011 A 
HETATM   16  C   UNL     1       6.134  30.095  57.363  1.00  0.00     0.037 A 
HETATM   17  C   UNL     1       7.330  30.422  58.002  1.00  0.00     0.068 A 
HETATM   18  C   UNL     1       8.355  29.479  58.068  1.00  0.00     0.037 A 
HETATM   19  C   UNL     1       8.169  28.192  57.559  1.00  0.00     0.011 A 
BRANCH  17  20
HETATM   20  O   UNL     1       7.605  31.634  58.575  1.00  0.00    -0.351 OA
BRANCH  20  21
HETATM   21  C   UNL     1       8.792  31.674  59.375  1.00  0.00     0.176 C 
BRANCH  21  22
HETATM   22  C   UNL     1       8.489  32.516  60.614  1.00  0.00     0.030 C 
BRANCH  22  23
HETATM   23  C   UNL     1       9.079  31.937  61.910  1.00  0.00    -0.021 C 
HETATM   24  C   UNL     1       9.347  30.435  61.803  1.00  0.00     0.009 C 
HETATM   25  C   UNL     1       8.137  32.214  63.083  1.00  0.00     0.009 C 
ENDBRANCH  22  23
ENDBRANCH  21  22
ENDBRANCH  20  21
ENDBRANCH  17  20
ENDBRANCH  13  14
ENDBRANCH  11  13
ENDBRANCH   1  11
BRANCH   8  26
HETATM   26  C   UNL     1       5.536  29.506  51.045  1.00  0.00     0.270 C 
HETATM   27  N   UNL     1       5.000  30.241  52.066  1.00  0.00    -0.365 N 
HETATM   28  H   UNL     1       4.460  29.760  52.776  1.00  0.00     0.159 HD
HETATM   29  H   UNL     1       5.141  31.238  52.096  1.00  0.00     0.159 HD
HETATM   30  O   UNL     1       6.194  30.036  50.155  1.00  0.00    -0.266 OA
ENDBRANCH   8  26
TORSDOF 8
ENDMDL
MODEL 8
REMARK VINA RESULT:      -8.1      4.854      6.776
REMARK  8 active torsions:
REMARK  status: ('A' for Active; 'I' for Inactive)
REMARK    1  A    between atoms: C_2  and  C_3 
REMARK    2  A    between atoms: C_3  and  C_4 
REMARK    3  A    between atoms: C_4  and  O_5 
REMARK    4  A    between atoms: O_5  and  C_6 
REMARK    5  A    between atoms: C_9  and  C_10 
REMARK    6  A    between atoms: C_10  and  N_11 
REMARK    7  A    between atoms: N_11  and  C_12 
REMARK    8  A    between atoms: C_19  and  C_20 
REMARK       I    between atoms: C_20  and  N_21 
ROOT
HETATM    1  C   UNL     1       8.282  29.713  58.438  1.00  0.00     0.009 A 
HETATM    2  C   UNL     1       7.102  29.226  57.843  1.00  0.00     0.039 A 
HETATM    3  C   UNL     1       7.081  28.879  56.476  1.00  0.00     0.030 A 
HETATM    4  C   UNL     1       8.254  28.989  55.742  1.00  0.00     0.063 A 
HETATM    5  N   UNL     1       7.932  28.582  54.477  1.00  0.00    -0.277 N 
HETATM    6  H   UNL     1       8.549  28.527  53.676  1.00  0.00     0.189 HD
HETATM    7  N   UNL     1       6.648  28.219  54.320  1.00  0.00    -0.168 NA
HETATM    8  C   UNL     1       6.110  28.395  55.549  1.00  0.00     0.156 A 
HETATM    9  C   UNL     1       9.457  29.423  56.298  1.00  0.00     0.034 A 
HETATM   10  C   UNL     1       9.444  29.767  57.658  1.00  0.00     0.026 A 
ENDROOT
BRANCH   1  11
HETATM   11  N   UNL     1       8.269  29.981  59.815  1.00  0.00    -0.289 NA
HETATM   12  H   UNL     1       7.327  29.953  60.199  1.00  0.00     0.128 HD
BRANCH  11  13
HETATM   13  C   UNL     1       9.024  31.125  60.311  1.00  0.00     0.131 C 
BRANCH  13  14
HETATM   14  C   UNL     1       8.195  31.905  61.305  1.00  0.00    -0.045 A 
HETATM   15  C   UNL     1       6.991  32.505  60.906  1.00  0.00     0.011 A 
HETATM   16  C   UNL     1       6.179  33.163  61.835  1.00  0.00     0.037 A 
HETATM   17  C   UNL     1       6.561  33.222  63.175  1.00  0.00     0.068 A 
HETATM   18  C   UNL     1       7.784  32.678  63.568  1.00  0.00     0.037 A 
HETATM   19  C   UNL     1       8.595  32.017  62.642  1.00  0.00     0.011 A 
BRANCH  17  20
HETATM   20  O   UNL     1       5.826  33.802  64.174  1.00  0.00    -0.351 OA
BRANCH  20  21
HETATM   21  C   UNL     1       4.761  34.651  63.732  1.00  0.00     0.176 C 
BRANCH  21  22
HETATM   22  C   UNL     1       5.117  36.084  64.124  1.00  0.00     0.030 C 
BRANCH  22  23
HETATM   23  C   UNL     1       5.851  36.860  63.019  1.00  0.00    -0.021 C 
HETATM   24  C   UNL     1       6.143  38.306  63.423  1.00  0.00     0.009 C 
HETATM   25  C   UNL     1       5.028  36.837  61.729  1.00  0.00     0.009 C 
ENDBRANCH  22  23
ENDBRANCH  21  22
ENDBRANCH  20  21
ENDBRANCH  17  20
ENDBRANCH  13  14
ENDBRANCH  11  13
ENDBRANCH   1  11
BRANCH   8  26
HETATM   26  C   UNL     1       4.694  28.106  55.810  1.00  0.00     0.270 C 
HETATM   27  N   UNL     1       4.486  27.071  56.680  1.00  0.00    -0.365 N 
HETATM   28  H   UNL     1       5.293  26.594  57.065  1.00  0.00     0.159 HD
HETATM   29  H   UNL     1       3.547  26.795  56.918  1.00  0.00     0.159 HD
HETATM   30  O   UNL     1       3.754  28.715  55.308  1.00  0.00    -0.266 OA
ENDBRANCH   8  26
TORSDOF 8
ENDMDL
MODEL 9
REMARK VINA RESULT:      -8.1      5.238     11.049
REMARK  8 active torsions:
REMARK  status: ('A' for Active; 'I' for Inactive)
REMARK    1  A    between atoms: C_2  and  C_3 
REMARK    2  A    between atoms: C_3  and  C_4 
REMARK    3  A    between atoms: C_4  and  O_5 
REMARK    4  A    between atoms: O_5  and  C_6 
REMARK    5  A    between atoms: C_9  and  C_10 
REMARK    6  A    between atoms: C_10  and  N_11 
REMARK    7  A    between atoms: N_11  and  C_12 
REMARK    8  A    between atoms: C_19  and  C_20 
REMARK       I    between atoms: C_20  and  N_21 
ROOT
HETATM    1  C   UNL     1       6.959  31.980  61.537  1.00  0.00     0.009 A 
HETATM    2  C   UNL     1       5.782  32.680  61.864  1.00  0.00     0.039 A 
HETATM    3  C   UNL     1       5.659  33.330  63.110  1.00  0.00     0.030 A 
HETATM    4  C   UNL     1       6.733  33.297  63.988  1.00  0.00     0.063 A 
HETATM    5  N   UNL     1       6.329  34.005  65.085  1.00  0.00    -0.277 N 
HETATM    6  H   UNL     1       6.864  34.192  65.925  1.00  0.00     0.189 HD
HETATM    7  N   UNL     1       5.080  34.493  65.002  1.00  0.00    -0.168 NA
HETATM    8  C   UNL     1       4.654  34.086  63.785  1.00  0.00     0.156 A 
HETATM    9  C   UNL     1       7.935  32.655  63.690  1.00  0.00     0.034 A 
HETATM   10  C   UNL     1       8.024  32.013  62.446  1.00  0.00     0.026 A 
ENDROOT
BRANCH   1  11
HETATM   11  N   UNL     1       7.058  31.407  60.260  1.00  0.00    -0.289 NA
HETATM   12  H   UNL     1       6.208  30.912  59.999  1.00  0.00     0.128 HD
BRANCH  11  13
HETATM   13  C   UNL     1       8.254  30.646  59.927  1.00  0.00     0.131 C 
BRANCH  13  14
HETATM   14  C   UNL     1       8.140  30.080  58.530  1.00  0.00    -0.045 A 
HETATM   15  C   UNL     1       9.287  29.662  57.840  1.00  0.00     0.011 A 
HETATM   16  C   UNL     1       9.185  29.066  56.578  1.00  0.00     0.037 A 
HETATM   17  C   UNL     1       7.931  28.876  55.999  1.00  0.00     0.068 A 
HETATM   18  C   UNL     1       6.791  29.341  56.654  1.00  0.00     0.037 A 
HETATM   19  C   UNL     1       6.891  29.934  57.914  1.00  0.00     0.011 A 
BRANCH  17  20
HETATM   20  O   UNL     1       7.711  28.268  54.792  1.00  0.00    -0.351 OA
BRANCH  20  21
HETATM   21  C   UNL     1       6.712  27.243  54.800  1.00  0.00     0.176 C 
BRANCH  21  22
HETATM   22  C   UNL     1       7.393  25.933  55.195  1.00  0.00     0.030 C 
BRANCH  22  23
HETATM   23  C   UNL     1       6.876  25.348  56.520  1.00  0.00    -0.021 C 
HETATM   24  C   UNL     1       5.466  25.833  56.855  1.00  0.00     0.009 C 
HETATM   25  C   UNL     1       7.833  25.706  57.658  1.00  0.00     0.009 C 
ENDBRANCH  22  23
ENDBRANCH  21  22
ENDBRANCH  20  21
ENDBRANCH  17  20
ENDBRANCH  13  14
ENDBRANCH  11  13
ENDBRANCH   1  11
BRANCH   8  26
HETATM   26  C   UNL     1       3.309  34.419  63.297  1.00  0.00     0.270 C 
HETATM   27  N   UNL     1       2.440  33.362  63.291  1.00  0.00    -0.365 N 
HETATM   28  H   UNL     1       2.774  32.460  63.608  1.00  0.00     0.159 HD
HETATM   29  H   UNL     1       1.494  33.492  62.970  1.00  0.00     0.159 HD
HETATM   30  O   UNL     1       2.961  35.533  62.918  1.00  0.00    -0.266 OA
ENDBRANCH   8  26
TORSDOF 8
ENDMDL
MODEL 10
REMARK VINA RESULT:      -8.0      5.541      8.430
REMARK  8 active torsions:
REMARK  status: ('A' for Active; 'I' for Inactive)
REMARK    1  A    between atoms: C_2  and  C_3 
REMARK    2  A    between atoms: C_3  and  C_4 
REMARK    3  A    between atoms: C_4  and  O_5 
REMARK    4  A    between atoms: O_5  and  C_6 
REMARK    5  A    between atoms: C_9  and  C_10 
REMARK    6  A    between atoms: C_10  and  N_11 
REMARK    7  A    between atoms: N_11  and  C_12 
REMARK    8  A    between atoms: C_19  and  C_20 
REMARK       I    between atoms: C_20  and  N_21 
ROOT
HETATM    1  C   UNL     1       8.528  31.840  59.577  1.00  0.00     0.009 A 
HETATM    2  C   UNL     1       7.421  31.205  58.981  1.00  0.00     0.039 A 
HETATM    3  C   UNL     1       7.599  30.342  57.880  1.00  0.00     0.030 A 
HETATM    4  C   UNL     1       8.887  30.102  57.422  1.00  0.00     0.063 A 
HETATM    5  N   UNL     1       8.746  29.237  56.373  1.00  0.00    -0.277 N 
HETATM    6  H   UNL     1       9.483  28.841  55.802  1.00  0.00     0.189 HD
HETATM    7  N   UNL     1       7.475  28.895  56.102  1.00  0.00    -0.168 NA
HETATM    8  C   UNL     1       6.755  29.569  57.028  1.00  0.00     0.156 A 
HETATM    9  C   UNL     1      10.017  30.672  58.008  1.00  0.00     0.034 A 
HETATM   10  C   UNL     1       9.807  31.530  59.097  1.00  0.00     0.026 A 
ENDROOT
BRANCH   1  11
HETATM   11  N   UNL     1       8.306  32.636  60.711  1.00  0.00    -0.289 NA
HETATM   12  H   UNL     1       8.735  33.555  60.619  1.00  0.00     0.128 HD
BRANCH  11  13
HETATM   13  C   UNL     1       8.537  32.058  62.027  1.00  0.00     0.131 C 
BRANCH  13  14
HETATM   14  C   UNL     1       7.501  32.560  63.006  1.00  0.00    -0.045 A 
HETATM   15  C   UNL     1       6.134  32.394  62.737  1.00  0.00     0.011 A 
HETATM   16  C   UNL     1       5.169  32.785  63.671  1.00  0.00     0.037 A 
HETATM   17  C   UNL     1       5.564  33.340  64.888  1.00  0.00     0.068 A 
HETATM   18  C   UNL     1       6.918  33.560  65.138  1.00  0.00     0.037 A 
HETATM   19  C   UNL     1       7.883  33.168  64.208  1.00  0.00     0.011 A 
BRANCH  17  20
HETATM   20  O   UNL     1       4.710  33.718  65.889  1.00  0.00    -0.351 OA
BRANCH  20  21
HETATM   21  C   UNL     1       5.276  34.585  66.878  1.00  0.00     0.176 C 
BRANCH  21  22
HETATM   22  C   UNL     1       4.984  33.979  68.250  1.00  0.00     0.030 C 
BRANCH  22  23
HETATM   23  C   UNL     1       5.976  34.416  69.339  1.00  0.00    -0.021 C 
HETATM   24  C   UNL     1       7.337  34.805  68.760  1.00  0.00     0.009 C 
HETATM   25  C   UNL     1       6.150  33.297  70.368  1.00  0.00     0.009 C 
ENDBRANCH  22  23
ENDBRANCH  21  22
ENDBRANCH  20  21
ENDBRANCH  17  20
ENDBRANCH  13  14
ENDBRANCH  11  13
ENDBRANCH   1  11
BRANCH   8  26
HETATM   26  C   UNL     1       5.290  29.466  57.077  1.00  0.00     0.270 C 
HETATM   27  N   UNL     1       4.831  28.270  57.556  1.00  0.00    -0.365 N 
HETATM   28  H   UNL     1       5.507  27.567  57.829  1.00  0.00     0.159 HD
HETATM   29  H   UNL     1       3.839  28.104  57.623  1.00  0.00     0.159 HD
HETATM   30  O   UNL     1       4.517  30.352  56.725  1.00  0.00    -0.266 OA
ENDBRANCH   8  26
TORSDOF 8
ENDMDL
