MODEL 1
REMARK VINA RESULT:     -10.4      0.000      0.000
REMARK  6 active torsions:
REMARK  status: ('A' for Active; 'I' for Inactive)
REMARK    1  A    between atoms: O_2  and  C_3 
REMARK    2  A    between atoms: C_6  and  C_7 
REMARK    3  A    between atoms: C_12  and  C_13 
REMARK       I    between atoms: C_13  and  N_14 
REMARK    4  A    between atoms: N_14  and  C_15 
REMARK    5  A    between atoms: C_15  and  C_16 
REMARK    6  A    between atoms: C_24  and  C_25 
ROOT
HETATM    1  C   UNL     1       6.427  26.401  54.652  1.00  0.00     0.118 C 
HETATM    2  N   UNL     1       7.528  27.355  54.798  1.00  0.00    -0.366 N 
HETATM    3  C   UNL     1       7.649  28.149  55.880  1.00  0.00     0.123 A 
HETATM    4  N   UNL     1       6.579  28.391  56.692  1.00  0.00    -0.240 N 
HETATM    5  N   UNL     1       6.882  29.078  57.807  1.00  0.00    -0.165 NA
HETATM    6  C   UNL     1       8.191  29.386  57.635  1.00  0.00     0.148 A 
HETATM    7  C   UNL     1       8.698  28.838  56.424  1.00  0.00     0.088 A 
HETATM    8  C   UNL     1       5.273  27.813  56.462  1.00  0.00     0.221 C 
HETATM    9  C   UNL     1       5.456  26.414  55.857  1.00  0.00     0.066 C 
HETATM   10  H   UNL     1       8.343  27.153  54.218  1.00  0.00     0.161 HD
ENDROOT
BRANCH   6  11
HETATM   11  C   UNL     1       8.949  30.160  58.628  1.00  0.00     0.272 C 
HETATM   12  N   UNL     1       8.404  30.104  59.887  1.00  0.00    -0.351 N 
HETATM   13  H   UNL     1       7.612  29.478  60.003  1.00  0.00     0.163 HD
HETATM   14  O   UNL     1       9.974  30.777  58.355  1.00  0.00    -0.266 OA
BRANCH  12  15
HETATM   15  C   UNL     1       9.033  30.714  61.025  1.00  0.00     0.161 C 
BRANCH  15  16
HETATM   16  C   UNL     1       8.142  31.757  61.646  1.00  0.00    -0.041 A 
HETATM   17  C   UNL     1       7.109  32.351  60.909  1.00  0.00     0.009 A 
HETATM   18  C   UNL     1       6.284  33.313  61.494  1.00  0.00     0.001 A 
HETATM   19  C   UNL     1       6.481  33.688  62.822  1.00  0.00     0.000 A 
HETATM   20  C   UNL     1       7.500  33.101  63.568  1.00  0.00     0.001 A 
HETATM   21  C   UNL     1       8.324  32.136  62.986  1.00  0.00     0.009 A 
ENDBRANCH  15  16
ENDBRANCH  12  15
ENDBRANCH   6  11
BRANCH   8  22
HETATM   22  C   UNL     1       4.438  28.722  55.591  1.00  0.00     0.409 C 
HETATM   23  F   UNL     1       5.160  29.730  55.057  1.00  0.00    -0.169 F 
HETATM   24  F   UNL     1       3.809  28.082  54.583  1.00  0.00    -0.169 F 
HETATM   25  F   UNL     1       3.465  29.302  56.344  1.00  0.00    -0.169 F 
ENDBRANCH   8  22
BRANCH   1  26
HETATM   26  C   UNL     1       7.024  25.017  54.452  1.00  0.00    -0.035 A 
HETATM   27  C   UNL     1       7.433  24.589  53.176  1.00  0.00     0.012 A 
HETATM   28  C   UNL     1       7.988  23.323  52.981  1.00  0.00     0.037 A 
HETATM   29  C   UNL     1       8.136  22.453  54.058  1.00  0.00     0.068 A 
HETATM   30  C   UNL     1       7.701  22.855  55.323  1.00  0.00     0.037 A 
HETATM   31  C   UNL     1       7.153  24.127  55.524  1.00  0.00     0.012 A 
BRANCH  29  32
HETATM   32  O   UNL     1       8.666  21.194  54.000  1.00  0.00    -0.356 OA
HETATM   33  C   UNL     1       8.382  20.441  52.826  1.00  0.00     0.210 C 
ENDBRANCH  29  32
ENDBRANCH   1  26
TORSDOF 6
ENDMDL
MODEL 2
REMARK VINA RESULT:      -9.5      2.372      3.483
REMARK  6 active torsions:
REMARK  status: ('A' for Active; 'I' for Inactive)
REMARK    1  A    between atoms: O_2  and  C_3 
REMARK    2  A    between atoms: C_6  and  C_7 
REMARK    3  A    between atoms: C_12  and  C_13 
REMARK       I    between atoms: C_13  and  N_14 
REMARK    4  A    between atoms: N_14  and  C_15 
REMARK    5  A    between atoms: C_15  and  C_16 
REMARK    6  A    between atoms: C_24  and  C_25 
ROOT
HETATM    1  C   UNL     1       6.770  25.315  52.931  1.00  0.00     0.118 C 
HETATM    2  N   UNL     1       7.282  26.399  53.772  1.00  0.00    -0.366 N 
HETATM    3  C   UNL     1       6.466  27.306  54.345  1.00  0.00     0.123 A 
HETATM    4  N   UNL     1       5.200  27.504  53.876  1.00  0.00    -0.240 N 
HETATM    5  N   UNL     1       4.458  28.329  54.633  1.00  0.00    -0.165 NA
HETATM    6  C   UNL     1       5.337  28.767  55.567  1.00  0.00     0.148 A 
HETATM    7  C   UNL     1       6.614  28.162  55.401  1.00  0.00     0.088 A 
HETATM    8  C   UNL     1       4.651  26.758  52.763  1.00  0.00     0.221 C 
HETATM    9  C   UNL     1       5.229  25.337  52.794  1.00  0.00     0.066 C 
HETATM   10  H   UNL     1       8.214  26.235  54.153  1.00  0.00     0.161 HD
ENDROOT
BRANCH   6  11
HETATM   11  C   UNL     1       4.951  29.719  56.618  1.00  0.00     0.272 C 
HETATM   12  N   UNL     1       6.024  30.353  57.193  1.00  0.00    -0.351 N 
HETATM   13  H   UNL     1       6.931  30.163  56.775  1.00  0.00     0.163 HD
HETATM   14  O   UNL     1       3.784  29.933  56.932  1.00  0.00    -0.266 OA
BRANCH  12  15
HETATM   15  C   UNL     1       5.870  31.388  58.177  1.00  0.00     0.161 C 
BRANCH  15  16
HETATM   16  C   UNL     1       7.075  31.468  59.076  1.00  0.00    -0.041 A 
HETATM   17  C   UNL     1       7.137  32.408  60.112  1.00  0.00     0.009 A 
HETATM   18  C   UNL     1       8.255  32.472  60.945  1.00  0.00     0.001 A 
HETATM   19  C   UNL     1       9.321  31.595  60.752  1.00  0.00     0.000 A 
HETATM   20  C   UNL     1       9.270  30.652  59.728  1.00  0.00     0.001 A 
HETATM   21  C   UNL     1       8.151  30.583  58.898  1.00  0.00     0.009 A 
ENDBRANCH  15  16
ENDBRANCH  12  15
ENDBRANCH   6  11
BRANCH   8  22
HETATM   22  C   UNL     1       4.924  27.473  51.461  1.00  0.00     0.409 C 
HETATM   23  F   UNL     1       5.904  28.396  51.575  1.00  0.00    -0.169 F 
HETATM   24  F   UNL     1       5.250  26.647  50.445  1.00  0.00    -0.169 F 
HETATM   25  F   UNL     1       3.808  28.143  51.069  1.00  0.00    -0.169 F 
ENDBRANCH   8  22
BRANCH   1  26
HETATM   26  C   UNL     1       7.243  23.996  53.522  1.00  0.00    -0.035 A 
HETATM   27  C   UNL     1       7.150  23.755  54.905  1.00  0.00     0.012 A 
HETATM   28  C   UNL     1       7.576  22.545  55.458  1.00  0.00     0.037 A 
HETATM   29  C   UNL     1       8.115  21.555  54.640  1.00  0.00     0.068 A 
HETATM   30  C   UNL     1       8.244  21.798  53.271  1.00  0.00     0.037 A 
HETATM   31  C   UNL     1       7.809  23.006  52.711  1.00  0.00     0.012 A 
BRANCH  29  32
HETATM   32  O   UNL     1       8.562  20.332  55.057  1.00  0.00    -0.356 OA
HETATM   33  C   UNL     1       9.069  20.263  56.385  1.00  0.00     0.210 C 
ENDBRANCH  29  32
ENDBRANCH   1  26
TORSDOF 6
ENDMDL
MODEL 3
REMARK VINA RESULT:      -9.3      4.890      8.903
REMARK  6 active torsions:
REMARK  status: ('A' for Active; 'I' for Inactive)
REMARK    1  A    between atoms: O_2  and  C_3 
REMARK    2  A    between atoms: C_6  and  C_7 
REMARK    3  A    between atoms: C_12  and  C_13 
REMARK       I    between atoms: C_13  and  N_14 
REMARK    4  A    between atoms: N_14  and  C_15 
REMARK    5  A    between atoms: C_15  and  C_16 
REMARK    6  A    between atoms: C_24  and  C_25 
ROOT
HETATM    1  C   UNL     1       5.992  25.655  55.371  1.00  0.00     0.118 C 
HETATM    2  N   UNL     1       5.247  25.533  54.116  1.00  0.00    -0.366 N 
HETATM    3  C   UNL     1       5.316  26.468  53.149  1.00  0.00     0.123 A 
HETATM    4  N   UNL     1       5.753  27.731  53.426  1.00  0.00    -0.240 N 
HETATM    5  N   UNL     1       5.907  28.509  52.341  1.00  0.00    -0.165 NA
HETATM    6  C   UNL     1       5.433  27.734  51.335  1.00  0.00     0.148 A 
HETATM    7  C   UNL     1       5.031  26.454  51.811  1.00  0.00     0.088 A 
HETATM    8  C   UNL     1       6.179  28.140  54.748  1.00  0.00     0.221 C 
HETATM    9  C   UNL     1       6.846  26.944  55.440  1.00  0.00     0.066 C 
HETATM   10  H   UNL     1       4.951  24.582  53.890  1.00  0.00     0.161 HD
ENDROOT
BRANCH   6  11
HETATM   11  C   UNL     1       5.397  28.198  49.941  1.00  0.00     0.272 C 
HETATM   12  N   UNL     1       5.118  27.197  49.046  1.00  0.00    -0.351 N 
HETATM   13  H   UNL     1       4.886  26.292  49.446  1.00  0.00     0.163 HD
HETATM   14  O   UNL     1       5.581  29.369  49.621  1.00  0.00    -0.266 OA
BRANCH  12  15
HETATM   15  C   UNL     1       4.945  27.446  47.642  1.00  0.00     0.161 C 
BRANCH  15  16
HETATM   16  C   UNL     1       3.503  27.729  47.312  1.00  0.00    -0.041 A 
HETATM   17  C   UNL     1       2.571  26.688  47.212  1.00  0.00     0.009 A 
HETATM   18  C   UNL     1       1.235  26.960  46.912  1.00  0.00     0.001 A 
HETATM   19  C   UNL     1       0.818  28.274  46.710  1.00  0.00     0.000 A 
HETATM   20  C   UNL     1       1.733  29.319  46.812  1.00  0.00     0.001 A 
HETATM   21  C   UNL     1       3.068  29.050  47.117  1.00  0.00     0.009 A 
ENDBRANCH  15  16
ENDBRANCH  12  15
ENDBRANCH   6  11
BRANCH   8  22
HETATM   22  C   UNL     1       5.012  28.694  55.531  1.00  0.00     0.409 C 
HETATM   23  F   UNL     1       5.003  28.268  56.813  1.00  0.00    -0.169 F 
HETATM   24  F   UNL     1       4.956  30.042  55.542  1.00  0.00    -0.169 F 
HETATM   25  F   UNL     1       3.848  28.265  54.974  1.00  0.00    -0.169 F 
ENDBRANCH   8  22
BRANCH   1  26
HETATM   26  C   UNL     1       6.865  24.419  55.523  1.00  0.00    -0.035 A 
HETATM   27  C   UNL     1       7.550  24.167  56.726  1.00  0.00     0.012 A 
HETATM   28  C   UNL     1       8.349  23.033  56.879  1.00  0.00     0.037 A 
HETATM   29  C   UNL     1       8.490  22.131  55.827  1.00  0.00     0.068 A 
HETATM   30  C   UNL     1       7.842  22.389  54.617  1.00  0.00     0.037 A 
HETATM   31  C   UNL     1       7.032  23.520  54.463  1.00  0.00     0.012 A 
BRANCH  29  32
HETATM   32  O   UNL     1       9.236  20.986  55.853  1.00  0.00    -0.356 OA
HETATM   33  C   UNL     1       8.859  19.964  54.937  1.00  0.00     0.210 C 
ENDBRANCH  29  32
ENDBRANCH   1  26
TORSDOF 6
ENDMDL
MODEL 4
REMARK VINA RESULT:      -9.3      4.531      7.753
REMARK  6 active torsions:
REMARK  status: ('A' for Active; 'I' for Inactive)
REMARK    1  A    between atoms: O_2  and  C_3 
REMARK    2  A    between atoms: C_6  and  C_7 
REMARK    3  A    between atoms: C_12  and  C_13 
REMARK       I    between atoms: C_13  and  N_14 
REMARK    4  A    between atoms: N_14  and  C_15 
REMARK    5  A    between atoms: C_15  and  C_16 
REMARK    6  A    between atoms: C_24  and  C_25 
ROOT
HETATM    1  C   UNL     1       4.757  29.092  52.234  1.00  0.00     0.118 C 
HETATM    2  N   UNL     1       6.110  28.742  52.671  1.00  0.00    -0.366 N 
HETATM    3  C   UNL     1       6.348  28.159  53.863  1.00  0.00     0.123 A 
HETATM    4  N   UNL     1       5.427  28.219  54.868  1.00  0.00    -0.240 N 
HETATM    5  N   UNL     1       5.738  27.473  55.942  1.00  0.00    -0.165 NA
HETATM    6  C   UNL     1       6.976  27.008  55.647  1.00  0.00     0.148 A 
HETATM    7  C   UNL     1       7.401  27.440  54.359  1.00  0.00     0.088 A 
HETATM    8  C   UNL     1       4.150  28.884  54.721  1.00  0.00     0.221 C 
HETATM    9  C   UNL     1       3.673  28.716  53.273  1.00  0.00     0.066 C 
HETATM   10  H   UNL     1       6.791  28.661  51.916  1.00  0.00     0.161 HD
ENDROOT
BRANCH   6  11
HETATM   11  C   UNL     1       7.725  26.141  56.568  1.00  0.00     0.272 C 
HETATM   12  N   UNL     1       7.770  24.831  56.159  1.00  0.00    -0.351 N 
HETATM   13  H   UNL     1       7.369  24.635  55.246  1.00  0.00     0.163 HD
HETATM   14  O   UNL     1       8.266  26.556  57.588  1.00  0.00    -0.266 OA
BRANCH  12  15
HETATM   15  C   UNL     1       8.525  23.831  56.861  1.00  0.00     0.161 C 
BRANCH  15  16
HETATM   16  C   UNL     1       8.536  22.528  56.107  1.00  0.00    -0.041 A 
HETATM   17  C   UNL     1       8.425  21.306  56.783  1.00  0.00     0.009 A 
HETATM   18  C   UNL     1       8.431  20.102  56.076  1.00  0.00     0.001 A 
HETATM   19  C   UNL     1       8.545  20.109  54.688  1.00  0.00     0.000 A 
HETATM   20  C   UNL     1       8.650  21.317  54.003  1.00  0.00     0.001 A 
HETATM   21  C   UNL     1       8.640  22.521  54.707  1.00  0.00     0.009 A 
ENDBRANCH  15  16
ENDBRANCH  12  15
ENDBRANCH   6  11
BRANCH   8  22
HETATM   22  C   UNL     1       4.256  30.332  55.139  1.00  0.00     0.409 C 
HETATM   23  F   UNL     1       3.464  30.624  56.193  1.00  0.00    -0.169 F 
HETATM   24  F   UNL     1       5.512  30.718  55.443  1.00  0.00    -0.169 F 
HETATM   25  F   UNL     1       3.845  31.129  54.117  1.00  0.00    -0.169 F 
ENDBRANCH   8  22
BRANCH   1  26
HETATM   26  C   UNL     1       4.497  28.400  50.905  1.00  0.00    -0.035 A 
HETATM   27  C   UNL     1       3.519  28.890  50.020  1.00  0.00     0.012 A 
HETATM   28  C   UNL     1       3.275  28.267  48.795  1.00  0.00     0.037 A 
HETATM   29  C   UNL     1       3.998  27.132  48.433  1.00  0.00     0.068 A 
HETATM   30  C   UNL     1       4.947  26.618  49.319  1.00  0.00     0.037 A 
HETATM   31  C   UNL     1       5.201  27.246  50.544  1.00  0.00     0.012 A 
BRANCH  29  32
HETATM   32  O   UNL     1       3.858  26.436  47.265  1.00  0.00    -0.356 OA
HETATM   33  C   UNL     1       2.723  25.583  47.168  1.00  0.00     0.210 C 
ENDBRANCH  29  32
ENDBRANCH   1  26
TORSDOF 6
ENDMDL
MODEL 5
REMARK VINA RESULT:      -9.2      1.075      1.641
REMARK  6 active torsions:
REMARK  status: ('A' for Active; 'I' for Inactive)
REMARK    1  A    between atoms: O_2  and  C_3 
REMARK    2  A    between atoms: C_6  and  C_7 
REMARK    3  A    between atoms: C_12  and  C_13 
REMARK       I    between atoms: C_13  and  N_14 
REMARK    4  A    between atoms: N_14  and  C_15 
REMARK    5  A    between atoms: C_15  and  C_16 
REMARK    6  A    between atoms: C_24  and  C_25 
ROOT
HETATM    1  C   UNL     1       6.565  26.393  54.203  1.00  0.00     0.118 C 
HETATM    2  N   UNL     1       7.577  27.372  54.604  1.00  0.00    -0.366 N 
HETATM    3  C   UNL     1       7.432  28.144  55.699  1.00  0.00     0.123 A 
HETATM    4  N   UNL     1       6.203  28.338  56.260  1.00  0.00    -0.240 N 
HETATM    5  N   UNL     1       6.232  29.007  57.426  1.00  0.00    -0.165 NA
HETATM    6  C   UNL     1       7.537  29.354  57.551  1.00  0.00     0.148 A 
HETATM    7  C   UNL     1       8.314  28.848  56.472  1.00  0.00     0.088 A 
HETATM    8  C   UNL     1       4.998  27.729  55.739  1.00  0.00     0.221 C 
HETATM    9  C   UNL     1       5.354  26.351  55.166  1.00  0.00     0.066 C 
HETATM   10  H   UNL     1       8.506  27.206  54.214  1.00  0.00     0.161 HD
ENDROOT
BRANCH   6  11
HETATM   11  C   UNL     1       8.034  30.125  58.699  1.00  0.00     0.272 C 
HETATM   12  N   UNL     1       7.516  31.395  58.761  1.00  0.00    -0.351 N 
HETATM   13  H   UNL     1       6.800  31.619  58.075  1.00  0.00     0.163 HD
HETATM   14  O   UNL     1       8.818  29.667  59.524  1.00  0.00    -0.266 OA
BRANCH  12  15
HETATM   15  C   UNL     1       7.797  32.288  59.850  1.00  0.00     0.161 C 
BRANCH  15  16
HETATM   16  C   UNL     1       6.634  32.365  60.804  1.00  0.00    -0.041 A 
HETATM   17  C   UNL     1       5.347  32.671  60.344  1.00  0.00     0.009 A 
HETATM   18  C   UNL     1       4.274  32.735  61.235  1.00  0.00     0.001 A 
HETATM   19  C   UNL     1       4.477  32.492  62.592  1.00  0.00     0.000 A 
HETATM   20  C   UNL     1       5.751  32.182  63.061  1.00  0.00     0.001 A 
HETATM   21  C   UNL     1       6.824  32.113  62.173  1.00  0.00     0.009 A 
ENDBRANCH  15  16
ENDBRANCH  12  15
ENDBRANCH   6  11
BRANCH   8  22
HETATM   22  C   UNL     1       4.346  28.636  54.721  1.00  0.00     0.409 C 
HETATM   23  F   UNL     1       3.635  27.949  53.800  1.00  0.00    -0.169 F 
HETATM   24  F   UNL     1       3.532  29.565  55.264  1.00  0.00    -0.169 F 
HETATM   25  F   UNL     1       5.306  29.316  54.039  1.00  0.00    -0.169 F 
ENDBRANCH   8  22
BRANCH   1  26
HETATM   26  C   UNL     1       7.236  25.030  54.117  1.00  0.00    -0.035 A 
HETATM   27  C   UNL     1       7.783  24.426  55.263  1.00  0.00     0.012 A 
HETATM   28  C   UNL     1       8.396  23.173  55.197  1.00  0.00     0.037 A 
HETATM   29  C   UNL     1       8.485  22.503  53.979  1.00  0.00     0.068 A 
HETATM   30  C   UNL     1       7.975  23.110  52.829  1.00  0.00     0.037 A 
HETATM   31  C   UNL     1       7.351  24.361  52.893  1.00  0.00     0.012 A 
BRANCH  29  32
HETATM   32  O   UNL     1       9.053  21.275  53.784  1.00  0.00    -0.356 OA
HETATM   33  C   UNL     1       8.414  20.425  52.839  1.00  0.00     0.210 C 
ENDBRANCH  29  32
ENDBRANCH   1  26
TORSDOF 6
ENDMDL
MODEL 6
REMARK VINA RESULT:      -9.2      3.367      4.268
REMARK  6 active torsions:
REMARK  status: ('A' for Active; 'I' for Inactive)
REMARK    1  A    between atoms: O_2  and  C_3 
REMARK    2  A    between atoms: C_6  and  C_7 
REMARK    3  A    between atoms: C_12  and  C_13 
REMARK       I    between atoms: C_13  and  N_14 
REMARK    4  A    between atoms: N_14  and  C_15 
REMARK    5  A    between atoms: C_15  and  C_16 
REMARK    6  A    between atoms: C_24  and  C_25 
ROOT
HETATM    1  C   UNL     1       5.403  26.157  54.124  1.00  0.00     0.118 C 
HETATM    2  N   UNL     1       4.934  27.236  54.997  1.00  0.00    -0.366 N 
HETATM    3  C   UNL     1       5.763  27.889  55.835  1.00  0.00     0.123 A 
HETATM    4  N   UNL     1       6.959  27.344  56.201  1.00  0.00    -0.240 N 
HETATM    5  N   UNL     1       7.740  28.169  56.920  1.00  0.00    -0.165 NA
HETATM    6  C   UNL     1       6.948  29.251  57.117  1.00  0.00     0.148 A 
HETATM    7  C   UNL     1       5.690  29.099  56.469  1.00  0.00     0.088 A 
HETATM    8  C   UNL     1       7.419  26.062  55.713  1.00  0.00     0.221 C 
HETATM    9  C   UNL     1       6.917  25.876  54.275  1.00  0.00     0.066 C 
HETATM   10  H   UNL     1       4.057  27.668  54.702  1.00  0.00     0.161 HD
ENDROOT
BRANCH   6  11
HETATM   11  C   UNL     1       7.399  30.422  57.883  1.00  0.00     0.272 C 
HETATM   12  N   UNL     1       8.708  30.331  58.285  1.00  0.00    -0.351 N 
HETATM   13  H   UNL     1       9.227  29.528  57.940  1.00  0.00     0.163 HD
HETATM   14  O   UNL     1       6.678  31.386  58.118  1.00  0.00    -0.266 OA
BRANCH  12  15
HETATM   15  C   UNL     1       9.379  31.403  58.967  1.00  0.00     0.161 C 
BRANCH  15  16
HETATM   16  C   UNL     1       8.910  31.519  60.393  1.00  0.00    -0.041 A 
HETATM   17  C   UNL     1       8.198  32.646  60.825  1.00  0.00     0.009 A 
HETATM   18  C   UNL     1       7.761  32.743  62.147  1.00  0.00     0.001 A 
HETATM   19  C   UNL     1       8.030  31.716  63.049  1.00  0.00     0.000 A 
HETATM   20  C   UNL     1       8.732  30.588  62.631  1.00  0.00     0.001 A 
HETATM   21  C   UNL     1       9.166  30.486  61.309  1.00  0.00     0.009 A 
ENDBRANCH  15  16
ENDBRANCH  12  15
ENDBRANCH   6  11
BRANCH   8  22
HETATM   22  C   UNL     1       6.972  24.953  56.637  1.00  0.00     0.409 C 
HETATM   23  F   UNL     1       7.947  24.566  57.487  1.00  0.00    -0.169 F 
HETATM   24  F   UNL     1       5.881  25.262  57.369  1.00  0.00    -0.169 F 
HETATM   25  F   UNL     1       6.644  23.857  55.902  1.00  0.00    -0.169 F 
ENDBRANCH   8  22
BRANCH   1  26
HETATM   26  C   UNL     1       5.060  26.529  52.690  1.00  0.00    -0.035 A 
HETATM   27  C   UNL     1       5.283  25.619  51.640  1.00  0.00     0.012 A 
HETATM   28  C   UNL     1       4.968  25.946  50.320  1.00  0.00     0.037 A 
HETATM   29  C   UNL     1       4.433  27.197  50.020  1.00  0.00     0.068 A 
HETATM   30  C   UNL     1       4.240  28.120  51.051  1.00  0.00     0.037 A 
HETATM   31  C   UNL     1       4.546  27.791  52.376  1.00  0.00     0.012 A 
BRANCH  29  32
HETATM   32  O   UNL     1       4.079  27.635  48.774  1.00  0.00    -0.356 OA
HETATM   33  C   UNL     1       4.261  26.715  47.704  1.00  0.00     0.210 C 
ENDBRANCH  29  32
ENDBRANCH   1  26
TORSDOF 6
ENDMDL
MODEL 7
REMARK VINA RESULT:      -9.1      4.344      8.442
REMARK  6 active torsions:
REMARK  status: ('A' for Active; 'I' for Inactive)
REMARK    1  A    between atoms: O_2  and  C_3 
REMARK    2  A    between atoms: C_6  and  C_7 
REMARK    3  A    between atoms: C_12  and  C_13 
REMARK       I    between atoms: C_13  and  N_14 
REMARK    4  A    between atoms: N_14  and  C_15 
REMARK    5  A    between atoms: C_15  and  C_16 
REMARK    6  A    between atoms: C_24  and  C_25 
ROOT
HETATM    1  C   UNL     1       6.708  25.701  55.965  1.00  0.00     0.118 C 
HETATM    2  N   UNL     1       5.393  25.826  55.331  1.00  0.00    -0.366 N 
HETATM    3  C   UNL     1       5.033  26.927  54.643  1.00  0.00     0.123 A 
HETATM    4  N   UNL     1       5.690  28.110  54.820  1.00  0.00    -0.240 N 
HETATM    5  N   UNL     1       5.318  29.077  53.964  1.00  0.00    -0.165 NA
HETATM    6  C   UNL     1       4.291  28.511  53.285  1.00  0.00     0.148 A 
HETATM    7  C   UNL     1       4.069  27.169  53.703  1.00  0.00     0.088 A 
HETATM    8  C   UNL     1       6.806  28.257  55.729  1.00  0.00     0.221 C 
HETATM    9  C   UNL     1       7.602  26.945  55.746  1.00  0.00     0.066 C 
HETATM   10  H   UNL     1       4.917  24.939  55.165  1.00  0.00     0.161 HD
ENDROOT
BRANCH   6  11
HETATM   11  C   UNL     1       3.558  29.231  52.234  1.00  0.00     0.272 C 
HETATM   12  N   UNL     1       3.393  28.493  51.089  1.00  0.00    -0.351 N 
HETATM   13  H   UNL     1       3.709  27.528  51.130  1.00  0.00     0.163 HD
HETATM   14  O   UNL     1       3.126  30.371  52.380  1.00  0.00    -0.266 OA
BRANCH  12  15
HETATM   15  C   UNL     1       2.629  28.969  49.970  1.00  0.00     0.161 C 
BRANCH  15  16
HETATM   16  C   UNL     1       2.553  27.932  48.881  1.00  0.00    -0.041 A 
HETATM   17  C   UNL     1       1.476  27.908  47.985  1.00  0.00     0.009 A 
HETATM   18  C   UNL     1       1.417  26.946  46.975  1.00  0.00     0.001 A 
HETATM   19  C   UNL     1       2.433  26.001  46.850  1.00  0.00     0.000 A 
HETATM   20  C   UNL     1       3.512  26.017  47.731  1.00  0.00     0.001 A 
HETATM   21  C   UNL     1       3.575  26.980  48.738  1.00  0.00     0.009 A 
ENDBRANCH  15  16
ENDBRANCH  12  15
ENDBRANCH   6  11
BRANCH   8  22
HETATM   22  C   UNL     1       6.322  28.665  57.100  1.00  0.00     0.409 C 
HETATM   23  F   UNL     1       6.327  30.005  57.271  1.00  0.00    -0.169 F 
HETATM   24  F   UNL     1       5.085  28.214  57.396  1.00  0.00    -0.169 F 
HETATM   25  F   UNL     1       7.154  28.153  58.046  1.00  0.00    -0.169 F 
ENDBRANCH   8  22
BRANCH   1  26
HETATM   26  C   UNL     1       7.377  24.449  55.419  1.00  0.00    -0.035 A 
HETATM   27  C   UNL     1       8.110  23.600  56.267  1.00  0.00     0.012 A 
HETATM   28  C   UNL     1       8.724  22.445  55.779  1.00  0.00     0.037 A 
HETATM   29  C   UNL     1       8.628  22.121  54.427  1.00  0.00     0.068 A 
HETATM   30  C   UNL     1       7.932  22.977  53.570  1.00  0.00     0.037 A 
HETATM   31  C   UNL     1       7.306  24.130  54.058  1.00  0.00     0.012 A 
BRANCH  29  32
HETATM   32  O   UNL     1       9.177  21.022  53.829  1.00  0.00    -0.356 OA
HETATM   33  C   UNL     1       8.384  20.378  52.839  1.00  0.00     0.210 C 
ENDBRANCH  29  32
ENDBRANCH   1  26
TORSDOF 6
ENDMDL
MODEL 8
REMARK VINA RESULT:      -9.1      3.179      4.457
REMARK  6 active torsions:
REMARK  status: ('A' for Active; 'I' for Inactive)
REMARK    1  A    between atoms: O_2  and  C_3 
REMARK    2  A    between atoms: C_6  and  C_7 
REMARK    3  A    between atoms: C_12  and  C_13 
REMARK       I    between atoms: C_13  and  N_14 
REMARK    4  A    between atoms: N_14  and  C_15 
REMARK    5  A    between atoms: C_15  and  C_16 
REMARK    6  A    between atoms: C_24  and  C_25 
ROOT
HETATM    1  C   UNL     1       5.428  26.738  54.993  1.00  0.00     0.118 C 
HETATM    2  N   UNL     1       5.292  27.710  56.080  1.00  0.00    -0.366 N 
HETATM    3  C   UNL     1       6.348  28.119  56.810  1.00  0.00     0.123 A 
HETATM    4  N   UNL     1       7.500  27.387  56.845  1.00  0.00    -0.240 N 
HETATM    5  N   UNL     1       8.512  27.989  57.493  1.00  0.00    -0.165 NA
HETATM    6  C   UNL     1       7.937  29.110  57.992  1.00  0.00     0.148 A 
HETATM    7  C   UNL     1       6.572  29.211  57.603  1.00  0.00     0.088 A 
HETATM    8  C   UNL     1       7.669  26.155  56.105  1.00  0.00     0.221 C 
HETATM    9  C   UNL     1       6.887  26.263  54.789  1.00  0.00     0.066 C 
HETATM   10  H   UNL     1       4.449  28.283  56.033  1.00  0.00     0.161 HD
ENDROOT
BRANCH   6  11
HETATM   11  C   UNL     1       8.689  30.082  58.799  1.00  0.00     0.272 C 
HETATM   12  N   UNL     1       8.368  30.039  60.133  1.00  0.00    -0.351 N 
HETATM   13  H   UNL     1       7.731  29.300  60.415  1.00  0.00     0.163 HD
HETATM   14  O   UNL     1       9.530  30.838  58.323  1.00  0.00    -0.266 OA
BRANCH  12  15
HETATM   15  C   UNL     1       9.047  30.840  61.113  1.00  0.00     0.161 C 
BRANCH  15  16
HETATM   16  C   UNL     1       8.114  31.842  61.739  1.00  0.00    -0.041 A 
HETATM   17  C   UNL     1       7.061  32.401  61.003  1.00  0.00     0.009 A 
HETATM   18  C   UNL     1       6.197  33.326  61.593  1.00  0.00     0.001 A 
HETATM   19  C   UNL     1       6.377  33.699  62.923  1.00  0.00     0.000 A 
HETATM   20  C   UNL     1       7.417  33.148  63.667  1.00  0.00     0.001 A 
HETATM   21  C   UNL     1       8.278  32.220  63.081  1.00  0.00     0.009 A 
ENDBRANCH  15  16
ENDBRANCH  12  15
ENDBRANCH   6  11
BRANCH   8  22
HETATM   22  C   UNL     1       7.245  24.972  56.943  1.00  0.00     0.409 C 
HETATM   23  F   UNL     1       6.662  24.001  56.206  1.00  0.00    -0.169 F 
HETATM   24  F   UNL     1       8.253  24.413  57.643  1.00  0.00    -0.169 F 
HETATM   25  F   UNL     1       6.318  25.371  57.854  1.00  0.00    -0.169 F 
ENDBRANCH   8  22
BRANCH   1  26
HETATM   26  C   UNL     1       4.883  27.373  53.722  1.00  0.00    -0.035 A 
HETATM   27  C   UNL     1       3.824  28.297  53.779  1.00  0.00     0.012 A 
HETATM   28  C   UNL     1       3.318  28.891  52.621  1.00  0.00     0.037 A 
HETATM   29  C   UNL     1       3.855  28.563  51.378  1.00  0.00     0.068 A 
HETATM   30  C   UNL     1       4.884  27.620  51.308  1.00  0.00     0.037 A 
HETATM   31  C   UNL     1       5.399  27.031  52.468  1.00  0.00     0.012 A 
BRANCH  29  32
HETATM   32  O   UNL     1       3.454  29.075  50.176  1.00  0.00    -0.356 OA
HETATM   33  C   UNL     1       2.065  29.351  50.038  1.00  0.00     0.210 C 
ENDBRANCH  29  32
ENDBRANCH   1  26
TORSDOF 6
ENDMDL
MODEL 9
REMARK VINA RESULT:      -8.8      5.908      8.893
REMARK  6 active torsions:
REMARK  status: ('A' for Active; 'I' for Inactive)
REMARK    1  A    between atoms: O_2  and  C_3 
REMARK    2  A    between atoms: C_6  and  C_7 
REMARK    3  A    between atoms: C_12  and  C_13 
REMARK       I    between atoms: C_13  and  N_14 
REMARK    4  A    between atoms: N_14  and  C_15 
REMARK    5  A    between atoms: C_15  and  C_16 
REMARK    6  A    between atoms: C_24  and  C_25 
ROOT
HETATM    1  C   UNL     1       5.525  25.568  53.698  1.00  0.00     0.118 C 
HETATM    2  N   UNL     1       4.864  25.336  52.412  1.00  0.00    -0.366 N 
HETATM    3  C   UNL     1       4.850  26.265  51.437  1.00  0.00     0.123 A 
HETATM    4  N   UNL     1       5.096  27.578  51.718  1.00  0.00    -0.240 N 
HETATM    5  N   UNL     1       5.193  28.362  50.631  1.00  0.00    -0.165 NA
HETATM    6  C   UNL     1       4.877  27.523  49.615  1.00  0.00     0.148 A 
HETATM    7  C   UNL     1       4.632  26.203  50.088  1.00  0.00     0.088 A 
HETATM    8  C   UNL     1       5.398  28.051  53.052  1.00  0.00     0.221 C 
HETATM    9  C   UNL     1       6.189  26.962  53.790  1.00  0.00     0.066 C 
HETATM   10  H   UNL     1       4.713  24.352  52.185  1.00  0.00     0.161 HD
ENDROOT
BRANCH   6  11
HETATM   11  C   UNL     1       4.844  27.969  48.215  1.00  0.00     0.272 C 
HETATM   12  N   UNL     1       4.174  29.154  48.041  1.00  0.00    -0.351 N 
HETATM   13  H   UNL     1       3.864  29.620  48.889  1.00  0.00     0.163 HD
HETATM   14  O   UNL     1       5.379  27.347  47.302  1.00  0.00    -0.266 OA
BRANCH  12  15
HETATM   15  C   UNL     1       4.099  29.816  46.769  1.00  0.00     0.161 C 
BRANCH  15  16
HETATM   16  C   UNL     1       4.815  31.141  46.801  1.00  0.00    -0.041 A 
HETATM   17  C   UNL     1       5.148  31.807  45.615  1.00  0.00     0.009 A 
HETATM   18  C   UNL     1       5.807  33.037  45.654  1.00  0.00     0.001 A 
HETATM   19  C   UNL     1       6.138  33.613  46.879  1.00  0.00     0.000 A 
HETATM   20  C   UNL     1       5.808  32.964  48.066  1.00  0.00     0.001 A 
HETATM   21  C   UNL     1       5.145  31.737  48.029  1.00  0.00     0.009 A 
ENDBRANCH  15  16
ENDBRANCH  12  15
ENDBRANCH   6  11
BRANCH   8  22
HETATM   22  C   UNL     1       4.131  28.444  53.774  1.00  0.00     0.409 C 
HETATM   23  F   UNL     1       3.026  27.925  53.195  1.00  0.00    -0.169 F 
HETATM   24  F   UNL     1       4.118  28.096  55.078  1.00  0.00    -0.169 F 
HETATM   25  F   UNL     1       3.988  29.795  53.734  1.00  0.00    -0.169 F 
ENDBRANCH   8  22
BRANCH   1  26
HETATM   26  C   UNL     1       6.551  24.464  53.906  1.00  0.00    -0.035 A 
HETATM   27  C   UNL     1       7.149  23.823  52.806  1.00  0.00     0.012 A 
HETATM   28  C   UNL     1       8.096  22.813  52.985  1.00  0.00     0.037 A 
HETATM   29  C   UNL     1       8.457  22.414  54.269  1.00  0.00     0.068 A 
HETATM   30  C   UNL     1       7.844  23.020  55.368  1.00  0.00     0.037 A 
HETATM   31  C   UNL     1       6.901  24.040  55.193  1.00  0.00     0.012 A 
BRANCH  29  32
HETATM   32  O   UNL     1       9.371  21.445  54.577  1.00  0.00    -0.356 OA
HETATM   33  C   UNL     1       9.050  20.598  55.674  1.00  0.00     0.210 C 
ENDBRANCH  29  32
ENDBRANCH   1  26
TORSDOF 6
ENDMDL
MODEL 10
REMARK VINA RESULT:      -8.7      2.630      9.062
REMARK  6 active torsions:
REMARK  status: ('A' for Active; 'I' for Inactive)
REMARK    1  A    between atoms: O_2  and  C_3 
REMARK    2  A    between atoms: C_6  and  C_7 
REMARK    3  A    between atoms: C_12  and  C_13 
REMARK       I    between atoms: C_13  and  N_14 
REMARK    4  A    between atoms: N_14  and  C_15 
REMARK    5  A    between atoms: C_15  and  C_16 
REMARK    6  A    between atoms: C_24  and  C_25 
ROOT
HETATM    1  C   UNL     1       4.674  31.605  58.341  1.00  0.00     0.118 C 
HETATM    2  N   UNL     1       4.544  30.167  58.099  1.00  0.00    -0.366 N 
HETATM    3  C   UNL     1       4.744  29.625  56.882  1.00  0.00     0.123 A 
HETATM    4  N   UNL     1       4.692  30.394  55.756  1.00  0.00    -0.240 N 
HETATM    5  N   UNL     1       5.054  29.750  54.634  1.00  0.00    -0.165 NA
HETATM    6  C   UNL     1       5.234  28.474  55.054  1.00  0.00     0.148 A 
HETATM    7  C   UNL     1       5.024  28.355  56.457  1.00  0.00     0.088 A 
HETATM    8  C   UNL     1       4.440  31.819  55.792  1.00  0.00     0.221 C 
HETATM    9  C   UNL     1       5.064  32.396  57.069  1.00  0.00     0.066 C 
HETATM   10  H   UNL     1       4.620  29.588  58.936  1.00  0.00     0.161 HD
ENDROOT
BRANCH   6  11
HETATM   11  C   UNL     1       5.632  27.397  54.137  1.00  0.00     0.272 C 
HETATM   12  N   UNL     1       4.976  26.215  54.375  1.00  0.00    -0.351 N 
HETATM   13  H   UNL     1       4.246  26.244  55.081  1.00  0.00     0.163 HD
HETATM   14  O   UNL     1       6.455  27.552  53.239  1.00  0.00    -0.266 OA
BRANCH  12  15
HETATM   15  C   UNL     1       5.147  25.059  53.539  1.00  0.00     0.161 C 
BRANCH  15  16
HETATM   16  C   UNL     1       6.363  24.268  53.945  1.00  0.00    -0.041 A 
HETATM   17  C   UNL     1       7.152  23.622  52.985  1.00  0.00     0.009 A 
HETATM   18  C   UNL     1       8.281  22.895  53.369  1.00  0.00     0.001 A 
HETATM   19  C   UNL     1       8.632  22.810  54.715  1.00  0.00     0.000 A 
HETATM   20  C   UNL     1       7.859  23.453  55.679  1.00  0.00     0.001 A 
HETATM   21  C   UNL     1       6.733  24.183  55.297  1.00  0.00     0.009 A 
ENDBRANCH  15  16
ENDBRANCH  12  15
ENDBRANCH   6  11
BRANCH   8  22
HETATM   22  C   UNL     1       2.958  32.096  55.688  1.00  0.00     0.409 C 
HETATM   23  F   UNL     1       2.208  31.063  56.129  1.00  0.00    -0.169 F 
HETATM   24  F   UNL     1       2.566  33.206  56.348  1.00  0.00    -0.169 F 
HETATM   25  F   UNL     1       2.623  32.286  54.384  1.00  0.00    -0.169 F 
ENDBRANCH   8  22
BRANCH   1  26
HETATM   26  C   UNL     1       5.704  31.807  59.442  1.00  0.00    -0.035 A 
HETATM   27  C   UNL     1       7.060  31.501  59.221  1.00  0.00     0.012 A 
HETATM   28  C   UNL     1       8.015  31.687  60.222  1.00  0.00     0.037 A 
HETATM   29  C   UNL     1       7.633  32.173  61.470  1.00  0.00     0.068 A 
HETATM   30  C   UNL     1       6.284  32.447  61.710  1.00  0.00     0.037 A 
HETATM   31  C   UNL     1       5.325  32.271  60.706  1.00  0.00     0.012 A 
BRANCH  29  32
HETATM   32  O   UNL     1       8.469  32.403  62.527  1.00  0.00    -0.356 OA
HETATM   33  C   UNL     1       7.862  32.881  63.722  1.00  0.00     0.210 C 
ENDBRANCH  29  32
ENDBRANCH   1  26
TORSDOF 6
ENDMDL
