MODEL 1
REMARK VINA RESULT:      -9.2      0.000      0.000
REMARK  6 active torsions:
REMARK  status: ('A' for Active; 'I' for Inactive)
REMARK    1  A    between atoms: C_2  and  C_3 
REMARK    2  A    between atoms: C_3  and  O_4 
REMARK    3  A    between atoms: O_4  and  C_5 
REMARK    4  A    between atoms: C_7  and  C_8 
REMARK       I    between atoms: C_8  and  N_9 
REMARK    5  A    between atoms: N_9  and  C_10 
REMARK    6  A    between atoms: C_17  and  C_18 
REMARK       I    between atoms: C_18  and  N_19 
ROOT
HETATM    1  C   UNL     1       8.611  29.079  57.015  1.00  0.00     0.036 A 
HETATM    2  C   UNL     1       7.828  29.852  57.881  1.00  0.00     0.046 A 
HETATM    3  C   UNL     1       8.426  30.898  58.620  1.00  0.00     0.030 A 
HETATM    4  C   UNL     1       9.789  31.123  58.478  1.00  0.00     0.063 A 
HETATM    5  N   UNL     1      10.071  32.172  59.308  1.00  0.00    -0.277 N 
HETATM    6  H   UNL     1      10.974  32.605  59.464  1.00  0.00     0.189 HD
HETATM    7  N   UNL     1       9.009  32.661  59.968  1.00  0.00    -0.168 NA
HETATM    8  C   UNL     1       7.983  31.885  59.552  1.00  0.00     0.156 A 
HETATM    9  C   UNL     1      10.602  30.369  57.631  1.00  0.00     0.034 A 
HETATM   10  C   UNL     1       9.982  29.348  56.899  1.00  0.00     0.032 A 
ENDROOT
BRANCH   1  11
HETATM   11  N   UNL     1       8.101  28.024  56.222  1.00  0.00    -0.323 N 
HETATM   12  C   UNL     1       7.777  26.745  56.637  1.00  0.00     0.256 C 
HETATM   13  O   UNL     1       7.866  26.303  57.776  1.00  0.00    -0.267 OA
HETATM   14  H   UNL     1       7.914  28.260  55.258  1.00  0.00     0.169 HD
BRANCH  12  15
HETATM   15  C   UNL     1       7.234  25.838  55.581  1.00  0.00     0.035 A 
HETATM   16  C   UNL     1       8.087  24.843  55.078  1.00  0.00     0.053 A 
HETATM   17  C   UNL     1       7.646  23.967  54.087  1.00  0.00     0.069 A 
HETATM   18  C   UNL     1       6.341  24.085  53.604  1.00  0.00     0.037 A 
HETATM   19  C   UNL     1       5.491  25.082  54.085  1.00  0.00     0.004 A 
HETATM   20  C   UNL     1       5.937  25.967  55.068  1.00  0.00     0.017 A 
BRANCH  17  21
HETATM   21  O   UNL     1       8.382  22.965  53.516  1.00  0.00    -0.351 OA
BRANCH  21  22
HETATM   22  C   UNL     1       9.195  22.181  54.394  1.00  0.00     0.179 C 
BRANCH  22  23
HETATM   23  C   UNL     1       8.690  20.730  54.380  1.00  0.00     0.002 C 
HETATM   24  C   UNL     1       7.995  20.394  53.059  1.00  0.00     0.011 C 
HETATM   25  C   UNL     1       7.744  20.486  55.555  1.00  0.00     0.011 C 
ENDBRANCH  22  23
ENDBRANCH  21  22
ENDBRANCH  17  21
ENDBRANCH  12  15
ENDBRANCH   1  11
BRANCH   8  26
HETATM   26  C   UNL     1       6.615  32.107  60.041  1.00  0.00     0.270 C 
HETATM   27  N   UNL     1       6.396  31.649  61.313  1.00  0.00    -0.365 N 
HETATM   28  H   UNL     1       7.164  31.215  61.811  1.00  0.00     0.159 HD
HETATM   29  H   UNL     1       5.491  31.771  61.737  1.00  0.00     0.159 HD
HETATM   30  O   UNL     1       5.721  32.654  59.405  1.00  0.00    -0.266 OA
ENDBRANCH   8  26
TORSDOF 6
ENDMDL
MODEL 2
REMARK VINA RESULT:      -9.2      2.967      6.022
REMARK  6 active torsions:
REMARK  status: ('A' for Active; 'I' for Inactive)
REMARK    1  A    between atoms: C_2  and  C_3 
REMARK    2  A    between atoms: C_3  and  O_4 
REMARK    3  A    between atoms: O_4  and  C_5 
REMARK    4  A    between atoms: C_7  and  C_8 
REMARK       I    between atoms: C_8  and  N_9 
REMARK    5  A    between atoms: N_9  and  C_10 
REMARK    6  A    between atoms: C_17  and  C_18 
REMARK       I    between atoms: C_18  and  N_19 
ROOT
HETATM    1  C   UNL     1       7.089  31.857  61.912  1.00  0.00     0.036 A 
HETATM    2  C   UNL     1       5.778  32.341  62.015  1.00  0.00     0.046 A 
HETATM    3  C   UNL     1       5.402  33.111  63.138  1.00  0.00     0.030 A 
HETATM    4  C   UNL     1       6.346  33.357  64.127  1.00  0.00     0.063 A 
HETATM    5  N   UNL     1       5.697  34.106  65.069  1.00  0.00    -0.277 N 
HETATM    6  H   UNL     1       6.079  34.466  65.937  1.00  0.00     0.189 HD
HETATM    7  N   UNL     1       4.417  34.384  64.774  1.00  0.00    -0.168 NA
HETATM    8  C   UNL     1       4.219  33.776  63.583  1.00  0.00     0.156 A 
HETATM    9  C   UNL     1       7.658  32.886  64.063  1.00  0.00     0.034 A 
HETATM   10  C   UNL     1       8.009  32.137  62.932  1.00  0.00     0.032 A 
ENDROOT
BRANCH   1  11
HETATM   11  N   UNL     1       7.563  31.093  60.821  1.00  0.00    -0.323 N 
HETATM   12  C   UNL     1       8.397  31.517  59.802  1.00  0.00     0.256 C 
HETATM   13  O   UNL     1       8.881  32.635  59.672  1.00  0.00    -0.267 OA
HETATM   14  H   UNL     1       7.294  30.120  60.825  1.00  0.00     0.169 HD
BRANCH  12  15
HETATM   15  C   UNL     1       8.757  30.482  58.785  1.00  0.00     0.035 A 
HETATM   16  C   UNL     1       7.833  29.451  58.552  1.00  0.00     0.053 A 
HETATM   17  C   UNL     1       8.110  28.450  57.621  1.00  0.00     0.069 A 
HETATM   18  C   UNL     1       9.315  28.489  56.916  1.00  0.00     0.037 A 
HETATM   19  C   UNL     1      10.248  29.499  57.154  1.00  0.00     0.004 A 
HETATM   20  C   UNL     1       9.976  30.494  58.095  1.00  0.00     0.017 A 
BRANCH  17  21
HETATM   21  O   UNL     1       7.296  27.395  57.311  1.00  0.00    -0.351 OA
BRANCH  21  22
HETATM   22  C   UNL     1       7.627  26.647  56.138  1.00  0.00     0.179 C 
BRANCH  22  23
HETATM   23  C   UNL     1       7.583  25.148  56.473  1.00  0.00     0.002 C 
HETATM   24  C   UNL     1       8.725  24.752  57.411  1.00  0.00     0.011 C 
HETATM   25  C   UNL     1       7.636  24.316  55.192  1.00  0.00     0.011 C 
ENDBRANCH  22  23
ENDBRANCH  21  22
ENDBRANCH  17  21
ENDBRANCH  12  15
ENDBRANCH   1  11
BRANCH   8  26
HETATM   26  C   UNL     1       2.921  33.852  62.896  1.00  0.00     0.270 C 
HETATM   27  N   UNL     1       1.842  33.765  63.734  1.00  0.00    -0.365 N 
HETATM   28  H   UNL     1       2.006  33.668  64.729  1.00  0.00     0.159 HD
HETATM   29  H   UNL     1       0.911  33.823  63.354  1.00  0.00     0.159 HD
HETATM   30  O   UNL     1       2.773  33.987  61.687  1.00  0.00    -0.266 OA
ENDBRANCH   8  26
TORSDOF 6
ENDMDL
MODEL 3
REMARK VINA RESULT:      -9.1      3.248      9.202
REMARK  6 active torsions:
REMARK  status: ('A' for Active; 'I' for Inactive)
REMARK    1  A    between atoms: C_2  and  C_3 
REMARK    2  A    between atoms: C_3  and  O_4 
REMARK    3  A    between atoms: O_4  and  C_5 
REMARK    4  A    between atoms: C_7  and  C_8 
REMARK       I    between atoms: C_8  and  N_9 
REMARK    5  A    between atoms: N_9  and  C_10 
REMARK    6  A    between atoms: C_17  and  C_18 
REMARK       I    between atoms: C_18  and  N_19 
ROOT
HETATM    1  C   UNL     1       7.497  25.275  54.972  1.00  0.00     0.036 A 
HETATM    2  C   UNL     1       7.861  24.060  55.567  1.00  0.00     0.046 A 
HETATM    3  C   UNL     1       7.953  22.893  54.776  1.00  0.00     0.030 A 
HETATM    4  C   UNL     1       7.661  22.978  53.421  1.00  0.00     0.063 A 
HETATM    5  N   UNL     1       7.827  21.712  52.934  1.00  0.00    -0.277 N 
HETATM    6  H   UNL     1       7.694  21.400  51.979  1.00  0.00     0.189 HD
HETATM    7  N   UNL     1       8.216  20.810  53.849  1.00  0.00    -0.168 NA
HETATM    8  C   UNL     1       8.300  21.525  54.994  1.00  0.00     0.156 A 
HETATM    9  C   UNL     1       7.287  24.168  52.795  1.00  0.00     0.034 A 
HETATM   10  C   UNL     1       7.218  25.314  53.599  1.00  0.00     0.032 A 
ENDROOT
BRANCH   1  11
HETATM   11  N   UNL     1       7.395  26.497  55.676  1.00  0.00    -0.323 N 
HETATM   12  C   UNL     1       6.339  26.928  56.458  1.00  0.00     0.256 C 
HETATM   13  O   UNL     1       5.302  26.316  56.687  1.00  0.00    -0.267 OA
HETATM   14  H   UNL     1       8.211  27.091  55.631  1.00  0.00     0.169 HD
BRANCH  12  15
HETATM   15  C   UNL     1       6.513  28.264  57.106  1.00  0.00     0.035 A 
HETATM   16  C   UNL     1       7.648  28.453  57.911  1.00  0.00     0.053 A 
HETATM   17  C   UNL     1       7.868  29.673  58.549  1.00  0.00     0.069 A 
HETATM   18  C   UNL     1       6.949  30.710  58.373  1.00  0.00     0.037 A 
HETATM   19  C   UNL     1       5.808  30.526  57.589  1.00  0.00     0.004 A 
HETATM   20  C   UNL     1       5.582  29.301  56.961  1.00  0.00     0.017 A 
BRANCH  17  21
HETATM   21  O   UNL     1       8.928  29.974  59.359  1.00  0.00    -0.351 OA
BRANCH  21  22
HETATM   22  C   UNL     1       9.215  31.362  59.556  1.00  0.00     0.179 C 
BRANCH  22  23
HETATM   23  C   UNL     1       9.302  31.645  61.064  1.00  0.00     0.002 C 
HETATM   24  C   UNL     1       9.410  30.348  61.869  1.00  0.00     0.011 C 
HETATM   25  C   UNL     1       8.091  32.456  61.523  1.00  0.00     0.011 C 
ENDBRANCH  22  23
ENDBRANCH  21  22
ENDBRANCH  17  21
ENDBRANCH  12  15
ENDBRANCH   1  11
BRANCH   8  26
HETATM   26  C   UNL     1       8.715  20.895  56.255  1.00  0.00     0.270 C 
HETATM   27  N   UNL     1       9.687  19.943  56.109  1.00  0.00    -0.365 N 
HETATM   28  H   UNL     1      10.044  19.752  55.180  1.00  0.00     0.159 HD
HETATM   29  H   UNL     1      10.045  19.467  56.922  1.00  0.00     0.159 HD
HETATM   30  O   UNL     1       8.264  21.173  57.361  1.00  0.00    -0.266 OA
ENDBRANCH   8  26
TORSDOF 6
ENDMDL
MODEL 4
REMARK VINA RESULT:      -8.4      5.261      8.599
REMARK  6 active torsions:
REMARK  status: ('A' for Active; 'I' for Inactive)
REMARK    1  A    between atoms: C_2  and  C_3 
REMARK    2  A    between atoms: C_3  and  O_4 
REMARK    3  A    between atoms: O_4  and  C_5 
REMARK    4  A    between atoms: C_7  and  C_8 
REMARK       I    between atoms: C_8  and  N_9 
REMARK    5  A    between atoms: N_9  and  C_10 
REMARK    6  A    between atoms: C_17  and  C_18 
REMARK       I    between atoms: C_18  and  N_19 
ROOT
HETATM    1  C   UNL     1       7.204  25.214  54.480  1.00  0.00     0.036 A 
HETATM    2  C   UNL     1       7.494  23.855  54.302  1.00  0.00     0.046 A 
HETATM    3  C   UNL     1       7.853  23.064  55.417  1.00  0.00     0.030 A 
HETATM    4  C   UNL     1       7.923  23.664  56.668  1.00  0.00     0.063 A 
HETATM    5  N   UNL     1       8.294  22.667  57.527  1.00  0.00    -0.277 N 
HETATM    6  H   UNL     1       8.447  22.744  58.526  1.00  0.00     0.189 HD
HETATM    7  N   UNL     1       8.457  21.467  56.950  1.00  0.00    -0.168 NA
HETATM    8  C   UNL     1       8.187  21.695  55.644  1.00  0.00     0.156 A 
HETATM    9  C   UNL     1       7.648  25.015  56.883  1.00  0.00     0.034 A 
HETATM   10  C   UNL     1       7.281  25.773  55.763  1.00  0.00     0.032 A 
ENDROOT
BRANCH   1  11
HETATM   11  N   UNL     1       6.820  26.081  53.431  1.00  0.00    -0.323 N 
HETATM   12  C   UNL     1       5.652  26.037  52.692  1.00  0.00     0.256 C 
HETATM   13  O   UNL     1       4.733  25.236  52.826  1.00  0.00    -0.267 OA
HETATM   14  H   UNL     1       7.458  26.841  53.243  1.00  0.00     0.169 HD
BRANCH  12  15
HETATM   15  C   UNL     1       5.500  27.100  51.653  1.00  0.00     0.035 A 
HETATM   16  C   UNL     1       5.237  26.690  50.336  1.00  0.00     0.053 A 
HETATM   17  C   UNL     1       5.090  27.630  49.317  1.00  0.00     0.069 A 
HETATM   18  C   UNL     1       5.199  28.989  49.623  1.00  0.00     0.037 A 
HETATM   19  C   UNL     1       5.478  29.407  50.925  1.00  0.00     0.004 A 
HETATM   20  C   UNL     1       5.638  28.464  51.942  1.00  0.00     0.017 A 
BRANCH  17  21
HETATM   21  O   UNL     1       4.839  27.355  48.001  1.00  0.00    -0.351 OA
BRANCH  21  22
HETATM   22  C   UNL     1       3.536  27.682  47.511  1.00  0.00     0.179 C 
BRANCH  22  23
HETATM   23  C   UNL     1       2.528  26.652  48.044  1.00  0.00     0.002 C 
HETATM   24  C   UNL     1       2.875  25.237  47.573  1.00  0.00     0.011 C 
HETATM   25  C   UNL     1       1.110  27.023  47.612  1.00  0.00     0.011 C 
ENDBRANCH  22  23
ENDBRANCH  21  22
ENDBRANCH  17  21
ENDBRANCH  12  15
ENDBRANCH   1  11
BRANCH   8  26
HETATM   26  C   UNL     1       8.243  20.609  54.655  1.00  0.00     0.270 C 
HETATM   27  N   UNL     1       9.070  19.577  55.006  1.00  0.00    -0.365 N 
HETATM   28  H   UNL     1       9.560  19.627  55.892  1.00  0.00     0.159 HD
HETATM   29  H   UNL     1       9.161  18.781  54.395  1.00  0.00     0.159 HD
HETATM   30  O   UNL     1       7.617  20.586  53.601  1.00  0.00    -0.266 OA
ENDBRANCH   8  26
TORSDOF 6
ENDMDL
MODEL 5
REMARK VINA RESULT:      -8.4      1.814      2.713
REMARK  6 active torsions:
REMARK  status: ('A' for Active; 'I' for Inactive)
REMARK    1  A    between atoms: C_2  and  C_3 
REMARK    2  A    between atoms: C_3  and  O_4 
REMARK    3  A    between atoms: O_4  and  C_5 
REMARK    4  A    between atoms: C_7  and  C_8 
REMARK       I    between atoms: C_8  and  N_9 
REMARK    5  A    between atoms: N_9  and  C_10 
REMARK    6  A    between atoms: C_17  and  C_18 
REMARK       I    between atoms: C_18  and  N_19 
ROOT
HETATM    1  C   UNL     1       5.878  29.222  56.594  1.00  0.00     0.036 A 
HETATM    2  C   UNL     1       6.941  29.800  57.299  1.00  0.00     0.046 A 
HETATM    3  C   UNL     1       6.696  30.885  58.171  1.00  0.00     0.030 A 
HETATM    4  C   UNL     1       5.398  31.364  58.295  1.00  0.00     0.063 A 
HETATM    5  N   UNL     1       5.478  32.399  59.184  1.00  0.00    -0.277 N 
HETATM    6  H   UNL     1       4.719  32.987  59.511  1.00  0.00     0.189 HD
HETATM    7  N   UNL     1       6.710  32.628  59.663  1.00  0.00    -0.168 NA
HETATM    8  C   UNL     1       7.476  31.700  59.046  1.00  0.00     0.156 A 
HETATM    9  C   UNL     1       4.315  30.819  57.604  1.00  0.00     0.034 A 
HETATM   10  C   UNL     1       4.583  29.735  56.757  1.00  0.00     0.032 A 
ENDROOT
BRANCH   1  11
HETATM   11  N   UNL     1       6.020  28.125  55.714  1.00  0.00    -0.323 N 
HETATM   12  C   UNL     1       6.191  26.795  56.053  1.00  0.00     0.256 C 
HETATM   13  O   UNL     1       6.239  26.331  57.186  1.00  0.00    -0.267 OA
HETATM   14  H   UNL     1       5.938  28.346  54.731  1.00  0.00     0.169 HD
BRANCH  12  15
HETATM   15  C   UNL     1       6.291  25.840  54.908  1.00  0.00     0.035 A 
HETATM   16  C   UNL     1       7.448  25.050  54.820  1.00  0.00     0.053 A 
HETATM   17  C   UNL     1       7.609  24.143  53.773  1.00  0.00     0.069 A 
HETATM   18  C   UNL     1       6.600  24.024  52.814  1.00  0.00     0.037 A 
HETATM   19  C   UNL     1       5.454  24.818  52.882  1.00  0.00     0.004 A 
HETATM   20  C   UNL     1       5.300  25.735  53.923  1.00  0.00     0.017 A 
BRANCH  17  21
HETATM   21  O   UNL     1       8.688  23.325  53.578  1.00  0.00    -0.351 OA
BRANCH  21  22
HETATM   22  C   UNL     1       8.967  22.369  54.605  1.00  0.00     0.179 C 
BRANCH  22  23
HETATM   23  C   UNL     1       7.905  21.260  54.557  1.00  0.00     0.002 C 
HETATM   24  C   UNL     1       8.029  20.317  55.756  1.00  0.00     0.011 C 
HETATM   25  C   UNL     1       8.017  20.474  53.251  1.00  0.00     0.011 C 
ENDBRANCH  22  23
ENDBRANCH  21  22
ENDBRANCH  17  21
ENDBRANCH  12  15
ENDBRANCH   1  11
BRANCH   8  26
HETATM   26  C   UNL     1       8.919  31.605  59.313  1.00  0.00     0.270 C 
HETATM   27  N   UNL     1       9.257  30.626  60.208  1.00  0.00    -0.365 N 
HETATM   28  H   UNL     1       8.520  30.053  60.602  1.00  0.00     0.159 HD
HETATM   29  H   UNL     1      10.226  30.477  60.441  1.00  0.00     0.159 HD
HETATM   30  O   UNL     1       9.776  32.312  58.797  1.00  0.00    -0.266 OA
ENDBRANCH   8  26
TORSDOF 6
ENDMDL
MODEL 6
REMARK VINA RESULT:      -8.3      1.797      3.454
REMARK  6 active torsions:
REMARK  status: ('A' for Active; 'I' for Inactive)
REMARK    1  A    between atoms: C_2  and  C_3 
REMARK    2  A    between atoms: C_3  and  O_4 
REMARK    3  A    between atoms: O_4  and  C_5 
REMARK    4  A    between atoms: C_7  and  C_8 
REMARK       I    between atoms: C_8  and  N_9 
REMARK    5  A    between atoms: N_9  and  C_10 
REMARK    6  A    between atoms: C_17  and  C_18 
REMARK       I    between atoms: C_18  and  N_19 
ROOT
HETATM    1  C   UNL     1       8.770  29.009  57.096  1.00  0.00     0.036 A 
HETATM    2  C   UNL     1       8.047  29.667  58.099  1.00  0.00     0.046 A 
HETATM    3  C   UNL     1       8.637  30.746  58.795  1.00  0.00     0.030 A 
HETATM    4  C   UNL     1       9.936  31.120  58.473  1.00  0.00     0.063 A 
HETATM    5  N   UNL     1      10.228  32.166  59.303  1.00  0.00    -0.277 N 
HETATM    6  H   UNL     1      11.096  32.688  59.351  1.00  0.00     0.189 HD
HETATM    7  N   UNL     1       9.229  32.518  60.128  1.00  0.00    -0.168 NA
HETATM    8  C   UNL     1       8.237  31.650  59.825  1.00  0.00     0.156 A 
HETATM    9  C   UNL     1      10.690  30.484  57.486  1.00  0.00     0.034 A 
HETATM   10  C   UNL     1      10.076  29.426  56.802  1.00  0.00     0.032 A 
ENDROOT
BRANCH   1  11
HETATM   11  N   UNL     1       8.261  27.932  56.335  1.00  0.00    -0.323 N 
HETATM   12  C   UNL     1       7.989  26.650  56.774  1.00  0.00     0.256 C 
HETATM   13  O   UNL     1       8.134  26.223  57.914  1.00  0.00    -0.267 OA
HETATM   14  H   UNL     1       8.030  28.152  55.376  1.00  0.00     0.169 HD
BRANCH  12  15
HETATM   15  C   UNL     1       7.431  25.716  55.750  1.00  0.00     0.035 A 
HETATM   16  C   UNL     1       6.479  26.227  54.854  1.00  0.00     0.053 A 
HETATM   17  C   UNL     1       5.914  25.408  53.877  1.00  0.00     0.069 A 
HETATM   18  C   UNL     1       6.313  24.072  53.794  1.00  0.00     0.037 A 
HETATM   19  C   UNL     1       7.246  23.549  54.691  1.00  0.00     0.004 A 
HETATM   20  C   UNL     1       7.801  24.367  55.677  1.00  0.00     0.017 A 
BRANCH  17  21
HETATM   21  O   UNL     1       4.977  25.788  52.956  1.00  0.00    -0.351 OA
BRANCH  21  22
HETATM   22  C   UNL     1       4.727  27.190  52.829  1.00  0.00     0.179 C 
BRANCH  22  23
HETATM   23  C   UNL     1       4.621  27.546  51.338  1.00  0.00     0.002 C 
HETATM   24  C   UNL     1       5.053  26.375  50.453  1.00  0.00     0.011 C 
HETATM   25  C   UNL     1       5.461  28.785  51.027  1.00  0.00     0.011 C 
ENDBRANCH  22  23
ENDBRANCH  21  22
ENDBRANCH  17  21
ENDBRANCH  12  15
ENDBRANCH   1  11
BRANCH   8  26
HETATM   26  C   UNL     1       6.939  31.710  60.512  1.00  0.00     0.270 C 
HETATM   27  N   UNL     1       6.945  31.161  61.766  1.00  0.00    -0.365 N 
HETATM   28  H   UNL     1       7.812  30.775  62.122  1.00  0.00     0.159 HD
HETATM   29  H   UNL     1       6.103  31.170  62.318  1.00  0.00     0.159 HD
HETATM   30  O   UNL     1       5.919  32.204  60.044  1.00  0.00    -0.266 OA
ENDBRANCH   8  26
TORSDOF 6
ENDMDL
MODEL 7
REMARK VINA RESULT:      -8.0      1.925      3.320
REMARK  6 active torsions:
REMARK  status: ('A' for Active; 'I' for Inactive)
REMARK    1  A    between atoms: C_2  and  C_3 
REMARK    2  A    between atoms: C_3  and  O_4 
REMARK    3  A    between atoms: O_4  and  C_5 
REMARK    4  A    between atoms: C_7  and  C_8 
REMARK       I    between atoms: C_8  and  N_9 
REMARK    5  A    between atoms: N_9  and  C_10 
REMARK    6  A    between atoms: C_17  and  C_18 
REMARK       I    between atoms: C_18  and  N_19 
ROOT
HETATM    1  C   UNL     1       7.848  28.534  57.168  1.00  0.00     0.036 A 
HETATM    2  C   UNL     1       6.688  29.271  57.437  1.00  0.00     0.046 A 
HETATM    3  C   UNL     1       6.783  30.498  58.130  1.00  0.00     0.030 A 
HETATM    4  C   UNL     1       8.033  30.938  58.544  1.00  0.00     0.063 A 
HETATM    5  N   UNL     1       7.807  32.126  59.181  1.00  0.00    -0.277 N 
HETATM    6  H   UNL     1       8.495  32.730  59.618  1.00  0.00     0.189 HD
HETATM    7  N   UNL     1       6.520  32.509  59.206  1.00  0.00    -0.168 NA
HETATM    8  C   UNL     1       5.873  31.513  58.559  1.00  0.00     0.156 A 
HETATM    9  C   UNL     1       9.210  30.228  58.302  1.00  0.00     0.034 A 
HETATM   10  C   UNL     1       9.090  29.022  57.601  1.00  0.00     0.032 A 
ENDROOT
BRANCH   1  11
HETATM   11  N   UNL     1       7.858  27.306  56.468  1.00  0.00    -0.323 N 
HETATM   12  C   UNL     1       7.971  26.036  57.004  1.00  0.00     0.256 C 
HETATM   13  O   UNL     1       8.074  25.752  58.192  1.00  0.00    -0.267 OA
HETATM   14  H   UNL     1       7.717  27.376  55.470  1.00  0.00     0.169 HD
BRANCH  12  15
HETATM   15  C   UNL     1       7.928  24.910  56.023  1.00  0.00     0.035 A 
HETATM   16  C   UNL     1       7.287  25.142  54.795  1.00  0.00     0.053 A 
HETATM   17  C   UNL     1       7.206  24.132  53.837  1.00  0.00     0.069 A 
HETATM   18  C   UNL     1       7.777  22.887  54.109  1.00  0.00     0.037 A 
HETATM   19  C   UNL     1       8.401  22.640  55.333  1.00  0.00     0.004 A 
HETATM   20  C   UNL     1       8.470  23.648  56.297  1.00  0.00     0.017 A 
BRANCH  17  21
HETATM   21  O   UNL     1       6.605  24.234  52.612  1.00  0.00    -0.351 OA
BRANCH  21  22
HETATM   22  C   UNL     1       6.748  25.481  51.926  1.00  0.00     0.179 C 
BRANCH  22  23
HETATM   23  C   UNL     1       5.360  26.111  51.739  1.00  0.00     0.002 C 
HETATM   24  C   UNL     1       4.927  26.082  50.271  1.00  0.00     0.011 C 
HETATM   25  C   UNL     1       5.351  27.545  52.267  1.00  0.00     0.011 C 
ENDBRANCH  22  23
ENDBRANCH  21  22
ENDBRANCH  17  21
ENDBRANCH  12  15
ENDBRANCH   1  11
BRANCH   8  26
HETATM   26  C   UNL     1       4.418  31.556  58.356  1.00  0.00     0.270 C 
HETATM   27  N   UNL     1       3.696  31.016  59.386  1.00  0.00    -0.365 N 
HETATM   28  H   UNL     1       4.194  30.646  60.187  1.00  0.00     0.159 HD
HETATM   29  H   UNL     1       2.689  31.015  59.341  1.00  0.00     0.159 HD
HETATM   30  O   UNL     1       3.860  32.031  57.374  1.00  0.00    -0.266 OA
ENDBRANCH   8  26
TORSDOF 6
ENDMDL
MODEL 8
REMARK VINA RESULT:      -7.8      4.715      7.040
REMARK  6 active torsions:
REMARK  status: ('A' for Active; 'I' for Inactive)
REMARK    1  A    between atoms: C_2  and  C_3 
REMARK    2  A    between atoms: C_3  and  O_4 
REMARK    3  A    between atoms: O_4  and  C_5 
REMARK    4  A    between atoms: C_7  and  C_8 
REMARK       I    between atoms: C_8  and  N_9 
REMARK    5  A    between atoms: N_9  and  C_10 
REMARK    6  A    between atoms: C_17  and  C_18 
REMARK       I    between atoms: C_18  and  N_19 
ROOT
HETATM    1  C   UNL     1       5.909  26.938  51.912  1.00  0.00     0.036 A 
HETATM    2  C   UNL     1       5.781  28.305  51.633  1.00  0.00     0.046 A 
HETATM    3  C   UNL     1       5.091  28.722  50.472  1.00  0.00     0.030 A 
HETATM    4  C   UNL     1       4.568  27.756  49.623  1.00  0.00     0.063 A 
HETATM    5  N   UNL     1       3.977  28.451  48.604  1.00  0.00    -0.277 N 
HETATM    6  H   UNL     1       3.496  28.068  47.798  1.00  0.00     0.189 HD
HETATM    7  N   UNL     1       4.056  29.786  48.722  1.00  0.00    -0.168 NA
HETATM    8  C   UNL     1       4.742  29.970  49.874  1.00  0.00     0.156 A 
HETATM    9  C   UNL     1       4.682  26.386  49.863  1.00  0.00     0.034 A 
HETATM   10  C   UNL     1       5.357  26.000  51.028  1.00  0.00     0.032 A 
ENDROOT
BRANCH   1  11
HETATM   11  N   UNL     1       6.565  26.425  53.055  1.00  0.00    -0.323 N 
HETATM   12  C   UNL     1       6.155  26.525  54.372  1.00  0.00     0.256 C 
HETATM   13  O   UNL     1       5.137  27.072  54.780  1.00  0.00    -0.267 OA
HETATM   14  H   UNL     1       7.400  25.888  52.869  1.00  0.00     0.169 HD
BRANCH  12  15
HETATM   15  C   UNL     1       7.039  25.864  55.379  1.00  0.00     0.035 A 
HETATM   16  C   UNL     1       7.569  24.606  55.053  1.00  0.00     0.053 A 
HETATM   17  C   UNL     1       8.396  23.931  55.951  1.00  0.00     0.069 A 
HETATM   18  C   UNL     1       8.699  24.526  57.177  1.00  0.00     0.037 A 
HETATM   19  C   UNL     1       8.163  25.769  57.519  1.00  0.00     0.004 A 
HETATM   20  C   UNL     1       7.324  26.438  56.625  1.00  0.00     0.017 A 
BRANCH  17  21
HETATM   21  O   UNL     1       8.965  22.704  55.750  1.00  0.00    -0.351 OA
BRANCH  21  22
HETATM   22  C   UNL     1       9.057  22.248  54.398  1.00  0.00     0.179 C 
BRANCH  22  23
HETATM   23  C   UNL     1       8.100  21.063  54.203  1.00  0.00     0.002 C 
HETATM   24  C   UNL     1       8.272  20.020  55.310  1.00  0.00     0.011 C 
HETATM   25  C   UNL     1       8.318  20.423  52.833  1.00  0.00     0.011 C 
ENDBRANCH  22  23
ENDBRANCH  21  22
ENDBRANCH  17  21
ENDBRANCH  12  15
ENDBRANCH   1  11
BRANCH   8  26
HETATM   26  C   UNL     1       5.035  31.320  50.377  1.00  0.00     0.270 C 
HETATM   27  N   UNL     1       4.231  31.717  51.410  1.00  0.00    -0.365 N 
HETATM   28  H   UNL     1       3.523  31.075  51.748  1.00  0.00     0.159 HD
HETATM   29  H   UNL     1       4.368  32.623  51.829  1.00  0.00     0.159 HD
HETATM   30  O   UNL     1       5.917  32.054  49.944  1.00  0.00    -0.266 OA
ENDBRANCH   8  26
TORSDOF 6
ENDMDL
MODEL 9
REMARK VINA RESULT:      -7.8      1.586      2.049
REMARK  6 active torsions:
REMARK  status: ('A' for Active; 'I' for Inactive)
REMARK    1  A    between atoms: C_2  and  C_3 
REMARK    2  A    between atoms: C_3  and  O_4 
REMARK    3  A    between atoms: O_4  and  C_5 
REMARK    4  A    between atoms: C_7  and  C_8 
REMARK       I    between atoms: C_8  and  N_9 
REMARK    5  A    between atoms: N_9  and  C_10 
REMARK    6  A    between atoms: C_17  and  C_18 
REMARK       I    between atoms: C_18  and  N_19 
ROOT
HETATM    1  C   UNL     1       6.996  29.084  56.951  1.00  0.00     0.036 A 
HETATM    2  C   UNL     1       5.881  29.752  57.473  1.00  0.00     0.046 A 
HETATM    3  C   UNL     1       6.066  30.850  58.342  1.00  0.00     0.030 A 
HETATM    4  C   UNL     1       7.360  31.233  58.671  1.00  0.00     0.063 A 
HETATM    5  N   UNL     1       7.218  32.298  59.517  1.00  0.00    -0.277 N 
HETATM    6  H   UNL     1       7.958  32.830  59.961  1.00  0.00     0.189 HD
HETATM    7  N   UNL     1       5.947  32.653  59.757  1.00  0.00    -0.168 NA
HETATM    8  C   UNL     1       5.221  31.768  59.037  1.00  0.00     0.156 A 
HETATM    9  C   UNL     1       8.494  30.588  58.178  1.00  0.00     0.034 A 
HETATM   10  C   UNL     1       8.284  29.511  57.306  1.00  0.00     0.032 A 
ENDROOT
BRANCH   1  11
HETATM   11  N   UNL     1       6.914  27.988  56.062  1.00  0.00    -0.323 N 
HETATM   12  C   UNL     1       6.670  26.665  56.384  1.00  0.00     0.256 C 
HETATM   13  O   UNL     1       6.471  26.211  57.505  1.00  0.00    -0.267 OA
HETATM   14  H   UNL     1       6.997  28.218  55.082  1.00  0.00     0.169 HD
BRANCH  12  15
HETATM   15  C   UNL     1       6.615  25.716  55.231  1.00  0.00     0.035 A 
HETATM   16  C   UNL     1       7.687  24.824  55.071  1.00  0.00     0.053 A 
HETATM   17  C   UNL     1       7.702  23.916  54.013  1.00  0.00     0.069 A 
HETATM   18  C   UNL     1       6.631  23.898  53.116  1.00  0.00     0.037 A 
HETATM   19  C   UNL     1       5.569  24.792  53.255  1.00  0.00     0.004 A 
HETATM   20  C   UNL     1       5.561  25.709  54.308  1.00  0.00     0.017 A 
BRANCH  17  21
HETATM   21  O   UNL     1       8.688  23.005  53.750  1.00  0.00    -0.351 OA
BRANCH  21  22
HETATM   22  C   UNL     1       9.263  22.334  54.875  1.00  0.00     0.179 C 
BRANCH  22  23
HETATM   23  C   UNL     1       8.195  21.437  55.520  1.00  0.00     0.002 C 
HETATM   24  C   UNL     1       8.401  21.326  57.033  1.00  0.00     0.011 C 
HETATM   25  C   UNL     1       8.208  20.050  54.879  1.00  0.00     0.011 C 
ENDBRANCH  22  23
ENDBRANCH  21  22
ENDBRANCH  17  21
ENDBRANCH  12  15
ENDBRANCH   1  11
BRANCH   8  26
HETATM   26  C   UNL     1       3.752  31.825  59.019  1.00  0.00     0.270 C 
HETATM   27  N   UNL     1       3.162  31.358  60.162  1.00  0.00    -0.365 N 
HETATM   28  H   UNL     1       3.755  31.028  60.914  1.00  0.00     0.159 HD
HETATM   29  H   UNL     1       2.158  31.372  60.247  1.00  0.00     0.159 HD
HETATM   30  O   UNL     1       3.077  32.251  58.088  1.00  0.00    -0.266 OA
ENDBRANCH   8  26
TORSDOF 6
ENDMDL
MODEL 10
REMARK VINA RESULT:      -7.7      2.848      4.067
REMARK  6 active torsions:
REMARK  status: ('A' for Active; 'I' for Inactive)
REMARK    1  A    between atoms: C_2  and  C_3 
REMARK    2  A    between atoms: C_3  and  O_4 
REMARK    3  A    between atoms: O_4  and  C_5 
REMARK    4  A    between atoms: C_7  and  C_8 
REMARK       I    between atoms: C_8  and  N_9 
REMARK    5  A    between atoms: N_9  and  C_10 
REMARK    6  A    between atoms: C_17  and  C_18 
REMARK       I    between atoms: C_18  and  N_19 
ROOT
HETATM    1  C   UNL     1       8.231  28.966  56.824  1.00  0.00     0.036 A 
HETATM    2  C   UNL     1       7.488  29.843  57.625  1.00  0.00     0.046 A 
HETATM    3  C   UNL     1       8.154  30.815  58.405  1.00  0.00     0.030 A 
HETATM    4  C   UNL     1       9.542  30.866  58.368  1.00  0.00     0.063 A 
HETATM    5  N   UNL     1       9.889  31.882  59.214  1.00  0.00    -0.277 N 
HETATM    6  H   UNL     1      10.825  32.201  59.438  1.00  0.00     0.189 HD
HETATM    7  N   UNL     1       8.850  32.508  59.788  1.00  0.00    -0.168 NA
HETATM    8  C   UNL     1       7.769  31.861  59.297  1.00  0.00     0.156 A 
HETATM    9  C   UNL     1      10.316  30.005  57.589  1.00  0.00     0.034 A 
HETATM   10  C   UNL     1       9.630  29.061  56.814  1.00  0.00     0.032 A 
ENDROOT
BRANCH   1  11
HETATM   11  N   UNL     1       7.656  27.974  55.997  1.00  0.00    -0.323 N 
HETATM   12  C   UNL     1       7.782  27.849  54.626  1.00  0.00     0.256 C 
HETATM   13  O   UNL     1       8.430  28.578  53.883  1.00  0.00    -0.267 OA
HETATM   14  H   UNL     1       7.136  27.256  56.482  1.00  0.00     0.169 HD
BRANCH  12  15
HETATM   15  C   UNL     1       7.079  26.682  54.012  1.00  0.00     0.035 A 
HETATM   16  C   UNL     1       6.396  26.897  52.805  1.00  0.00     0.053 A 
HETATM   17  C   UNL     1       5.713  25.852  52.182  1.00  0.00     0.069 A 
HETATM   18  C   UNL     1       5.722  24.586  52.770  1.00  0.00     0.037 A 
HETATM   19  C   UNL     1       6.383  24.366  53.980  1.00  0.00     0.004 A 
HETATM   20  C   UNL     1       7.055  25.415  54.609  1.00  0.00     0.017 A 
BRANCH  17  21
HETATM   21  O   UNL     1       5.010  25.938  51.012  1.00  0.00    -0.351 OA
BRANCH  21  22
HETATM   22  C   UNL     1       5.100  27.172  50.294  1.00  0.00     0.179 C 
BRANCH  22  23
HETATM   23  C   UNL     1       4.758  26.917  48.818  1.00  0.00     0.002 C 
HETATM   24  C   UNL     1       4.274  28.196  48.129  1.00  0.00     0.011 C 
HETATM   25  C   UNL     1       3.702  25.819  48.700  1.00  0.00     0.011 C 
ENDBRANCH  22  23
ENDBRANCH  21  22
ENDBRANCH  17  21
ENDBRANCH  12  15
ENDBRANCH   1  11
BRANCH   8  26
HETATM   26  C   UNL     1       6.406  32.258  59.678  1.00  0.00     0.270 C 
HETATM   27  N   UNL     1       5.636  32.684  58.630  1.00  0.00    -0.365 N 
HETATM   28  H   UNL     1       6.039  32.687  57.700  1.00  0.00     0.159 HD
HETATM   29  H   UNL     1       4.682  32.963  58.794  1.00  0.00     0.159 HD
HETATM   30  O   UNL     1       5.957  32.221  60.818  1.00  0.00    -0.266 OA
ENDBRANCH   8  26
TORSDOF 6
ENDMDL
