MODEL 1
REMARK VINA RESULT:      -8.7      0.000      0.000
REMARK  6 active torsions:
REMARK  status: ('A' for Active; 'I' for Inactive)
REMARK    1  A    between atoms: C_5  and  N_6 
REMARK    2  A    between atoms: N_6  and  C_7 
REMARK    3  A    between atoms: C_7  and  C_8 
REMARK    4  A    between atoms: N_10  and  C_12 
REMARK    5  A    between atoms: C_12  and  C_13 
REMARK    6  A    between atoms: C_14  and  O_15 
ROOT
HETATM    1  C   UNL     1       6.323  25.398  56.883  1.00  0.00     0.031 C 
HETATM    2  C   UNL     1       7.399  26.017  57.775  1.00  0.00     0.241 C 
HETATM    3  N   UNL     1       7.290  27.508  57.564  1.00  0.00    -0.067 N 
HETATM    4  H   UNL     1       7.261  27.941  58.507  1.00  0.00     0.280 HD
HETATM    5  C   UNL     1       5.991  27.799  56.864  1.00  0.00     0.235 C 
HETATM    6  C   UNL     1       5.238  26.476  56.901  1.00  0.00     0.035 C 
ENDROOT
BRANCH   1   7
HETATM    7  C   UNL     1       6.818  25.070  55.462  1.00  0.00     0.127 C 
BRANCH   7   8
HETATM    8  N   UNL     1       8.078  24.338  55.517  1.00  0.00    -0.376 N 
HETATM    9  H   UNL     1       8.831  24.801  54.994  1.00  0.00     0.161 HD
BRANCH   8  10
HETATM   10  C   UNL     1       8.232  22.959  55.415  1.00  0.00     0.101 A 
HETATM   11  N   UNL     1       8.212  22.295  54.248  1.00  0.00    -0.347 N 
HETATM   12  C   UNL     1       8.354  20.956  54.147  1.00  0.00     0.007 A 
HETATM   13  H   UNL     1       8.113  22.822  53.390  1.00  0.00     0.167 HD
HETATM   14  C   UNL     1       8.368  20.327  52.790  1.00  0.00     0.068 C 
HETATM   15  C   UNL     1       8.503  20.195  55.304  1.00  0.00     0.025 A 
HETATM   16  C   UNL     1       8.503  20.828  56.538  1.00  0.00     0.006 A 
HETATM   17  C   UNL     1       8.367  22.210  56.594  1.00  0.00     0.048 A 
ENDBRANCH   8  10
ENDBRANCH   7   8
ENDBRANCH   1   7
BRANCH   3  18
HETATM   18  C   UNL     1       8.491  28.179  56.943  1.00  0.00     0.276 C 
BRANCH  18  19
HETATM   19  C   UNL     1       8.944  29.401  57.691  1.00  0.00     0.002 A 
HETATM   20  C   UNL     1      10.070  30.125  57.278  1.00  0.00     0.073 A 
HETATM   21  C   UNL     1      10.493  31.261  57.965  1.00  0.00     0.038 A 
HETATM   22  C   UNL     1       9.780  31.694  59.083  1.00  0.00     0.022 A 
HETATM   23  C   UNL     1       8.659  30.983  59.508  1.00  0.00     0.011 A 
HETATM   24 BR   UNL     1       7.674  31.580  61.005  1.00  0.00    -0.051 Br
HETATM   25  C   UNL     1       8.244  29.837  58.827  1.00  0.00     0.030 A 
BRANCH  20  26
HETATM   26  O   UNL     1      10.730  29.704  56.156  1.00  0.00    -0.360 OA
HETATM   27  H   UNL     1      11.359  29.001  56.425  1.00  0.00     0.217 HD
ENDBRANCH  20  26
ENDBRANCH  18  19
ENDBRANCH   3  18
TORSDOF 6
ENDMDL
MODEL 2
REMARK VINA RESULT:      -8.6      3.429      8.678
REMARK  6 active torsions:
REMARK  status: ('A' for Active; 'I' for Inactive)
REMARK    1  A    between atoms: C_5  and  N_6 
REMARK    2  A    between atoms: N_6  and  C_7 
REMARK    3  A    between atoms: C_7  and  C_8 
REMARK    4  A    between atoms: N_10  and  C_12 
REMARK    5  A    between atoms: C_12  and  C_13 
REMARK    6  A    between atoms: C_14  and  O_15 
ROOT
HETATM    1  C   UNL     1       6.122  28.612  56.477  1.00  0.00     0.031 C 
HETATM    2  C   UNL     1       6.879  27.982  55.309  1.00  0.00     0.241 C 
HETATM    3  N   UNL     1       6.640  26.496  55.428  1.00  0.00    -0.067 N 
HETATM    4  H   UNL     1       6.342  26.166  54.490  1.00  0.00     0.280 HD
HETATM    5  C   UNL     1       5.511  26.269  56.395  1.00  0.00     0.235 C 
HETATM    6  C   UNL     1       4.938  27.658  56.639  1.00  0.00     0.035 C 
ENDROOT
BRANCH   1   7
HETATM    7  C   UNL     1       6.966  28.743  57.758  1.00  0.00     0.127 C 
BRANCH   7   8
HETATM    8  N   UNL     1       6.825  30.078  58.327  1.00  0.00    -0.376 N 
HETATM    9  H   UNL     1       6.463  30.763  57.654  1.00  0.00     0.161 HD
BRANCH   8  10
HETATM   10  C   UNL     1       7.728  30.708  59.179  1.00  0.00     0.101 A 
HETATM   11  N   UNL     1       7.523  30.855  60.498  1.00  0.00    -0.347 N 
HETATM   12  C   UNL     1       8.393  31.473  61.325  1.00  0.00     0.007 A 
HETATM   13  H   UNL     1       6.686  30.461  60.907  1.00  0.00     0.167 HD
HETATM   14  C   UNL     1       8.086  31.535  62.788  1.00  0.00     0.068 C 
HETATM   15  C   UNL     1       9.563  32.020  60.802  1.00  0.00     0.025 A 
HETATM   16  C   UNL     1       9.811  31.920  59.441  1.00  0.00     0.006 A 
HETATM   17  C   UNL     1       8.893  31.264  58.630  1.00  0.00     0.048 A 
ENDBRANCH   8  10
ENDBRANCH   7   8
ENDBRANCH   1   7
BRANCH   3  18
HETATM   18  C   UNL     1       7.861  25.647  55.692  1.00  0.00     0.276 C 
BRANCH  18  19
HETATM   19  C   UNL     1       7.857  24.347  54.938  1.00  0.00     0.002 A 
HETATM   20  C   UNL     1       7.869  24.324  53.538  1.00  0.00     0.073 A 
HETATM   21  C   UNL     1       7.869  23.122  52.833  1.00  0.00     0.038 A 
HETATM   22  C   UNL     1       7.863  21.914  53.532  1.00  0.00     0.022 A 
HETATM   23  C   UNL     1       7.847  21.921  54.926  1.00  0.00     0.011 A 
HETATM   24 BR   UNL     1       7.866  20.289  55.877  1.00  0.00    -0.051 Br
HETATM   25  C   UNL     1       7.834  23.126  55.630  1.00  0.00     0.030 A 
BRANCH  20  26
HETATM   26  O   UNL     1       7.915  25.519  52.874  1.00  0.00    -0.360 OA
HETATM   27  H   UNL     1       7.459  26.187  53.430  1.00  0.00     0.217 HD
ENDBRANCH  20  26
ENDBRANCH  18  19
ENDBRANCH   3  18
TORSDOF 6
ENDMDL
MODEL 3
REMARK VINA RESULT:      -8.4      1.479      2.211
REMARK  6 active torsions:
REMARK  status: ('A' for Active; 'I' for Inactive)
REMARK    1  A    between atoms: C_5  and  N_6 
REMARK    2  A    between atoms: N_6  and  C_7 
REMARK    3  A    between atoms: C_7  and  C_8 
REMARK    4  A    between atoms: N_10  and  C_12 
REMARK    5  A    between atoms: C_12  and  C_13 
REMARK    6  A    between atoms: C_14  and  O_15 
ROOT
HETATM    1  C   UNL     1       5.640  27.319  54.939  1.00  0.00     0.031 C 
HETATM    2  C   UNL     1       6.010  28.345  56.009  1.00  0.00     0.241 C 
HETATM    3  N   UNL     1       7.469  28.659  55.779  1.00  0.00    -0.067 N 
HETATM    4  H   UNL     1       7.552  29.694  55.765  1.00  0.00     0.280 HD
HETATM    5  C   UNL     1       7.865  28.130  54.429  1.00  0.00     0.235 C 
HETATM    6  C   UNL     1       6.548  27.728  53.779  1.00  0.00     0.035 C 
ENDROOT
BRANCH   1   7
HETATM    7  C   UNL     1       5.857  25.861  55.385  1.00  0.00     0.127 C 
BRANCH   7   8
HETATM    8  N   UNL     1       6.116  25.007  54.232  1.00  0.00    -0.376 N 
HETATM    9  H   UNL     1       5.291  24.886  53.633  1.00  0.00     0.161 HD
BRANCH   8  10
HETATM   10  C   UNL     1       6.859  23.831  54.230  1.00  0.00     0.101 A 
HETATM   11  N   UNL     1       7.245  23.197  55.350  1.00  0.00    -0.347 N 
HETATM   12  C   UNL     1       7.973  22.060  55.351  1.00  0.00     0.007 A 
HETATM   13  H   UNL     1       6.956  23.570  56.245  1.00  0.00     0.167 HD
HETATM   14  C   UNL     1       8.303  21.410  56.658  1.00  0.00     0.068 C 
HETATM   15  C   UNL     1       8.383  21.508  54.139  1.00  0.00     0.025 A 
HETATM   16  C   UNL     1       8.035  22.138  52.954  1.00  0.00     0.006 A 
HETATM   17  C   UNL     1       7.273  23.300  53.000  1.00  0.00     0.048 A 
ENDBRANCH   8  10
ENDBRANCH   7   8
ENDBRANCH   1   7
BRANCH   3  18
HETATM   18  C   UNL     1       8.413  28.279  56.894  1.00  0.00     0.276 C 
BRANCH  18  19
HETATM   19  C   UNL     1       8.919  29.459  57.675  1.00  0.00     0.002 A 
HETATM   20  C   UNL     1      10.017  30.203  57.229  1.00  0.00     0.073 A 
HETATM   21  C   UNL     1      10.489  31.300  57.947  1.00  0.00     0.038 A 
HETATM   22  C   UNL     1       9.853  31.672  59.132  1.00  0.00     0.022 A 
HETATM   23  C   UNL     1       8.760  30.939  59.590  1.00  0.00     0.011 A 
HETATM   24 BR   UNL     1       7.879  31.454  61.180  1.00  0.00    -0.051 Br
HETATM   25  C   UNL     1       8.297  29.832  58.877  1.00  0.00     0.030 A 
BRANCH  20  26
HETATM   26  O   UNL     1      10.600  29.845  56.044  1.00  0.00    -0.360 OA
HETATM   27  H   UNL     1      10.151  30.341  55.327  1.00  0.00     0.217 HD
ENDBRANCH  20  26
ENDBRANCH  18  19
ENDBRANCH   3  18
TORSDOF 6
ENDMDL
MODEL 4
REMARK VINA RESULT:      -8.4      3.542      8.014
REMARK  6 active torsions:
REMARK  status: ('A' for Active; 'I' for Inactive)
REMARK    1  A    between atoms: C_5  and  N_6 
REMARK    2  A    between atoms: N_6  and  C_7 
REMARK    3  A    between atoms: C_7  and  C_8 
REMARK    4  A    between atoms: N_10  and  C_12 
REMARK    5  A    between atoms: C_12  and  C_13 
REMARK    6  A    between atoms: C_14  and  O_15 
ROOT
HETATM    1  C   UNL     1       5.534  27.368  54.970  1.00  0.00     0.031 C 
HETATM    2  C   UNL     1       5.836  25.923  54.575  1.00  0.00     0.241 C 
HETATM    3  N   UNL     1       6.555  25.323  55.760  1.00  0.00    -0.067 N 
HETATM    4  H   UNL     1       6.084  24.422  55.969  1.00  0.00     0.280 HD
HETATM    5  C   UNL     1       6.381  26.239  56.939  1.00  0.00     0.235 C 
HETATM    6  C   UNL     1       5.338  27.250  56.481  1.00  0.00     0.035 C 
ENDROOT
BRANCH   1   7
HETATM    7  C   UNL     1       6.652  28.356  54.585  1.00  0.00     0.127 C 
BRANCH   7   8
HETATM    8  N   UNL     1       6.847  29.342  55.641  1.00  0.00    -0.376 N 
HETATM    9  H   UNL     1       6.398  30.241  55.434  1.00  0.00     0.161 HD
BRANCH   8  10
HETATM   10  C   UNL     1       8.026  29.571  56.344  1.00  0.00     0.101 A 
HETATM   11  N   UNL     1       8.058  30.007  57.614  1.00  0.00    -0.347 N 
HETATM   12  C   UNL     1       9.200  30.237  58.296  1.00  0.00     0.007 A 
HETATM   13  H   UNL     1       7.183  30.147  58.102  1.00  0.00     0.167 HD
HETATM   14  C   UNL     1       9.118  30.673  59.725  1.00  0.00     0.068 C 
HETATM   15  C   UNL     1      10.426  30.047  57.662  1.00  0.00     0.025 A 
HETATM   16  C   UNL     1      10.450  29.623  56.342  1.00  0.00     0.006 A 
HETATM   17  C   UNL     1       9.250  29.385  55.683  1.00  0.00     0.048 A 
ENDBRANCH   8  10
ENDBRANCH   7   8
ENDBRANCH   1   7
BRANCH   3  18
HETATM   18  C   UNL     1       7.981  24.889  55.519  1.00  0.00     0.276 C 
BRANCH  18  19
HETATM   19  C   UNL     1       8.161  23.397  55.538  1.00  0.00     0.002 A 
HETATM   20  C   UNL     1       8.319  22.704  56.744  1.00  0.00     0.073 A 
HETATM   21  C   UNL     1       8.483  21.320  56.769  1.00  0.00     0.038 A 
HETATM   22  C   UNL     1       8.483  20.606  55.570  1.00  0.00     0.022 A 
HETATM   23  C   UNL     1       8.330  21.282  54.361  1.00  0.00     0.011 A 
HETATM   24 BR   UNL     1       8.303  20.317  52.737  1.00  0.00    -0.051 Br
HETATM   25  C   UNL     1       8.180  22.670  54.337  1.00  0.00     0.030 A 
BRANCH  20  26
HETATM   26  O   UNL     1       8.275  23.420  57.909  1.00  0.00    -0.360 OA
HETATM   27  H   UNL     1       8.992  24.089  57.876  1.00  0.00     0.217 HD
ENDBRANCH  20  26
ENDBRANCH  18  19
ENDBRANCH   3  18
TORSDOF 6
ENDMDL
MODEL 5
REMARK VINA RESULT:      -8.4      5.524      7.861
REMARK  6 active torsions:
REMARK  status: ('A' for Active; 'I' for Inactive)
REMARK    1  A    between atoms: C_5  and  N_6 
REMARK    2  A    between atoms: N_6  and  C_7 
REMARK    3  A    between atoms: C_7  and  C_8 
REMARK    4  A    between atoms: N_10  and  C_12 
REMARK    5  A    between atoms: C_12  and  C_13 
REMARK    6  A    between atoms: C_14  and  O_15 
ROOT
HETATM    1  C   UNL     1       4.555  27.325  53.571  1.00  0.00     0.031 C 
HETATM    2  C   UNL     1       5.086  25.953  53.984  1.00  0.00     0.241 C 
HETATM    3  N   UNL     1       6.065  26.220  55.102  1.00  0.00    -0.067 N 
HETATM    4  H   UNL     1       5.818  25.571  55.874  1.00  0.00     0.280 HD
HETATM    5  C   UNL     1       5.870  27.631  55.583  1.00  0.00     0.235 C 
HETATM    6  C   UNL     1       4.592  28.091  54.893  1.00  0.00     0.035 C 
ENDROOT
BRANCH   1   7
HETATM    7  C   UNL     1       5.387  27.998  52.464  1.00  0.00     0.127 C 
BRANCH   7   8
HETATM    8  N   UNL     1       5.650  27.059  51.380  1.00  0.00    -0.376 N 
HETATM    9  H   UNL     1       6.647  26.835  51.280  1.00  0.00     0.161 HD
BRANCH   8  10
HETATM   10  C   UNL     1       5.056  27.069  50.122  1.00  0.00     0.101 A 
HETATM   11  N   UNL     1       4.341  26.042  49.632  1.00  0.00    -0.347 N 
HETATM   12  C   UNL     1       3.770  26.045  48.409  1.00  0.00     0.007 A 
HETATM   13  H   UNL     1       4.196  25.229  50.216  1.00  0.00     0.167 HD
HETATM   14  C   UNL     1       2.952  24.866  47.986  1.00  0.00     0.068 C 
HETATM   15  C   UNL     1       3.940  27.151  47.578  1.00  0.00     0.025 A 
HETATM   16  C   UNL     1       4.692  28.227  48.023  1.00  0.00     0.006 A 
HETATM   17  C   UNL     1       5.250  28.186  49.296  1.00  0.00     0.048 A 
ENDBRANCH   8  10
ENDBRANCH   7   8
ENDBRANCH   1   7
BRANCH   3  18
HETATM   18  C   UNL     1       7.504  25.854  54.826  1.00  0.00     0.276 C 
BRANCH  18  19
HETATM   19  C   UNL     1       7.681  24.431  54.377  1.00  0.00     0.002 A 
HETATM   20  C   UNL     1       7.900  24.120  53.030  1.00  0.00     0.073 A 
HETATM   21  C   UNL     1       8.069  22.802  52.608  1.00  0.00     0.038 A 
HETATM   22  C   UNL     1       8.025  21.769  53.545  1.00  0.00     0.022 A 
HETATM   23  C   UNL     1       7.806  22.063  54.889  1.00  0.00     0.011 A 
HETATM   24 BR   UNL     1       7.773  20.670  56.166  1.00  0.00    -0.051 Br
HETATM   25  C   UNL     1       7.623  23.382  55.308  1.00  0.00     0.030 A 
BRANCH  20  26
HETATM   26  O   UNL     1       7.978  25.152  52.135  1.00  0.00    -0.360 OA
HETATM   27  H   UNL     1       7.135  25.177  51.634  1.00  0.00     0.217 HD
ENDBRANCH  20  26
ENDBRANCH  18  19
ENDBRANCH   3  18
TORSDOF 6
ENDMDL
MODEL 6
REMARK VINA RESULT:      -8.2      3.855      5.517
REMARK  6 active torsions:
REMARK  status: ('A' for Active; 'I' for Inactive)
REMARK    1  A    between atoms: C_5  and  N_6 
REMARK    2  A    between atoms: N_6  and  C_7 
REMARK    3  A    between atoms: C_7  and  C_8 
REMARK    4  A    between atoms: N_10  and  C_12 
REMARK    5  A    between atoms: C_12  and  C_13 
REMARK    6  A    between atoms: C_14  and  O_15 
ROOT
HETATM    1  C   UNL     1       7.669  26.435  56.473  1.00  0.00     0.031 C 
HETATM    2  C   UNL     1       7.292  27.151  55.176  1.00  0.00     0.241 C 
HETATM    3  N   UNL     1       6.111  28.024  55.527  1.00  0.00    -0.067 N 
HETATM    4  H   UNL     1       6.321  28.971  55.157  1.00  0.00     0.280 HD
HETATM    5  C   UNL     1       6.004  28.107  57.024  1.00  0.00     0.235 C 
HETATM    6  C   UNL     1       7.294  27.474  57.530  1.00  0.00     0.035 C 
ENDROOT
BRANCH   1   7
HETATM    7  C   UNL     1       6.940  25.092  56.667  1.00  0.00     0.127 C 
BRANCH   7   8
HETATM    8  N   UNL     1       7.039  24.278  55.462  1.00  0.00    -0.376 N 
HETATM    9  H   UNL     1       6.203  24.340  54.869  1.00  0.00     0.161 HD
BRANCH   8  10
HETATM   10  C   UNL     1       7.564  22.992  55.378  1.00  0.00     0.101 A 
HETATM   11  N   UNL     1       7.645  22.298  54.232  1.00  0.00    -0.347 N 
HETATM   12  C   UNL     1       8.146  21.047  54.149  1.00  0.00     0.007 A 
HETATM   13  H   UNL     1       7.340  22.739  53.374  1.00  0.00     0.167 HD
HETATM   14  C   UNL     1       8.235  20.387  52.810  1.00  0.00     0.068 C 
HETATM   15  C   UNL     1       8.586  20.408  55.307  1.00  0.00     0.025 A 
HETATM   16  C   UNL     1       8.500  21.071  56.522  1.00  0.00     0.006 A 
HETATM   17  C   UNL     1       7.989  22.363  56.558  1.00  0.00     0.048 A 
ENDBRANCH   8  10
ENDBRANCH   7   8
ENDBRANCH   1   7
BRANCH   3  18
HETATM   18  C   UNL     1       4.812  27.692  54.832  1.00  0.00     0.276 C 
BRANCH  18  19
HETATM   19  C   UNL     1       4.981  27.373  53.373  1.00  0.00     0.002 A 
HETATM   20  C   UNL     1       4.940  26.052  52.912  1.00  0.00     0.073 A 
HETATM   21  C   UNL     1       5.093  25.750  51.560  1.00  0.00     0.038 A 
HETATM   22  C   UNL     1       5.285  26.783  50.643  1.00  0.00     0.022 A 
HETATM   23  C   UNL     1       5.331  28.103  51.086  1.00  0.00     0.011 A 
HETATM   24 BR   UNL     1       5.564  29.508  49.844  1.00  0.00    -0.051 Br
HETATM   25  C   UNL     1       5.191  28.403  52.442  1.00  0.00     0.030 A 
BRANCH  20  26
HETATM   26  O   UNL     1       4.711  25.058  53.825  1.00  0.00    -0.360 OA
HETATM   27  H   UNL     1       5.572  24.822  54.232  1.00  0.00     0.217 HD
ENDBRANCH  20  26
ENDBRANCH  18  19
ENDBRANCH   3  18
TORSDOF 6
ENDMDL
MODEL 7
REMARK VINA RESULT:      -8.2      2.426      3.364
REMARK  6 active torsions:
REMARK  status: ('A' for Active; 'I' for Inactive)
REMARK    1  A    between atoms: C_5  and  N_6 
REMARK    2  A    between atoms: N_6  and  C_7 
REMARK    3  A    between atoms: C_7  and  C_8 
REMARK    4  A    between atoms: N_10  and  C_12 
REMARK    5  A    between atoms: C_12  and  C_13 
REMARK    6  A    between atoms: C_14  and  O_15 
ROOT
HETATM    1  C   UNL     1       5.971  25.532  52.760  1.00  0.00     0.031 C 
HETATM    2  C   UNL     1       5.547  25.398  54.222  1.00  0.00     0.241 C 
HETATM    3  N   UNL     1       5.973  26.686  54.886  1.00  0.00    -0.067 N 
HETATM    4  H   UNL     1       5.151  27.033  55.417  1.00  0.00     0.280 HD
HETATM    5  C   UNL     1       6.309  27.687  53.816  1.00  0.00     0.235 C 
HETATM    6  C   UNL     1       5.828  27.036  52.526  1.00  0.00     0.035 C 
ENDROOT
BRANCH   1   7
HETATM    7  C   UNL     1       7.394  25.014  52.483  1.00  0.00     0.127 C 
BRANCH   7   8
HETATM    8  N   UNL     1       7.956  24.400  53.680  1.00  0.00    -0.376 N 
HETATM    9  H   UNL     1       8.824  24.852  53.990  1.00  0.00     0.161 HD
BRANCH   8  10
HETATM   10  C   UNL     1       8.031  23.037  53.947  1.00  0.00     0.101 A 
HETATM   11  N   UNL     1       8.219  22.532  55.177  1.00  0.00    -0.347 N 
HETATM   12  C   UNL     1       8.299  21.210  55.439  1.00  0.00     0.007 A 
HETATM   13  H   UNL     1       8.277  23.169  55.961  1.00  0.00     0.167 HD
HETATM   14  C   UNL     1       8.459  20.757  56.856  1.00  0.00     0.068 C 
HETATM   15  C   UNL     1       8.215  20.299  54.388  1.00  0.00     0.025 A 
HETATM   16  C   UNL     1       8.048  20.768  53.093  1.00  0.00     0.006 A 
HETATM   17  C   UNL     1       7.956  22.137  52.873  1.00  0.00     0.048 A 
ENDBRANCH   8  10
ENDBRANCH   7   8
ENDBRANCH   1   7
BRANCH   3  18
HETATM   18  C   UNL     1       7.020  26.560  55.966  1.00  0.00     0.276 C 
BRANCH  18  19
HETATM   19  C   UNL     1       7.328  27.861  56.653  1.00  0.00     0.002 A 
HETATM   20  C   UNL     1       6.321  28.597  57.290  1.00  0.00     0.073 A 
HETATM   21  C   UNL     1       6.600  29.802  57.931  1.00  0.00     0.038 A 
HETATM   22  C   UNL     1       7.909  30.286  57.947  1.00  0.00     0.022 A 
HETATM   23  C   UNL     1       8.921  29.566  57.315  1.00  0.00     0.011 A 
HETATM   24 BR   UNL     1      10.699  30.203  57.357  1.00  0.00    -0.051 Br
HETATM   25  C   UNL     1       8.637  28.366  56.661  1.00  0.00     0.030 A 
BRANCH  20  26
HETATM   26  O   UNL     1       5.053  28.083  57.296  1.00  0.00    -0.360 OA
HETATM   27  H   UNL     1       4.580  28.464  58.066  1.00  0.00     0.217 HD
ENDBRANCH  20  26
ENDBRANCH  18  19
ENDBRANCH   3  18
TORSDOF 6
ENDMDL
MODEL 8
REMARK VINA RESULT:      -8.1      6.321      8.472
REMARK  6 active torsions:
REMARK  status: ('A' for Active; 'I' for Inactive)
REMARK    1  A    between atoms: C_5  and  N_6 
REMARK    2  A    between atoms: N_6  and  C_7 
REMARK    3  A    between atoms: C_7  and  C_8 
REMARK    4  A    between atoms: N_10  and  C_12 
REMARK    5  A    between atoms: C_12  and  C_13 
REMARK    6  A    between atoms: C_14  and  O_15 
ROOT
HETATM    1  C   UNL     1       4.586  27.448  52.346  1.00  0.00     0.031 C 
HETATM    2  C   UNL     1       5.017  26.055  52.804  1.00  0.00     0.241 C 
HETATM    3  N   UNL     1       6.123  26.284  53.805  1.00  0.00    -0.067 N 
HETATM    4  H   UNL     1       5.891  25.713  54.641  1.00  0.00     0.280 HD
HETATM    5  C   UNL     1       6.118  27.734  54.201  1.00  0.00     0.235 C 
HETATM    6  C   UNL     1       4.830  28.284  53.603  1.00  0.00     0.035 C 
ENDROOT
BRANCH   1   7
HETATM    7  C   UNL     1       5.367  27.962  51.123  1.00  0.00     0.127 C 
BRANCH   7   8
HETATM    8  N   UNL     1       5.317  26.988  50.039  1.00  0.00    -0.376 N 
HETATM    9  H   UNL     1       6.235  26.819  49.612  1.00  0.00     0.161 HD
BRANCH   8  10
HETATM   10  C   UNL     1       4.334  26.898  49.059  1.00  0.00     0.101 A 
HETATM   11  N   UNL     1       3.777  27.968  48.468  1.00  0.00    -0.347 N 
HETATM   12  C   UNL     1       2.818  27.884  47.522  1.00  0.00     0.007 A 
HETATM   13  H   UNL     1       4.108  28.890  48.720  1.00  0.00     0.167 HD
HETATM   14  C   UNL     1       2.305  29.142  46.894  1.00  0.00     0.068 C 
HETATM   15  C   UNL     1       2.341  26.632  47.140  1.00  0.00     0.025 A 
HETATM   16  C   UNL     1       2.863  25.495  47.738  1.00  0.00     0.006 A 
HETATM   17  C   UNL     1       3.859  25.628  48.698  1.00  0.00     0.048 A 
ENDBRANCH   8  10
ENDBRANCH   7   8
ENDBRANCH   1   7
BRANCH   3  18
HETATM   18  C   UNL     1       7.484  25.752  53.423  1.00  0.00     0.276 C 
BRANCH  18  19
HETATM   19  C   UNL     1       7.821  24.447  54.087  1.00  0.00     0.002 A 
HETATM   20  C   UNL     1       8.040  24.374  55.468  1.00  0.00     0.073 A 
HETATM   21  C   UNL     1       8.350  23.166  56.090  1.00  0.00     0.038 A 
HETATM   22  C   UNL     1       8.439  22.002  55.326  1.00  0.00     0.022 A 
HETATM   23  C   UNL     1       8.226  22.059  53.950  1.00  0.00     0.011 A 
HETATM   24 BR   UNL     1       8.319  20.481  52.915  1.00  0.00    -0.051 Br
HETATM   25  C   UNL     1       7.929  23.272  53.326  1.00  0.00     0.030 A 
BRANCH  20  26
HETATM   26  O   UNL     1       7.909  25.521  56.203  1.00  0.00    -0.360 OA
HETATM   27  H   UNL     1       8.379  26.237  55.725  1.00  0.00     0.217 HD
ENDBRANCH  20  26
ENDBRANCH  18  19
ENDBRANCH   3  18
TORSDOF 6
ENDMDL
MODEL 9
REMARK VINA RESULT:      -8.0      3.130      4.215
REMARK  6 active torsions:
REMARK  status: ('A' for Active; 'I' for Inactive)
REMARK    1  A    between atoms: C_5  and  N_6 
REMARK    2  A    between atoms: N_6  and  C_7 
REMARK    3  A    between atoms: C_7  and  C_8 
REMARK    4  A    between atoms: N_10  and  C_12 
REMARK    5  A    between atoms: C_12  and  C_13 
REMARK    6  A    between atoms: C_14  and  O_15 
ROOT
HETATM    1  C   UNL     1       5.079  25.459  52.438  1.00  0.00     0.031 C 
HETATM    2  C   UNL     1       5.105  26.507  53.550  1.00  0.00     0.241 C 
HETATM    3  N   UNL     1       5.699  27.746  52.923  1.00  0.00    -0.067 N 
HETATM    4  H   UNL     1       5.067  28.534  53.166  1.00  0.00     0.280 HD
HETATM    5  C   UNL     1       5.698  27.574  51.430  1.00  0.00     0.235 C 
HETATM    6  C   UNL     1       4.863  26.322  51.194  1.00  0.00     0.035 C 
ENDROOT
BRANCH   1   7
HETATM    7  C   UNL     1       6.361  24.610  52.364  1.00  0.00     0.127 C 
BRANCH   7   8
HETATM    8  N   UNL     1       6.721  24.111  53.685  1.00  0.00    -0.376 N 
HETATM    9  H   UNL     1       7.123  24.837  54.289  1.00  0.00     0.161 HD
BRANCH   8  10
HETATM   10  C   UNL     1       7.331  22.892  53.966  1.00  0.00     0.101 A 
HETATM   11  N   UNL     1       7.576  22.456  55.212  1.00  0.00    -0.347 N 
HETATM   12  C   UNL     1       8.175  21.278  55.488  1.00  0.00     0.007 A 
HETATM   13  H   UNL     1       7.274  23.023  55.994  1.00  0.00     0.167 HD
HETATM   14  C   UNL     1       8.351  20.869  56.916  1.00  0.00     0.068 C 
HETATM   15  C   UNL     1       8.597  20.464  54.439  1.00  0.00     0.025 A 
HETATM   16  C   UNL     1       8.393  20.879  53.132  1.00  0.00     0.006 A 
HETATM   17  C   UNL     1       7.761  22.094  52.895  1.00  0.00     0.048 A 
ENDBRANCH   8  10
ENDBRANCH   7   8
ENDBRANCH   1   7
BRANCH   3  18
HETATM   18  C   UNL     1       7.018  28.209  53.492  1.00  0.00     0.276 C 
BRANCH  18  19
HETATM   19  C   UNL     1       7.134  28.000  54.976  1.00  0.00     0.002 A 
HETATM   20  C   UNL     1       6.657  28.957  55.880  1.00  0.00     0.073 A 
HETATM   21  C   UNL     1       6.758  28.768  57.256  1.00  0.00     0.038 A 
HETATM   22  C   UNL     1       7.341  27.599  57.749  1.00  0.00     0.022 A 
HETATM   23  C   UNL     1       7.823  26.639  56.862  1.00  0.00     0.011 A 
HETATM   24 BR   UNL     1       8.588  25.043  57.523  1.00  0.00    -0.051 Br
HETATM   25  C   UNL     1       7.733  26.836  55.483  1.00  0.00     0.030 A 
BRANCH  20  26
HETATM   26  O   UNL     1       6.054  30.076  55.374  1.00  0.00    -0.360 OA
HETATM   27  H   UNL     1       6.057  30.761  56.077  1.00  0.00     0.217 HD
ENDBRANCH  20  26
ENDBRANCH  18  19
ENDBRANCH   3  18
TORSDOF 6
ENDMDL
MODEL 10
REMARK VINA RESULT:      -8.0      2.106      3.064
REMARK  6 active torsions:
REMARK  status: ('A' for Active; 'I' for Inactive)
REMARK    1  A    between atoms: C_5  and  N_6 
REMARK    2  A    between atoms: N_6  and  C_7 
REMARK    3  A    between atoms: C_7  and  C_8 
REMARK    4  A    between atoms: N_10  and  C_12 
REMARK    5  A    between atoms: C_12  and  C_13 
REMARK    6  A    between atoms: C_14  and  O_15 
ROOT
HETATM    1  C   UNL     1       5.808  26.018  53.220  1.00  0.00     0.031 C 
HETATM    2  C   UNL     1       5.015  27.033  54.042  1.00  0.00     0.241 C 
HETATM    3  N   UNL     1       6.033  27.733  54.910  1.00  0.00    -0.067 N 
HETATM    4  H   UNL     1       5.866  28.752  54.802  1.00  0.00     0.280 HD
HETATM    5  C   UNL     1       7.406  27.415  54.388  1.00  0.00     0.235 C 
HETATM    6  C   UNL     1       7.153  26.726  53.053  1.00  0.00     0.035 C 
ENDROOT
BRANCH   1   7
HETATM    7  C   UNL     1       5.935  24.642  53.900  1.00  0.00     0.127 C 
BRANCH   7   8
HETATM    8  N   UNL     1       7.030  23.881  53.312  1.00  0.00    -0.376 N 
HETATM    9  H   UNL     1       6.998  23.863  52.286  1.00  0.00     0.161 HD
BRANCH   8  10
HETATM   10  C   UNL     1       7.529  22.667  53.774  1.00  0.00     0.101 A 
HETATM   11  N   UNL     1       7.722  22.392  55.074  1.00  0.00    -0.347 N 
HETATM   12  C   UNL     1       8.213  21.218  55.525  1.00  0.00     0.007 A 
HETATM   13  H   UNL     1       7.463  23.087  55.762  1.00  0.00     0.167 HD
HETATM   14  C   UNL     1       8.338  21.001  57.000  1.00  0.00     0.068 C 
HETATM   15  C   UNL     1       8.574  20.231  54.610  1.00  0.00     0.025 A 
HETATM   16  C   UNL     1       8.421  20.473  53.254  1.00  0.00     0.006 A 
HETATM   17  C   UNL     1       7.899  21.691  52.835  1.00  0.00     0.048 A 
ENDBRANCH   8  10
ENDBRANCH   7   8
ENDBRANCH   1   7
BRANCH   3  18
HETATM   18  C   UNL     1       5.878  27.541  56.399  1.00  0.00     0.276 C 
BRANCH  18  19
HETATM   19  C   UNL     1       6.400  28.696  57.207  1.00  0.00     0.002 A 
HETATM   20  C   UNL     1       7.610  28.601  57.905  1.00  0.00     0.073 A 
HETATM   21  C   UNL     1       8.102  29.669  58.652  1.00  0.00     0.038 A 
HETATM   22  C   UNL     1       7.380  30.862  58.704  1.00  0.00     0.022 A 
HETATM   23  C   UNL     1       6.173  30.971  58.017  1.00  0.00     0.011 A 
HETATM   24 BR   UNL     1       5.205  32.593  58.061  1.00  0.00    -0.051 Br
HETATM   25  C   UNL     1       5.675  29.895  57.279  1.00  0.00     0.030 A 
BRANCH  20  26
HETATM   26  O   UNL     1       8.321  27.435  57.807  1.00  0.00    -0.360 OA
HETATM   27  H   UNL     1       9.249  27.668  57.592  1.00  0.00     0.217 HD
ENDBRANCH  20  26
ENDBRANCH  18  19
ENDBRANCH   3  18
TORSDOF 6
ENDMDL
