MODEL 1
REMARK VINA RESULT:      -9.5      0.000      0.000
REMARK  7 active torsions:
REMARK  status: ('A' for Active; 'I' for Inactive)
REMARK    1  A    between atoms: C_2  and  O_3 
REMARK    2  A    between atoms: O_3  and  C_4 
REMARK    3  A    between atoms: C_5  and  N_6 
REMARK    4  A    between atoms: N_9  and  C_11 
REMARK    5  A    between atoms: C_11  and  C_12 
REMARK       I    between atoms: C_12  and  N_13 
REMARK    6  A    between atoms: N_13  and  C_14 
REMARK    7  A    between atoms: C_15  and  C_16 
ROOT
HETATM    1  C   UNL     1       6.544  25.398  57.341  1.00  0.00     0.275 C 
HETATM    2  C   UNL     1       5.068  25.120  57.082  1.00  0.00     0.050 C 
ENDROOT
BRANCH   1   3
HETATM    3  N   UNL     1       6.896  26.860  56.997  1.00  0.00    -0.056 N 
HETATM    4  C   UNL     1       5.749  27.687  56.397  1.00  0.00     0.255 C 
HETATM    5  C   UNL     1       6.296  29.043  55.902  1.00  0.00     0.150 C 
HETATM    6  N   UNL     1       6.967  29.761  57.000  1.00  0.00    -0.375 N 
HETATM    7  C   UNL     1       8.076  29.008  57.625  1.00  0.00     0.150 C 
HETATM    8  C   UNL     1       7.598  27.622  58.111  1.00  0.00     0.255 C 
HETATM    9  H   UNL     1       7.564  26.771  56.213  1.00  0.00     0.281 HD
BRANCH   6  10
HETATM   10  C   UNL     1       6.275  30.710  57.770  1.00  0.00     0.064 A 
HETATM   11  C   UNL     1       6.941  31.646  58.611  1.00  0.00     0.095 A 
HETATM   12  C   UNL     1       6.210  32.591  59.352  1.00  0.00     0.039 A 
HETATM   13  C   UNL     1       4.821  32.639  59.277  1.00  0.00     0.003 A 
HETATM   14  C   UNL     1       4.150  31.752  58.451  1.00  0.00     0.002 A 
HETATM   15  C   UNL     1       4.869  30.813  57.707  1.00  0.00     0.032 A 
BRANCH  11  16
HETATM   16  O   UNL     1       8.318  31.622  58.606  1.00  0.00    -0.349 OA
BRANCH  16  17
HETATM   17  C   UNL     1       8.998  32.013  59.798  1.00  0.00     0.171 C 
HETATM   18  C   UNL     1       9.172  30.778  60.663  1.00  0.00     0.034 C 
ENDBRANCH  16  17
ENDBRANCH  11  16
ENDBRANCH   6  10
ENDBRANCH   1   3
BRANCH   1  19
HETATM   19  C   UNL     1       7.484  24.440  56.566  1.00  0.00     0.253 C 
HETATM   20  N   UNL     1       6.880  23.326  56.030  1.00  0.00    -0.325 N 
HETATM   21  H   UNL     1       5.970  23.045  56.384  1.00  0.00     0.169 HD
HETATM   22  O   UNL     1       8.684  24.713  56.518  1.00  0.00    -0.271 OA
BRANCH  20  23
HETATM   23  C   UNL     1       7.427  22.446  55.057  1.00  0.00     0.045 A 
HETATM   24  C   UNL     1       7.528  22.894  53.716  1.00  0.00     0.001 A 
HETATM   25  C   UNL     1       8.160  22.064  52.770  1.00  0.00     0.014 A 
HETATM   26  C   UNL     1       8.675  20.820  53.133  1.00  0.00     0.001 A 
HETATM   27  C   UNL     1       8.559  20.382  54.445  1.00  0.00     0.002 A 
HETATM   28  C   UNL     1       7.939  21.188  55.403  1.00  0.00     0.030 A 
BRANCH  24  29
HETATM   29  C   UNL     1       6.966  24.176  53.260  1.00  0.00    -0.024 A 
HETATM   30  C   UNL     1       5.604  24.298  52.947  1.00  0.00     0.012 A 
HETATM   31  C   UNL     1       5.077  25.519  52.519  1.00  0.00     0.001 A 
HETATM   32  C   UNL     1       5.905  26.634  52.399  1.00  0.00     0.000 A 
HETATM   33  C   UNL     1       7.259  26.531  52.711  1.00  0.00     0.001 A 
HETATM   34  C   UNL     1       7.785  25.312  53.141  1.00  0.00     0.012 A 
ENDBRANCH  24  29
ENDBRANCH  20  23
ENDBRANCH   1  19
TORSDOF 7
ENDMDL
MODEL 2
REMARK VINA RESULT:      -9.5      4.349      7.439
REMARK  7 active torsions:
REMARK  status: ('A' for Active; 'I' for Inactive)
REMARK    1  A    between atoms: C_2  and  O_3 
REMARK    2  A    between atoms: O_3  and  C_4 
REMARK    3  A    between atoms: C_5  and  N_6 
REMARK    4  A    between atoms: N_9  and  C_11 
REMARK    5  A    between atoms: C_11  and  C_12 
REMARK       I    between atoms: C_12  and  N_13 
REMARK    6  A    between atoms: N_13  and  C_14 
REMARK    7  A    between atoms: C_15  and  C_16 
ROOT
HETATM    1  C   UNL     1       6.847  26.350  52.504  1.00  0.00     0.275 C 
HETATM    2  C   UNL     1       7.206  27.164  53.741  1.00  0.00     0.050 C 
ENDROOT
BRANCH   1   3
HETATM    3  N   UNL     1       5.569  26.900  51.836  1.00  0.00    -0.056 N 
HETATM    4  C   UNL     1       5.157  28.313  52.272  1.00  0.00     0.255 C 
HETATM    5  C   UNL     1       3.762  28.642  51.702  1.00  0.00     0.150 C 
HETATM    6  N   UNL     1       3.758  28.503  50.234  1.00  0.00    -0.375 N 
HETATM    7  C   UNL     1       4.158  27.164  49.754  1.00  0.00     0.150 C 
HETATM    8  C   UNL     1       5.537  26.760  50.321  1.00  0.00     0.255 C 
HETATM    9  H   UNL     1       4.819  26.301  52.219  1.00  0.00     0.281 HD
BRANCH   6  10
HETATM   10  C   UNL     1       3.981  29.615  49.405  1.00  0.00     0.064 A 
HETATM   11  C   UNL     1       3.046  30.031  48.415  1.00  0.00     0.095 A 
HETATM   12  C   UNL     1       3.301  31.161  47.619  1.00  0.00     0.039 A 
HETATM   13  C   UNL     1       4.469  31.901  47.780  1.00  0.00     0.003 A 
HETATM   14  C   UNL     1       5.386  31.528  48.749  1.00  0.00     0.002 A 
HETATM   15  C   UNL     1       5.138  30.410  49.550  1.00  0.00     0.032 A 
BRANCH  11  16
HETATM   16  O   UNL     1       1.868  29.324  48.331  1.00  0.00    -0.349 OA
BRANCH  16  17
HETATM   17  C   UNL     1       1.681  28.468  47.204  1.00  0.00     0.171 C 
HETATM   18  C   UNL     1       0.988  27.206  47.686  1.00  0.00     0.034 C 
ENDBRANCH  16  17
ENDBRANCH  11  16
ENDBRANCH   6  10
ENDBRANCH   1   3
BRANCH   1  19
HETATM   19  C   UNL     1       6.669  24.840  52.806  1.00  0.00     0.253 C 
HETATM   20  N   UNL     1       7.825  24.158  53.110  1.00  0.00    -0.325 N 
HETATM   21  H   UNL     1       8.717  24.573  52.857  1.00  0.00     0.169 HD
HETATM   22  O   UNL     1       5.540  24.357  52.716  1.00  0.00    -0.271 OA
BRANCH  20  23
HETATM   23  C   UNL     1       7.923  22.865  53.689  1.00  0.00     0.045 A 
HETATM   24  C   UNL     1       7.744  22.731  55.089  1.00  0.00     0.001 A 
HETATM   25  C   UNL     1       7.742  21.440  55.652  1.00  0.00     0.014 A 
HETATM   26  C   UNL     1       7.916  20.307  54.858  1.00  0.00     0.001 A 
HETATM   27  C   UNL     1       8.105  20.447  53.489  1.00  0.00     0.002 A 
HETATM   28  C   UNL     1       8.109  21.717  52.906  1.00  0.00     0.030 A 
BRANCH  24  29
HETATM   29  C   UNL     1       7.599  23.889  55.987  1.00  0.00    -0.024 A 
HETATM   30  C   UNL     1       6.340  24.447  56.248  1.00  0.00     0.012 A 
HETATM   31  C   UNL     1       6.210  25.545  57.104  1.00  0.00     0.001 A 
HETATM   32  C   UNL     1       7.338  26.097  57.708  1.00  0.00     0.000 A 
HETATM   33  C   UNL     1       8.596  25.552  57.462  1.00  0.00     0.001 A 
HETATM   34  C   UNL     1       8.725  24.454  56.609  1.00  0.00     0.012 A 
ENDBRANCH  24  29
ENDBRANCH  20  23
ENDBRANCH   1  19
TORSDOF 7
ENDMDL
MODEL 3
REMARK VINA RESULT:      -9.3      1.996      9.751
REMARK  7 active torsions:
REMARK  status: ('A' for Active; 'I' for Inactive)
REMARK    1  A    between atoms: C_2  and  O_3 
REMARK    2  A    between atoms: O_3  and  C_4 
REMARK    3  A    between atoms: C_5  and  N_6 
REMARK    4  A    between atoms: N_9  and  C_11 
REMARK    5  A    between atoms: C_11  and  C_12 
REMARK       I    between atoms: C_12  and  N_13 
REMARK    6  A    between atoms: N_13  and  C_14 
REMARK    7  A    between atoms: C_15  and  C_16 
ROOT
HETATM    1  C   UNL     1       6.875  29.347  57.650  1.00  0.00     0.275 C 
HETATM    2  C   UNL     1       8.359  29.499  57.959  1.00  0.00     0.050 C 
ENDROOT
BRANCH   1   3
HETATM    3  N   UNL     1       6.665  28.738  56.248  1.00  0.00    -0.056 N 
HETATM    4  C   UNL     1       7.950  28.445  55.461  1.00  0.00     0.255 C 
HETATM    5  C   UNL     1       7.589  28.053  54.013  1.00  0.00     0.150 C 
HETATM    6  N   UNL     1       6.672  26.900  54.003  1.00  0.00    -0.375 N 
HETATM    7  C   UNL     1       5.418  27.120  54.756  1.00  0.00     0.150 C 
HETATM    8  C   UNL     1       5.713  27.551  56.210  1.00  0.00     0.255 C 
HETATM    9  H   UNL     1       6.225  29.506  55.714  1.00  0.00     0.281 HD
BRANCH   6  10
HETATM   10  C   UNL     1       7.161  25.590  53.872  1.00  0.00     0.064 A 
HETATM   11  C   UNL     1       7.194  24.907  52.623  1.00  0.00     0.095 A 
HETATM   12  C   UNL     1       7.710  23.602  52.533  1.00  0.00     0.039 A 
HETATM   13  C   UNL     1       8.203  22.949  53.659  1.00  0.00     0.003 A 
HETATM   14  C   UNL     1       8.201  23.599  54.882  1.00  0.00     0.002 A 
HETATM   15  C   UNL     1       7.696  24.898  54.980  1.00  0.00     0.032 A 
BRANCH  11  16
HETATM   16  O   UNL     1       6.768  25.606  51.516  1.00  0.00    -0.349 OA
BRANCH  16  17
HETATM   17  C   UNL     1       5.367  25.648  51.250  1.00  0.00     0.171 C 
HETATM   18  C   UNL     1       5.043  27.009  50.661  1.00  0.00     0.034 C 
ENDBRANCH  16  17
ENDBRANCH  11  16
ENDBRANCH   6  10
ENDBRANCH   1   3
BRANCH   1  19
HETATM   19  C   UNL     1       6.095  30.683  57.760  1.00  0.00     0.253 C 
HETATM   20  N   UNL     1       5.445  30.890  58.954  1.00  0.00    -0.325 N 
HETATM   21  H   UNL     1       5.270  30.094  59.560  1.00  0.00     0.169 HD
HETATM   22  O   UNL     1       6.079  31.430  56.781  1.00  0.00    -0.271 OA
BRANCH  20  23
HETATM   23  C   UNL     1       4.903  32.116  59.427  1.00  0.00     0.045 A 
HETATM   24  C   UNL     1       5.673  32.900  60.322  1.00  0.00     0.001 A 
HETATM   25  C   UNL     1       5.183  34.160  60.714  1.00  0.00     0.014 A 
HETATM   26  C   UNL     1       3.961  34.637  60.241  1.00  0.00     0.001 A 
HETATM   27  C   UNL     1       3.205  33.857  59.375  1.00  0.00     0.002 A 
HETATM   28  C   UNL     1       3.671  32.604  58.970  1.00  0.00     0.030 A 
BRANCH  24  29
HETATM   29  C   UNL     1       6.949  32.434  60.891  1.00  0.00    -0.024 A 
HETATM   30  C   UNL     1       6.997  31.821  62.152  1.00  0.00     0.012 A 
HETATM   31  C   UNL     1       8.211  31.379  62.684  1.00  0.00     0.001 A 
HETATM   32  C   UNL     1       9.392  31.544  61.962  1.00  0.00     0.000 A 
HETATM   33  C   UNL     1       9.361  32.148  60.706  1.00  0.00     0.001 A 
HETATM   34  C   UNL     1       8.147  32.587  60.174  1.00  0.00     0.012 A 
ENDBRANCH  24  29
ENDBRANCH  20  23
ENDBRANCH   1  19
TORSDOF 7
ENDMDL
MODEL 4
REMARK VINA RESULT:      -9.1      1.806      9.646
REMARK  7 active torsions:
REMARK  status: ('A' for Active; 'I' for Inactive)
REMARK    1  A    between atoms: C_2  and  O_3 
REMARK    2  A    between atoms: O_3  and  C_4 
REMARK    3  A    between atoms: C_5  and  N_6 
REMARK    4  A    between atoms: N_9  and  C_11 
REMARK    5  A    between atoms: C_11  and  C_12 
REMARK       I    between atoms: C_12  and  N_13 
REMARK    6  A    between atoms: N_13  and  C_14 
REMARK    7  A    between atoms: C_15  and  C_16 
ROOT
HETATM    1  C   UNL     1       5.813  30.429  56.671  1.00  0.00     0.275 C 
HETATM    2  C   UNL     1       4.979  30.643  55.414  1.00  0.00     0.050 C 
ENDROOT
BRANCH   1   3
HETATM    3  N   UNL     1       6.166  28.937  56.849  1.00  0.00    -0.056 N 
HETATM    4  C   UNL     1       5.197  27.951  56.181  1.00  0.00     0.255 C 
HETATM    5  C   UNL     1       5.542  26.512  56.621  1.00  0.00     0.150 C 
HETATM    6  N   UNL     1       6.946  26.196  56.301  1.00  0.00    -0.375 N 
HETATM    7  C   UNL     1       7.926  27.121  56.908  1.00  0.00     0.150 C 
HETATM    8  C   UNL     1       7.613  28.587  56.532  1.00  0.00     0.255 C 
HETATM    9  H   UNL     1       6.020  28.772  57.858  1.00  0.00     0.281 HD
BRANCH   6  10
HETATM   10  C   UNL     1       7.282  25.544  55.103  1.00  0.00     0.064 A 
HETATM   11  C   UNL     1       7.489  24.137  55.030  1.00  0.00     0.095 A 
HETATM   12  C   UNL     1       7.807  23.522  53.806  1.00  0.00     0.039 A 
HETATM   13  C   UNL     1       7.923  24.271  52.639  1.00  0.00     0.003 A 
HETATM   14  C   UNL     1       7.707  25.639  52.680  1.00  0.00     0.002 A 
HETATM   15  C   UNL     1       7.385  26.258  53.890  1.00  0.00     0.032 A 
BRANCH  11  16
HETATM   16  O   UNL     1       7.294  23.415  56.186  1.00  0.00    -0.349 OA
BRANCH  16  17
HETATM   17  C   UNL     1       8.444  22.896  56.852  1.00  0.00     0.171 C 
HETATM   18  C   UNL     1       8.404  21.382  56.742  1.00  0.00     0.034 C 
ENDBRANCH  16  17
ENDBRANCH  11  16
ENDBRANCH   6  10
ENDBRANCH   1   3
BRANCH   1  19
HETATM   19  C   UNL     1       5.120  30.956  57.954  1.00  0.00     0.253 C 
HETATM   20  N   UNL     1       5.772  31.984  58.597  1.00  0.00    -0.325 N 
HETATM   21  H   UNL     1       6.752  32.146  58.389  1.00  0.00     0.169 HD
HETATM   22  O   UNL     1       4.081  30.408  58.321  1.00  0.00    -0.271 OA
BRANCH  20  23
HETATM   23  C   UNL     1       5.239  32.828  59.608  1.00  0.00     0.045 A 
HETATM   24  C   UNL     1       6.001  33.046  60.783  1.00  0.00     0.001 A 
HETATM   25  C   UNL     1       5.523  33.960  61.742  1.00  0.00     0.014 A 
HETATM   26  C   UNL     1       4.320  34.639  61.553  1.00  0.00     0.001 A 
HETATM   27  C   UNL     1       3.572  34.409  60.406  1.00  0.00     0.002 A 
HETATM   28  C   UNL     1       4.026  33.509  59.438  1.00  0.00     0.030 A 
BRANCH  24  29
HETATM   29  C   UNL     1       7.256  32.328  61.062  1.00  0.00    -0.024 A 
HETATM   30  C   UNL     1       7.332  31.377  62.090  1.00  0.00     0.012 A 
HETATM   31  C   UNL     1       8.525  30.697  62.346  1.00  0.00     0.001 A 
HETATM   32  C   UNL     1       9.658  30.959  61.577  1.00  0.00     0.000 A 
HETATM   33  C   UNL     1       9.598  31.897  60.549  1.00  0.00     0.001 A 
HETATM   34  C   UNL     1       8.405  32.575  60.291  1.00  0.00     0.012 A 
ENDBRANCH  24  29
ENDBRANCH  20  23
ENDBRANCH   1  19
TORSDOF 7
ENDMDL
MODEL 5
REMARK VINA RESULT:      -9.0      4.557      7.865
REMARK  7 active torsions:
REMARK  status: ('A' for Active; 'I' for Inactive)
REMARK    1  A    between atoms: C_2  and  O_3 
REMARK    2  A    between atoms: O_3  and  C_4 
REMARK    3  A    between atoms: C_5  and  N_6 
REMARK    4  A    between atoms: N_9  and  C_11 
REMARK    5  A    between atoms: C_11  and  C_12 
REMARK       I    between atoms: C_12  and  N_13 
REMARK    6  A    between atoms: N_13  and  C_14 
REMARK    7  A    between atoms: C_15  and  C_16 
ROOT
HETATM    1  C   UNL     1       4.657  25.788  52.880  1.00  0.00     0.275 C 
HETATM    2  C   UNL     1       5.038  24.450  52.261  1.00  0.00     0.050 C 
ENDROOT
BRANCH   1   3
HETATM    3  N   UNL     1       4.741  26.921  51.836  1.00  0.00    -0.056 N 
HETATM    4  C   UNL     1       4.967  26.462  50.388  1.00  0.00     0.255 C 
HETATM    5  C   UNL     1       5.250  27.690  49.497  1.00  0.00     0.150 C 
HETATM    6  N   UNL     1       4.147  28.664  49.593  1.00  0.00    -0.375 N 
HETATM    7  C   UNL     1       3.876  29.134  50.968  1.00  0.00     0.150 C 
HETATM    8  C   UNL     1       3.618  27.945  51.920  1.00  0.00     0.255 C 
HETATM    9  H   UNL     1       5.622  27.406  52.075  1.00  0.00     0.281 HD
BRANCH   6  10
HETATM   10  C   UNL     1       3.098  28.657  48.660  1.00  0.00     0.064 A 
HETATM   11  C   UNL     1       2.987  29.630  47.626  1.00  0.00     0.095 A 
HETATM   12  C   UNL     1       1.929  29.577  46.701  1.00  0.00     0.039 A 
HETATM   13  C   UNL     1       0.969  28.572  46.771  1.00  0.00     0.003 A 
HETATM   14  C   UNL     1       1.065  27.602  47.755  1.00  0.00     0.002 A 
HETATM   15  C   UNL     1       2.116  27.643  48.675  1.00  0.00     0.032 A 
BRANCH  11  16
HETATM   16  O   UNL     1       3.992  30.567  47.539  1.00  0.00    -0.349 OA
BRANCH  16  17
HETATM   17  C   UNL     1       3.663  31.929  47.810  1.00  0.00     0.171 C 
HETATM   18  C   UNL     1       4.431  32.358  49.047  1.00  0.00     0.034 C 
ENDBRANCH  16  17
ENDBRANCH  11  16
ENDBRANCH   6  10
ENDBRANCH   1   3
BRANCH   1  19
HETATM   19  C   UNL     1       5.523  26.152  54.114  1.00  0.00     0.253 C 
HETATM   20  N   UNL     1       5.789  25.112  54.975  1.00  0.00    -0.325 N 
HETATM   21  H   UNL     1       5.210  24.279  54.929  1.00  0.00     0.169 HD
HETATM   22  O   UNL     1       5.870  27.324  54.256  1.00  0.00    -0.271 OA
BRANCH  20  23
HETATM   23  C   UNL     1       6.764  25.091  56.007  1.00  0.00     0.045 A 
HETATM   24  C   UNL     1       7.807  24.133  55.940  1.00  0.00     0.001 A 
HETATM   25  C   UNL     1       8.830  24.173  56.906  1.00  0.00     0.014 A 
HETATM   26  C   UNL     1       8.825  25.130  57.920  1.00  0.00     0.001 A 
HETATM   27  C   UNL     1       7.793  26.057  57.988  1.00  0.00     0.002 A 
HETATM   28  C   UNL     1       6.768  26.039  57.040  1.00  0.00     0.030 A 
BRANCH  24  29
HETATM   29  C   UNL     1       7.845  23.070  54.921  1.00  0.00    -0.024 A 
HETATM   30  C   UNL     1       8.101  23.368  53.574  1.00  0.00     0.012 A 
HETATM   31  C   UNL     1       8.138  22.354  52.614  1.00  0.00     0.001 A 
HETATM   32  C   UNL     1       7.920  21.029  52.988  1.00  0.00     0.000 A 
HETATM   33  C   UNL     1       7.669  20.715  54.322  1.00  0.00     0.001 A 
HETATM   34  C   UNL     1       7.634  21.728  55.282  1.00  0.00     0.012 A 
ENDBRANCH  24  29
ENDBRANCH  20  23
ENDBRANCH   1  19
TORSDOF 7
ENDMDL
MODEL 6
REMARK VINA RESULT:      -9.0      1.868      9.462
REMARK  7 active torsions:
REMARK  status: ('A' for Active; 'I' for Inactive)
REMARK    1  A    between atoms: C_2  and  O_3 
REMARK    2  A    between atoms: O_3  and  C_4 
REMARK    3  A    between atoms: C_5  and  N_6 
REMARK    4  A    between atoms: N_9  and  C_11 
REMARK    5  A    between atoms: C_11  and  C_12 
REMARK       I    between atoms: C_12  and  N_13 
REMARK    6  A    between atoms: N_13  and  C_14 
REMARK    7  A    between atoms: C_15  and  C_16 
ROOT
HETATM    1  C   UNL     1       6.567  29.336  57.634  1.00  0.00     0.275 C 
HETATM    2  C   UNL     1       7.942  29.337  58.290  1.00  0.00     0.050 C 
ENDROOT
BRANCH   1   3
HETATM    3  N   UNL     1       6.666  28.922  56.151  1.00  0.00    -0.056 N 
HETATM    4  C   UNL     1       8.051  28.440  55.696  1.00  0.00     0.255 C 
HETATM    5  C   UNL     1       8.059  28.273  54.161  1.00  0.00     0.150 C 
HETATM    6  N   UNL     1       6.995  27.346  53.736  1.00  0.00    -0.375 N 
HETATM    7  C   UNL     1       5.637  27.753  54.157  1.00  0.00     0.150 C 
HETATM    8  C   UNL     1       5.572  27.971  55.685  1.00  0.00     0.255 C 
HETATM    9  H   UNL     1       6.541  29.812  55.642  1.00  0.00     0.281 HD
BRANCH   6  10
HETATM   10  C   UNL     1       7.263  25.981  53.543  1.00  0.00     0.064 A 
HETATM   11  C   UNL     1       7.181  25.028  54.598  1.00  0.00     0.095 A 
HETATM   12  C   UNL     1       7.440  23.667  54.357  1.00  0.00     0.039 A 
HETATM   13  C   UNL     1       7.779  23.219  53.083  1.00  0.00     0.003 A 
HETATM   14  C   UNL     1       7.847  24.123  52.036  1.00  0.00     0.002 A 
HETATM   15  C   UNL     1       7.585  25.476  52.265  1.00  0.00     0.032 A 
BRANCH  11  16
HETATM   16  O   UNL     1       6.772  25.491  55.828  1.00  0.00    -0.349 OA
BRANCH  16  17
HETATM   17  C   UNL     1       7.154  24.746  56.984  1.00  0.00     0.171 C 
HETATM   18  C   UNL     1       8.498  25.272  57.455  1.00  0.00     0.034 C 
ENDBRANCH  16  17
ENDBRANCH  11  16
ENDBRANCH   6  10
ENDBRANCH   1   3
BRANCH   1  19
HETATM   19  C   UNL     1       5.844  30.703  57.745  1.00  0.00     0.253 C 
HETATM   20  N   UNL     1       5.263  30.965  58.965  1.00  0.00    -0.325 N 
HETATM   21  H   UNL     1       5.090  30.192  59.600  1.00  0.00     0.169 HD
HETATM   22  O   UNL     1       5.805  31.424  56.749  1.00  0.00    -0.271 OA
BRANCH  20  23
HETATM   23  C   UNL     1       4.791  32.222  59.430  1.00  0.00     0.045 A 
HETATM   24  C   UNL     1       5.612  32.975  60.307  1.00  0.00     0.001 A 
HETATM   25  C   UNL     1       5.193  34.263  60.691  1.00  0.00     0.014 A 
HETATM   26  C   UNL     1       3.991  34.797  60.227  1.00  0.00     0.001 A 
HETATM   27  C   UNL     1       3.185  34.048  59.380  1.00  0.00     0.002 A 
HETATM   28  C   UNL     1       3.581  32.768  58.983  1.00  0.00     0.030 A 
BRANCH  24  29
HETATM   29  C   UNL     1       6.870  32.450  60.866  1.00  0.00    -0.024 A 
HETATM   30  C   UNL     1       8.080  32.581  60.170  1.00  0.00     0.012 A 
HETATM   31  C   UNL     1       9.270  32.084  60.709  1.00  0.00     0.001 A 
HETATM   32  C   UNL     1       9.263  31.448  61.949  1.00  0.00     0.000 A 
HETATM   33  C   UNL     1       8.070  31.313  62.655  1.00  0.00     0.001 A 
HETATM   34  C   UNL     1       6.882  31.813  62.118  1.00  0.00     0.012 A 
ENDBRANCH  24  29
ENDBRANCH  20  23
ENDBRANCH   1  19
TORSDOF 7
ENDMDL
MODEL 7
REMARK VINA RESULT:      -8.9      2.011      9.016
REMARK  7 active torsions:
REMARK  status: ('A' for Active; 'I' for Inactive)
REMARK    1  A    between atoms: C_2  and  O_3 
REMARK    2  A    between atoms: O_3  and  C_4 
REMARK    3  A    between atoms: C_5  and  N_6 
REMARK    4  A    between atoms: N_9  and  C_11 
REMARK    5  A    between atoms: C_11  and  C_12 
REMARK       I    between atoms: C_12  and  N_13 
REMARK    6  A    between atoms: N_13  and  C_14 
REMARK    7  A    between atoms: C_15  and  C_16 
ROOT
HETATM    1  C   UNL     1       9.630  29.787  57.972  1.00  0.00     0.275 C 
HETATM    2  C   UNL     1      10.762  30.073  56.993  1.00  0.00     0.050 C 
ENDROOT
BRANCH   1   3
HETATM    3  N   UNL     1       8.386  29.253  57.232  1.00  0.00    -0.056 N 
HETATM    4  C   UNL     1       8.568  29.019  55.726  1.00  0.00     0.255 C 
HETATM    5  C   UNL     1       7.201  28.702  55.084  1.00  0.00     0.150 C 
HETATM    6  N   UNL     1       6.578  27.539  55.743  1.00  0.00    -0.375 N 
HETATM    7  C   UNL     1       6.387  27.702  57.200  1.00  0.00     0.150 C 
HETATM    8  C   UNL     1       7.719  28.057  57.898  1.00  0.00     0.255 C 
HETATM    9  H   UNL     1       7.721  30.043  57.275  1.00  0.00     0.281 HD
BRANCH   6  10
HETATM   10  C   UNL     1       6.738  26.245  55.222  1.00  0.00     0.064 A 
HETATM   11  C   UNL     1       6.019  25.784  54.082  1.00  0.00     0.095 A 
HETATM   12  C   UNL     1       6.222  24.486  53.582  1.00  0.00     0.039 A 
HETATM   13  C   UNL     1       7.132  23.623  54.185  1.00  0.00     0.003 A 
HETATM   14  C   UNL     1       7.859  24.053  55.283  1.00  0.00     0.002 A 
HETATM   15  C   UNL     1       7.668  25.344  55.783  1.00  0.00     0.032 A 
BRANCH  11  16
HETATM   16  O   UNL     1       5.181  26.687  53.465  1.00  0.00    -0.349 OA
BRANCH  16  17
HETATM   17  C   UNL     1       5.056  26.620  52.045  1.00  0.00     0.171 C 
HETATM   18  C   UNL     1       5.430  27.978  51.479  1.00  0.00     0.034 C 
ENDBRANCH  16  17
ENDBRANCH  11  16
ENDBRANCH   6  10
ENDBRANCH   1   3
BRANCH   1  19
HETATM   19  C   UNL     1       9.239  31.024  58.822  1.00  0.00     0.253 C 
HETATM   20  N   UNL     1       8.240  30.813  59.745  1.00  0.00    -0.325 N 
HETATM   21  H   UNL     1       7.641  30.000  59.639  1.00  0.00     0.169 HD
HETATM   22  O   UNL     1       9.808  32.091  58.593  1.00  0.00    -0.271 OA
BRANCH  20  23
HETATM   23  C   UNL     1       7.885  31.667  60.823  1.00  0.00     0.045 A 
HETATM   24  C   UNL     1       6.676  32.403  60.739  1.00  0.00     0.001 A 
HETATM   25  C   UNL     1       6.272  33.173  61.847  1.00  0.00     0.014 A 
HETATM   26  C   UNL     1       7.041  33.222  63.009  1.00  0.00     0.001 A 
HETATM   27  C   UNL     1       8.231  32.509  63.079  1.00  0.00     0.002 A 
HETATM   28  C   UNL     1       8.652  31.737  61.994  1.00  0.00     0.030 A 
BRANCH  24  29
HETATM   29  C   UNL     1       5.843  32.428  59.525  1.00  0.00    -0.024 A 
HETATM   30  C   UNL     1       5.116  33.573  59.171  1.00  0.00     0.012 A 
HETATM   31  C   UNL     1       4.330  33.590  58.015  1.00  0.00     0.001 A 
HETATM   32  C   UNL     1       4.263  32.462  57.200  1.00  0.00     0.000 A 
HETATM   33  C   UNL     1       4.983  31.317  57.535  1.00  0.00     0.001 A 
HETATM   34  C   UNL     1       5.770  31.302  58.688  1.00  0.00     0.012 A 
ENDBRANCH  24  29
ENDBRANCH  20  23
ENDBRANCH   1  19
TORSDOF 7
ENDMDL
MODEL 8
REMARK VINA RESULT:      -8.8      2.382     10.266
REMARK  7 active torsions:
REMARK  status: ('A' for Active; 'I' for Inactive)
REMARK    1  A    between atoms: C_2  and  O_3 
REMARK    2  A    between atoms: O_3  and  C_4 
REMARK    3  A    between atoms: C_5  and  N_6 
REMARK    4  A    between atoms: N_9  and  C_11 
REMARK    5  A    between atoms: C_11  and  C_12 
REMARK       I    between atoms: C_12  and  N_13 
REMARK    6  A    between atoms: N_13  and  C_14 
REMARK    7  A    between atoms: C_15  and  C_16 
ROOT
HETATM    1  C   UNL     1       7.152  30.586  58.553  1.00  0.00     0.275 C 
HETATM    2  C   UNL     1       8.585  31.082  58.697  1.00  0.00     0.050 C 
ENDROOT
BRANCH   1   3
HETATM    3  N   UNL     1       7.008  29.672  57.318  1.00  0.00    -0.056 N 
HETATM    4  C   UNL     1       8.329  29.197  56.697  1.00  0.00     0.255 C 
HETATM    5  C   UNL     1       8.042  28.485  55.358  1.00  0.00     0.150 C 
HETATM    6  N   UNL     1       7.103  27.367  55.559  1.00  0.00    -0.375 N 
HETATM    7  C   UNL     1       5.814  27.762  56.166  1.00  0.00     0.150 C 
HETATM    8  C   UNL     1       6.037  28.515  57.497  1.00  0.00     0.255 C 
HETATM    9  H   UNL     1       6.614  30.299  56.597  1.00  0.00     0.281 HD
BRANCH   6  10
HETATM   10  C   UNL     1       7.573  26.059  55.761  1.00  0.00     0.064 A 
HETATM   11  C   UNL     1       7.543  25.068  54.738  1.00  0.00     0.095 A 
HETATM   12  C   UNL     1       8.040  23.775  54.977  1.00  0.00     0.039 A 
HETATM   13  C   UNL     1       8.577  23.433  56.215  1.00  0.00     0.003 A 
HETATM   14  C   UNL     1       8.636  24.384  57.220  1.00  0.00     0.002 A 
HETATM   15  C   UNL     1       8.150  25.674  56.990  1.00  0.00     0.032 A 
BRANCH  11  16
HETATM   16  O   UNL     1       7.074  25.458  53.503  1.00  0.00    -0.349 OA
BRANCH  16  17
HETATM   17  C   UNL     1       6.254  24.542  52.779  1.00  0.00     0.171 C 
HETATM   18  C   UNL     1       4.812  24.996  52.919  1.00  0.00     0.034 C 
ENDBRANCH  16  17
ENDBRANCH  11  16
ENDBRANCH   6  10
ENDBRANCH   1   3
BRANCH   1  19
HETATM   19  C   UNL     1       6.119  31.739  58.470  1.00  0.00     0.253 C 
HETATM   20  N   UNL     1       5.402  31.973  59.622  1.00  0.00    -0.325 N 
HETATM   21  H   UNL     1       5.370  31.249  60.333  1.00  0.00     0.169 HD
HETATM   22  O   UNL     1       5.986  32.326  57.397  1.00  0.00    -0.271 OA
BRANCH  20  23
HETATM   23  C   UNL     1       4.612  33.117  59.915  1.00  0.00     0.045 A 
HETATM   24  C   UNL     1       4.940  33.897  61.053  1.00  0.00     0.001 A 
HETATM   25  C   UNL     1       4.222  35.085  61.290  1.00  0.00     0.014 A 
HETATM   26  C   UNL     1       3.203  35.495  60.432  1.00  0.00     0.001 A 
HETATM   27  C   UNL     1       2.878  34.718  59.327  1.00  0.00     0.002 A 
HETATM   28  C   UNL     1       3.576  33.536  59.069  1.00  0.00     0.030 A 
BRANCH  24  29
HETATM   29  C   UNL     1       5.975  33.496  62.020  1.00  0.00    -0.024 A 
HETATM   30  C   UNL     1       7.219  33.013  61.589  1.00  0.00     0.012 A 
HETATM   31  C   UNL     1       8.197  32.637  62.513  1.00  0.00     0.001 A 
HETATM   32  C   UNL     1       7.944  32.740  63.879  1.00  0.00     0.000 A 
HETATM   33  C   UNL     1       6.715  33.222  64.325  1.00  0.00     0.001 A 
HETATM   34  C   UNL     1       5.738  33.600  63.401  1.00  0.00     0.012 A 
ENDBRANCH  24  29
ENDBRANCH  20  23
ENDBRANCH   1  19
TORSDOF 7
ENDMDL
MODEL 9
REMARK VINA RESULT:      -8.6      2.002      9.510
REMARK  7 active torsions:
REMARK  status: ('A' for Active; 'I' for Inactive)
REMARK    1  A    between atoms: C_2  and  O_3 
REMARK    2  A    between atoms: O_3  and  C_4 
REMARK    3  A    between atoms: C_5  and  N_6 
REMARK    4  A    between atoms: N_9  and  C_11 
REMARK    5  A    between atoms: C_11  and  C_12 
REMARK       I    between atoms: C_12  and  N_13 
REMARK    6  A    between atoms: N_13  and  C_14 
REMARK    7  A    between atoms: C_15  and  C_16 
ROOT
HETATM    1  C   UNL     1       6.758  30.417  57.560  1.00  0.00     0.275 C 
HETATM    2  C   UNL     1       5.378  31.056  57.465  1.00  0.00     0.050 C 
ENDROOT
BRANCH   1   3
HETATM    3  N   UNL     1       6.681  28.900  57.291  1.00  0.00    -0.056 N 
HETATM    4  C   UNL     1       5.281  28.362  56.964  1.00  0.00     0.255 C 
HETATM    5  C   UNL     1       5.314  26.819  56.937  1.00  0.00     0.150 C 
HETATM    6  N   UNL     1       6.319  26.341  55.971  1.00  0.00    -0.375 N 
HETATM    7  C   UNL     1       7.688  26.836  56.229  1.00  0.00     0.150 C 
HETATM    8  C   UNL     1       7.715  28.379  56.303  1.00  0.00     0.255 C 
HETATM    9  H   UNL     1       6.892  28.479  58.211  1.00  0.00     0.281 HD
BRANCH   6  10
HETATM   10  C   UNL     1       5.954  26.014  54.655  1.00  0.00     0.064 A 
HETATM   11  C   UNL     1       6.215  24.736  54.083  1.00  0.00     0.095 A 
HETATM   12  C   UNL     1       5.817  24.444  52.767  1.00  0.00     0.039 A 
HETATM   13  C   UNL     1       5.156  25.393  51.993  1.00  0.00     0.003 A 
HETATM   14  C   UNL     1       4.873  26.638  52.532  1.00  0.00     0.002 A 
HETATM   15  C   UNL     1       5.260  26.935  53.842  1.00  0.00     0.032 A 
BRANCH  11  16
HETATM   16  O   UNL     1       6.803  23.794  54.899  1.00  0.00    -0.349 OA
BRANCH  16  17
HETATM   17  C   UNL     1       7.840  22.985  54.346  1.00  0.00     0.171 C 
HETATM   18  C   UNL     1       8.978  22.933  55.350  1.00  0.00     0.034 C 
ENDBRANCH  16  17
ENDBRANCH  11  16
ENDBRANCH   6  10
ENDBRANCH   1   3
BRANCH   1  19
HETATM   19  C   UNL     1       7.447  30.669  58.926  1.00  0.00     0.253 C 
HETATM   20  N   UNL     1       7.126  31.859  59.538  1.00  0.00    -0.325 N 
HETATM   21  H   UNL     1       6.713  32.599  58.980  1.00  0.00     0.169 HD
HETATM   22  O   UNL     1       8.244  29.827  59.340  1.00  0.00    -0.271 OA
BRANCH  20  23
HETATM   23  C   UNL     1       7.381  32.216  60.889  1.00  0.00     0.045 A 
HETATM   24  C   UNL     1       6.355  32.858  61.628  1.00  0.00     0.001 A 
HETATM   25  C   UNL     1       6.569  33.124  62.994  1.00  0.00     0.014 A 
HETATM   26  C   UNL     1       7.765  32.772  63.619  1.00  0.00     0.001 A 
HETATM   27  C   UNL     1       8.771  32.157  62.885  1.00  0.00     0.002 A 
HETATM   28  C   UNL     1       8.582  31.881  61.528  1.00  0.00     0.030 A 
BRANCH  24  29
HETATM   29  C   UNL     1       5.088  33.293  61.017  1.00  0.00    -0.024 A 
HETATM   30  C   UNL     1       4.080  32.369  60.707  1.00  0.00     0.012 A 
HETATM   31  C   UNL     1       2.880  32.790  60.130  1.00  0.00     0.001 A 
HETATM   32  C   UNL     1       2.672  34.141  59.856  1.00  0.00     0.000 A 
HETATM   33  C   UNL     1       3.661  35.073  60.162  1.00  0.00     0.001 A 
HETATM   34  C   UNL     1       4.860  34.652  60.741  1.00  0.00     0.012 A 
ENDBRANCH  24  29
ENDBRANCH  20  23
ENDBRANCH   1  19
TORSDOF 7
ENDMDL
MODEL 10
REMARK VINA RESULT:      -8.4      4.693      7.492
REMARK  7 active torsions:
REMARK  status: ('A' for Active; 'I' for Inactive)
REMARK    1  A    between atoms: C_2  and  O_3 
REMARK    2  A    between atoms: O_3  and  C_4 
REMARK    3  A    between atoms: C_5  and  N_6 
REMARK    4  A    between atoms: N_9  and  C_11 
REMARK    5  A    between atoms: C_11  and  C_12 
REMARK       I    between atoms: C_12  and  N_13 
REMARK    6  A    between atoms: N_13  and  C_14 
REMARK    7  A    between atoms: C_15  and  C_16 
ROOT
HETATM    1  C   UNL     1       5.724  27.076  52.088  1.00  0.00     0.275 C 
HETATM    2  C   UNL     1       5.598  27.972  53.313  1.00  0.00     0.050 C 
ENDROOT
BRANCH   1   3
HETATM    3  N   UNL     1       4.541  27.295  51.123  1.00  0.00    -0.056 N 
HETATM    4  C   UNL     1       3.818  28.641  51.267  1.00  0.00     0.255 C 
HETATM    5  C   UNL     1       2.537  28.633  50.405  1.00  0.00     0.150 C 
HETATM    6  N   UNL     1       2.862  28.340  48.998  1.00  0.00    -0.375 N 
HETATM    7  C   UNL     1       3.571  27.058  48.798  1.00  0.00     0.150 C 
HETATM    8  C   UNL     1       4.849  26.990  49.664  1.00  0.00     0.255 C 
HETATM    9  H   UNL     1       3.838  26.608  51.441  1.00  0.00     0.281 HD
BRANCH   6  10
HETATM   10  C   UNL     1       3.066  29.377  48.074  1.00  0.00     0.064 A 
HETATM   11  C   UNL     1       4.197  30.240  48.128  1.00  0.00     0.095 A 
HETATM   12  C   UNL     1       4.372  31.255  47.172  1.00  0.00     0.039 A 
HETATM   13  C   UNL     1       3.447  31.439  46.148  1.00  0.00     0.003 A 
HETATM   14  C   UNL     1       2.347  30.602  46.062  1.00  0.00     0.002 A 
HETATM   15  C   UNL     1       2.168  29.586  47.005  1.00  0.00     0.032 A 
BRANCH  11  16
HETATM   16  O   UNL     1       5.131  29.985  49.107  1.00  0.00    -0.349 OA
BRANCH  16  17
HETATM   17  C   UNL     1       6.013  31.042  49.482  1.00  0.00     0.171 C 
HETATM   18  C   UNL     1       5.329  31.861  50.561  1.00  0.00     0.034 C 
ENDBRANCH  16  17
ENDBRANCH  11  16
ENDBRANCH   6  10
ENDBRANCH   1   3
BRANCH   1  19
HETATM   19  C   UNL     1       5.831  25.572  52.448  1.00  0.00     0.253 C 
HETATM   20  N   UNL     1       7.078  25.148  52.846  1.00  0.00    -0.325 N 
HETATM   21  H   UNL     1       7.884  25.724  52.624  1.00  0.00     0.169 HD
HETATM   22  O   UNL     1       4.829  24.869  52.318  1.00  0.00    -0.271 OA
BRANCH  20  23
HETATM   23  C   UNL     1       7.395  23.921  53.488  1.00  0.00     0.045 A 
HETATM   24  C   UNL     1       7.234  23.827  54.894  1.00  0.00     0.001 A 
HETATM   25  C   UNL     1       7.451  22.585  55.520  1.00  0.00     0.014 A 
HETATM   26  C   UNL     1       7.822  21.461  54.783  1.00  0.00     0.001 A 
HETATM   27  C   UNL     1       7.992  21.564  53.408  1.00  0.00     0.002 A 
HETATM   28  C   UNL     1       7.780  22.785  52.763  1.00  0.00     0.030 A 
BRANCH  24  29
HETATM   29  C   UNL     1       6.887  24.986  55.733  1.00  0.00    -0.024 A 
HETATM   30  C   UNL     1       5.550  25.287  56.032  1.00  0.00     0.012 A 
HETATM   31  C   UNL     1       5.228  26.387  56.832  1.00  0.00     0.001 A 
HETATM   32  C   UNL     1       6.240  27.199  57.343  1.00  0.00     0.000 A 
HETATM   33  C   UNL     1       7.573  26.911  57.059  1.00  0.00     0.001 A 
HETATM   34  C   UNL     1       7.894  25.810  56.262  1.00  0.00     0.012 A 
ENDBRANCH  24  29
ENDBRANCH  20  23
ENDBRANCH   1  19
TORSDOF 7
ENDMDL
