MODEL 1
REMARK VINA RESULT:     -10.2      0.000      0.000
REMARK  3 active torsions:
REMARK  status: ('A' for Active; 'I' for Inactive)
REMARK    1  A    between atoms: C_2  and  O_3 
REMARK    2  A    between atoms: O_3  and  C_4 
REMARK    3  A    between atoms: C_10  and  N_11 
REMARK       I    between atoms: N_11  and  C_12 
REMARK       I    between atoms: C_12  and  N_13 
ROOT
HETATM    1  N   UNL     1       7.033  28.227  56.902  1.00  0.00    -0.306 N 
HETATM    2  C   UNL     1       6.632  27.848  55.643  1.00  0.00     0.323 C 
HETATM    3  N   UNL     1       6.822  26.499  55.328  1.00  0.00    -0.328 N 
HETATM    4  C   UNL     1       7.174  25.471  56.323  1.00  0.00     0.185 C 
HETATM    5  C   UNL     1       7.496  24.182  55.651  1.00  0.00     0.035 A 
HETATM    6  C   UNL     1       7.426  23.909  54.302  1.00  0.00    -0.020 A 
HETATM    7  C   UNL     1       7.004  24.952  53.336  1.00  0.00     0.061 C 
HETATM    8  C   UNL     1       6.189  26.029  54.071  1.00  0.00     0.132 C 
HETATM    9  N   UNL     1       7.910  23.044  56.289  1.00  0.00    -0.357 N 
HETATM   10  H   UNL     1       8.049  22.939  57.284  1.00  0.00     0.166 HD
HETATM   11  C   UNL     1       8.112  22.037  55.368  1.00  0.00     0.043 A 
HETATM   12  C   UNL     1       7.814  22.558  54.106  1.00  0.00    -0.001 A 
HETATM   13  C   UNL     1       8.535  20.715  55.555  1.00  0.00     0.030 A 
HETATM   14  C   UNL     1       8.653  19.905  54.420  1.00  0.00     0.002 A 
HETATM   15  C   UNL     1       8.362  20.399  53.150  1.00  0.00     0.001 A 
HETATM   16  C   UNL     1       7.941  21.722  52.979  1.00  0.00     0.014 A 
HETATM   17  O   UNL     1       6.125  28.620  54.829  1.00  0.00    -0.247 OA
HETATM   18  H   UNL     1       7.566  27.581  57.460  1.00  0.00     0.171 HD
ENDROOT
BRANCH   1  19
HETATM   19  C   UNL     1       6.845  29.480  57.540  1.00  0.00     0.071 A 
HETATM   20  C   UNL     1       7.975  30.068  58.146  1.00  0.00     0.117 A 
HETATM   21  C   UNL     1       7.843  31.262  58.873  1.00  0.00     0.069 A 
HETATM   22 CL   UNL     1       9.149  31.963  59.759  1.00  0.00    -0.081 Cl
HETATM   23  C   UNL     1       6.605  31.906  58.936  1.00  0.00     0.027 A 
HETATM   24  C   UNL     1       5.497  31.350  58.301  1.00  0.00     0.004 A 
HETATM   25  C   UNL     1       5.615  30.137  57.616  1.00  0.00     0.032 A 
BRANCH  20  26
HETATM   26  O   UNL     1       9.163  29.375  58.040  1.00  0.00    -0.347 OA
BRANCH  26  27
HETATM   27  C   UNL     1       9.948  29.808  56.919  1.00  0.00     0.171 C 
HETATM   28  C   UNL     1      11.371  30.034  57.398  1.00  0.00     0.034 C 
ENDBRANCH  26  27
ENDBRANCH  20  26
ENDBRANCH   1  19
TORSDOF 3
ENDMDL
MODEL 2
REMARK VINA RESULT:      -9.5      4.986      7.169
REMARK  3 active torsions:
REMARK  status: ('A' for Active; 'I' for Inactive)
REMARK    1  A    between atoms: C_2  and  O_3 
REMARK    2  A    between atoms: O_3  and  C_4 
REMARK    3  A    between atoms: C_10  and  N_11 
REMARK       I    between atoms: N_11  and  C_12 
REMARK       I    between atoms: C_12  and  N_13 
ROOT
HETATM    1  N   UNL     1       5.568  27.390  50.888  1.00  0.00    -0.306 N 
HETATM    2  C   UNL     1       5.610  27.352  52.261  1.00  0.00     0.323 C 
HETATM    3  N   UNL     1       6.204  26.214  52.817  1.00  0.00    -0.328 N 
HETATM    4  C   UNL     1       6.976  25.232  52.034  1.00  0.00     0.185 C 
HETATM    5  C   UNL     1       7.308  24.045  52.868  1.00  0.00     0.035 A 
HETATM    6  C   UNL     1       7.023  23.862  54.204  1.00  0.00    -0.020 A 
HETATM    7  C   UNL     1       6.301  24.902  54.976  1.00  0.00     0.061 C 
HETATM    8  C   UNL     1       6.462  26.262  54.277  1.00  0.00     0.132 C 
HETATM    9  N   UNL     1       7.973  22.933  52.425  1.00  0.00    -0.357 N 
HETATM   10  H   UNL     1       8.314  22.781  51.487  1.00  0.00     0.166 HD
HETATM   11  C   UNL     1       8.118  22.031  53.459  1.00  0.00     0.043 A 
HETATM   12  C   UNL     1       7.527  22.594  54.592  1.00  0.00    -0.001 A 
HETATM   13  C   UNL     1       8.724  20.768  53.475  1.00  0.00     0.030 A 
HETATM   14  C   UNL     1       8.724  20.064  54.684  1.00  0.00     0.002 A 
HETATM   15  C   UNL     1       8.141  20.601  55.829  1.00  0.00     0.001 A 
HETATM   16  C   UNL     1       7.540  21.865  55.797  1.00  0.00     0.014 A 
HETATM   17  O   UNL     1       5.171  28.249  52.980  1.00  0.00    -0.247 OA
HETATM   18  H   UNL     1       5.814  26.564  50.368  1.00  0.00     0.171 HD
ENDROOT
BRANCH   1  19
HETATM   19  C   UNL     1       5.154  28.461  50.055  1.00  0.00     0.071 A 
HETATM   20  C   UNL     1       4.131  28.189  49.121  1.00  0.00     0.117 A 
HETATM   21  C   UNL     1       3.735  29.176  48.204  1.00  0.00     0.069 A 
HETATM   22 CL   UNL     1       2.595  28.872  46.943  1.00  0.00    -0.081 Cl
HETATM   23  C   UNL     1       4.303  30.450  48.263  1.00  0.00     0.027 A 
HETATM   24  C   UNL     1       5.282  30.734  49.213  1.00  0.00     0.004 A 
HETATM   25  C   UNL     1       5.712  29.740  50.096  1.00  0.00     0.032 A 
BRANCH  20  26
HETATM   26  O   UNL     1       3.616  26.910  49.124  1.00  0.00    -0.347 OA
BRANCH  26  27
HETATM   27  C   UNL     1       4.156  26.103  48.067  1.00  0.00     0.171 C 
HETATM   28  C   UNL     1       3.039  25.234  47.518  1.00  0.00     0.034 C 
ENDBRANCH  26  27
ENDBRANCH  20  26
ENDBRANCH   1  19
TORSDOF 3
ENDMDL
MODEL 3
REMARK VINA RESULT:      -9.5      1.401      2.426
REMARK  3 active torsions:
REMARK  status: ('A' for Active; 'I' for Inactive)
REMARK    1  A    between atoms: C_2  and  O_3 
REMARK    2  A    between atoms: O_3  and  C_4 
REMARK    3  A    between atoms: C_10  and  N_11 
REMARK       I    between atoms: N_11  and  C_12 
REMARK       I    between atoms: C_12  and  N_13 
ROOT
HETATM    1  N   UNL     1       8.327  28.541  57.392  1.00  0.00    -0.306 N 
HETATM    2  C   UNL     1       7.990  28.361  56.071  1.00  0.00     0.323 C 
HETATM    3  N   UNL     1       7.837  27.033  55.660  1.00  0.00    -0.328 N 
HETATM    4  C   UNL     1       7.772  25.893  56.593  1.00  0.00     0.185 C 
HETATM    5  C   UNL     1       7.804  24.606  55.846  1.00  0.00     0.035 A 
HETATM    6  C   UNL     1       7.823  24.439  54.478  1.00  0.00    -0.020 A 
HETATM    7  C   UNL     1       7.823  25.611  53.570  1.00  0.00     0.061 C 
HETATM    8  C   UNL     1       7.255  26.833  54.311  1.00  0.00     0.132 C 
HETATM    9  N   UNL     1       7.811  23.363  56.421  1.00  0.00    -0.357 N 
HETATM   10  H   UNL     1       7.796  23.168  57.411  1.00  0.00     0.166 HD
HETATM   11  C   UNL     1       7.836  22.394  55.439  1.00  0.00     0.043 A 
HETATM   12  C   UNL     1       7.845  23.047  54.205  1.00  0.00    -0.001 A 
HETATM   13  C   UNL     1       7.853  20.997  55.552  1.00  0.00     0.030 A 
HETATM   14  C   UNL     1       7.878  20.252  54.368  1.00  0.00     0.002 A 
HETATM   15  C   UNL     1       7.888  20.878  53.123  1.00  0.00     0.001 A 
HETATM   16  C   UNL     1       7.872  22.274  53.028  1.00  0.00     0.014 A 
HETATM   17  O   UNL     1       7.816  29.289  55.282  1.00  0.00    -0.247 OA
HETATM   18  H   UNL     1       8.591  27.739  57.942  1.00  0.00     0.171 HD
ENDROOT
BRANCH   1  19
HETATM   19  C   UNL     1       8.416  29.757  58.115  1.00  0.00     0.071 A 
HETATM   20  C   UNL     1       7.203  30.376  58.485  1.00  0.00     0.117 A 
HETATM   21  C   UNL     1       7.216  31.627  59.122  1.00  0.00     0.069 A 
HETATM   22 CL   UNL     1       5.773  32.508  59.473  1.00  0.00    -0.081 Cl
HETATM   23  C   UNL     1       8.431  32.227  59.455  1.00  0.00     0.027 A 
HETATM   24  C   UNL     1       9.631  31.597  59.131  1.00  0.00     0.004 A 
HETATM   25  C   UNL     1       9.622  30.374  58.454  1.00  0.00     0.032 A 
BRANCH  20  26
HETATM   26  O   UNL     1       6.042  29.723  58.123  1.00  0.00    -0.347 OA
BRANCH  26  27
HETATM   27  C   UNL     1       5.274  30.467  57.167  1.00  0.00     0.171 C 
HETATM   28  C   UNL     1       4.374  29.495  56.424  1.00  0.00     0.034 C 
ENDBRANCH  26  27
ENDBRANCH  20  26
ENDBRANCH   1  19
TORSDOF 3
ENDMDL
MODEL 4
REMARK VINA RESULT:      -9.4      1.305      1.629
REMARK  3 active torsions:
REMARK  status: ('A' for Active; 'I' for Inactive)
REMARK    1  A    between atoms: C_2  and  O_3 
REMARK    2  A    between atoms: O_3  and  C_4 
REMARK    3  A    between atoms: C_10  and  N_11 
REMARK       I    between atoms: N_11  and  C_12 
REMARK       I    between atoms: C_12  and  N_13 
ROOT
HETATM    1  N   UNL     1       5.516  27.982  56.178  1.00  0.00    -0.306 N 
HETATM    2  C   UNL     1       5.346  27.461  54.917  1.00  0.00     0.323 C 
HETATM    3  N   UNL     1       5.803  26.152  54.736  1.00  0.00    -0.328 N 
HETATM    4  C   UNL     1       6.202  25.266  55.846  1.00  0.00     0.185 C 
HETATM    5  C   UNL     1       6.821  24.019  55.321  1.00  0.00     0.035 A 
HETATM    6  C   UNL     1       6.967  23.656  54.000  1.00  0.00    -0.020 A 
HETATM    7  C   UNL     1       6.494  24.545  52.911  1.00  0.00     0.061 C 
HETATM    8  C   UNL     1       5.421  25.500  53.460  1.00  0.00     0.132 C 
HETATM    9  N   UNL     1       7.344  23.015  56.092  1.00  0.00    -0.357 N 
HETATM   10  H   UNL     1       7.375  22.998  57.101  1.00  0.00     0.166 HD
HETATM   11  C   UNL     1       7.828  22.008  55.284  1.00  0.00     0.043 A 
HETATM   12  C   UNL     1       7.603  22.388  53.959  1.00  0.00    -0.001 A 
HETATM   13  C   UNL     1       8.446  20.797  55.624  1.00  0.00     0.030 A 
HETATM   14  C   UNL     1       8.842  19.955  54.580  1.00  0.00     0.002 A 
HETATM   15  C   UNL     1       8.630  20.310  53.249  1.00  0.00     0.001 A 
HETATM   16  C   UNL     1       8.011  21.523  52.925  1.00  0.00     0.014 A 
HETATM   17  O   UNL     1       4.818  28.078  53.992  1.00  0.00    -0.247 OA
HETATM   18  H   UNL     1       6.080  27.478  56.842  1.00  0.00     0.171 HD
ENDROOT
BRANCH   1  19
HETATM   19  C   UNL     1       5.038  29.216  56.687  1.00  0.00     0.071 A 
HETATM   20  C   UNL     1       5.879  29.912  57.581  1.00  0.00     0.117 A 
HETATM   21  C   UNL     1       5.431  31.093  58.193  1.00  0.00     0.069 A 
HETATM   22 CL   UNL     1       6.345  31.919  59.404  1.00  0.00    -0.081 Cl
HETATM   23  C   UNL     1       4.181  31.620  57.862  1.00  0.00     0.027 A 
HETATM   24  C   UNL     1       3.367  30.959  56.945  1.00  0.00     0.004 A 
HETATM   25  C   UNL     1       3.790  29.757  56.369  1.00  0.00     0.032 A 
BRANCH  20  26
HETATM   26  O   UNL     1       7.099  29.331  57.859  1.00  0.00    -0.347 OA
BRANCH  26  27
HETATM   27  C   UNL     1       8.164  29.908  57.090  1.00  0.00     0.171 C 
HETATM   28  C   UNL     1       9.327  28.932  57.086  1.00  0.00     0.034 C 
ENDBRANCH  26  27
ENDBRANCH  20  26
ENDBRANCH   1  19
TORSDOF 3
ENDMDL
MODEL 5
REMARK VINA RESULT:      -9.3      3.109      8.481
REMARK  3 active torsions:
REMARK  status: ('A' for Active; 'I' for Inactive)
REMARK    1  A    between atoms: C_2  and  O_3 
REMARK    2  A    between atoms: O_3  and  C_4 
REMARK    3  A    between atoms: C_10  and  N_11 
REMARK       I    between atoms: N_11  and  C_12 
REMARK       I    between atoms: C_12  and  N_13 
ROOT
HETATM    1  N   UNL     1       7.489  26.641  55.262  1.00  0.00    -0.306 N 
HETATM    2  C   UNL     1       6.602  27.689  55.337  1.00  0.00     0.323 C 
HETATM    3  N   UNL     1       6.877  28.645  56.320  1.00  0.00    -0.328 N 
HETATM    4  C   UNL     1       8.148  28.707  57.065  1.00  0.00     0.185 C 
HETATM    5  C   UNL     1       8.058  29.703  58.167  1.00  0.00     0.035 A 
HETATM    6  C   UNL     1       6.992  30.527  58.458  1.00  0.00    -0.020 A 
HETATM    7  C   UNL     1       5.753  30.481  57.645  1.00  0.00     0.061 C 
HETATM    8  C   UNL     1       6.070  29.888  56.262  1.00  0.00     0.132 C 
HETATM    9  N   UNL     1       9.049  29.964  59.075  1.00  0.00    -0.357 N 
HETATM   10  H   UNL     1       9.954  29.516  59.110  1.00  0.00     0.166 HD
HETATM   11  C   UNL     1       8.636  30.946  59.952  1.00  0.00     0.043 A 
HETATM   12  C   UNL     1       7.340  31.317  59.584  1.00  0.00    -0.001 A 
HETATM   13  C   UNL     1       9.306  31.527  61.036  1.00  0.00     0.030 A 
HETATM   14  C   UNL     1       8.632  32.516  61.760  1.00  0.00     0.002 A 
HETATM   15  C   UNL     1       7.340  32.906  61.415  1.00  0.00     0.001 A 
HETATM   16  C   UNL     1       6.683  32.315  60.330  1.00  0.00     0.014 A 
HETATM   17  O   UNL     1       5.629  27.810  54.594  1.00  0.00    -0.247 OA
HETATM   18  H   UNL     1       8.177  26.530  55.989  1.00  0.00     0.171 HD
ENDROOT
BRANCH   1  19
HETATM   19  C   UNL     1       7.542  25.607  54.293  1.00  0.00     0.071 A 
HETATM   20  C   UNL     1       7.447  24.280  54.762  1.00  0.00     0.117 A 
HETATM   21  C   UNL     1       7.583  23.206  53.868  1.00  0.00     0.069 A 
HETATM   22 CL   UNL     1       7.621  21.560  54.389  1.00  0.00    -0.081 Cl
HETATM   23  C   UNL     1       7.742  23.451  52.503  1.00  0.00     0.027 A 
HETATM   24  C   UNL     1       7.792  24.761  52.031  1.00  0.00     0.004 A 
HETATM   25  C   UNL     1       7.704  25.833  52.924  1.00  0.00     0.032 A 
BRANCH  20  26
HETATM   26  O   UNL     1       7.289  24.116  56.123  1.00  0.00    -0.347 OA
BRANCH  26  27
HETATM   27  C   UNL     1       8.472  23.603  56.751  1.00  0.00     0.171 C 
HETATM   28  C   UNL     1       8.955  24.628  57.760  1.00  0.00     0.034 C 
ENDBRANCH  26  27
ENDBRANCH  20  26
ENDBRANCH   1  19
TORSDOF 3
ENDMDL
MODEL 6
REMARK VINA RESULT:      -9.2      3.435      8.632
REMARK  3 active torsions:
REMARK  status: ('A' for Active; 'I' for Inactive)
REMARK    1  A    between atoms: C_2  and  O_3 
REMARK    2  A    between atoms: O_3  and  C_4 
REMARK    3  A    between atoms: C_10  and  N_11 
REMARK       I    between atoms: N_11  and  C_12 
REMARK       I    between atoms: C_12  and  N_13 
ROOT
HETATM    1  N   UNL     1       7.254  24.228  56.054  1.00  0.00    -0.306 N 
HETATM    2  C   UNL     1       7.853  25.229  56.781  1.00  0.00     0.323 C 
HETATM    3  N   UNL     1       7.110  26.406  56.917  1.00  0.00    -0.328 N 
HETATM    4  C   UNL     1       5.685  26.518  56.553  1.00  0.00     0.185 C 
HETATM    5  C   UNL     1       5.238  27.935  56.629  1.00  0.00     0.035 A 
HETATM    6  C   UNL     1       5.981  29.021  57.040  1.00  0.00    -0.020 A 
HETATM    7  C   UNL     1       7.393  28.858  57.461  1.00  0.00     0.061 C 
HETATM    8  C   UNL     1       7.637  27.400  57.883  1.00  0.00     0.132 C 
HETATM    9  N   UNL     1       3.985  28.383  56.304  1.00  0.00    -0.357 N 
HETATM   10  H   UNL     1       3.219  27.814  55.974  1.00  0.00     0.166 HD
HETATM   11  C   UNL     1       3.911  29.747  56.497  1.00  0.00     0.043 A 
HETATM   12  C   UNL     1       5.158  30.174  56.960  1.00  0.00    -0.001 A 
HETATM   13  C   UNL     1       2.841  30.630  56.295  1.00  0.00     0.030 A 
HETATM   14  C   UNL     1       3.055  31.983  56.578  1.00  0.00     0.002 A 
HETATM   15  C   UNL     1       4.289  32.435  57.041  1.00  0.00     0.001 A 
HETATM   16  C   UNL     1       5.348  31.542  57.237  1.00  0.00     0.014 A 
HETATM   17  O   UNL     1       8.963  25.121  57.301  1.00  0.00    -0.247 OA
HETATM   18  H   UNL     1       6.412  24.433  55.541  1.00  0.00     0.171 HD
ENDROOT
BRANCH   1  19
HETATM   19  C   UNL     1       7.702  22.896  55.864  1.00  0.00     0.071 A 
HETATM   20  C   UNL     1       7.641  22.378  54.552  1.00  0.00     0.117 A 
HETATM   21  C   UNL     1       7.983  21.039  54.308  1.00  0.00     0.069 A 
HETATM   22 CL   UNL     1       7.797  20.297  52.759  1.00  0.00    -0.081 Cl
HETATM   23  C   UNL     1       8.453  20.238  55.350  1.00  0.00     0.027 A 
HETATM   24  C   UNL     1       8.557  20.759  56.638  1.00  0.00     0.004 A 
HETATM   25  C   UNL     1       8.172  22.079  56.894  1.00  0.00     0.032 A 
BRANCH  20  26
HETATM   26  O   UNL     1       7.169  23.229  53.574  1.00  0.00    -0.347 OA
BRANCH  26  27
HETATM   27  C   UNL     1       8.227  23.799  52.791  1.00  0.00     0.171 C 
HETATM   28  C   UNL     1       7.678  25.015  52.067  1.00  0.00     0.034 C 
ENDBRANCH  26  27
ENDBRANCH  20  26
ENDBRANCH   1  19
TORSDOF 3
ENDMDL
MODEL 7
REMARK VINA RESULT:      -8.6      4.733      8.015
REMARK  3 active torsions:
REMARK  status: ('A' for Active; 'I' for Inactive)
REMARK    1  A    between atoms: C_2  and  O_3 
REMARK    2  A    between atoms: O_3  and  C_4 
REMARK    3  A    between atoms: C_10  and  N_11 
REMARK       I    between atoms: N_11  and  C_12 
REMARK       I    between atoms: C_12  and  N_13 
ROOT
HETATM    1  N   UNL     1       6.957  25.494  54.430  1.00  0.00    -0.306 N 
HETATM    2  C   UNL     1       5.882  26.345  54.527  1.00  0.00     0.323 C 
HETATM    3  N   UNL     1       5.428  26.886  53.319  1.00  0.00    -0.328 N 
HETATM    4  C   UNL     1       5.866  26.408  51.995  1.00  0.00     0.185 C 
HETATM    5  C   UNL     1       5.359  27.307  50.923  1.00  0.00     0.035 A 
HETATM    6  C   UNL     1       4.539  28.404  51.076  1.00  0.00    -0.020 A 
HETATM    7  C   UNL     1       4.067  28.817  52.419  1.00  0.00     0.061 C 
HETATM    8  C   UNL     1       4.139  27.617  53.378  1.00  0.00     0.132 C 
HETATM    9  N   UNL     1       5.631  27.169  49.587  1.00  0.00    -0.357 N 
HETATM   10  H   UNL     1       6.204  26.450  49.170  1.00  0.00     0.166 HD
HETATM   11  C   UNL     1       4.998  28.167  48.875  1.00  0.00     0.043 A 
HETATM   12  C   UNL     1       4.303  28.960  49.792  1.00  0.00    -0.001 A 
HETATM   13  C   UNL     1       4.990  28.426  47.498  1.00  0.00     0.030 A 
HETATM   14  C   UNL     1       4.250  29.525  47.050  1.00  0.00     0.002 A 
HETATM   15  C   UNL     1       3.547  30.332  47.942  1.00  0.00     0.001 A 
HETATM   16  C   UNL     1       3.565  30.061  49.315  1.00  0.00     0.014 A 
HETATM   17  O   UNL     1       5.327  26.622  55.590  1.00  0.00    -0.247 OA
HETATM   18  H   UNL     1       7.448  25.424  53.554  1.00  0.00     0.171 HD
ENDROOT
BRANCH   1  19
HETATM   19  C   UNL     1       7.541  24.703  55.452  1.00  0.00     0.071 A 
HETATM   20  C   UNL     1       7.555  23.306  55.254  1.00  0.00     0.117 A 
HETATM   21  C   UNL     1       8.035  22.457  56.264  1.00  0.00     0.069 A 
HETATM   22 CL   UNL     1       7.950  20.736  56.152  1.00  0.00    -0.081 Cl
HETATM   23  C   UNL     1       8.566  22.999  57.436  1.00  0.00     0.027 A 
HETATM   24  C   UNL     1       8.595  24.380  57.615  1.00  0.00     0.004 A 
HETATM   25  C   UNL     1       8.074  25.226  56.632  1.00  0.00     0.032 A 
BRANCH  20  26
HETATM   26  O   UNL     1       7.015  22.844  54.072  1.00  0.00    -0.347 OA
BRANCH  26  27
HETATM   27  C   UNL     1       8.022  22.529  53.099  1.00  0.00     0.171 C 
HETATM   28  C   UNL     1       7.936  21.045  52.794  1.00  0.00     0.034 C 
ENDBRANCH  26  27
ENDBRANCH  20  26
ENDBRANCH   1  19
TORSDOF 3
ENDMDL
MODEL 8
REMARK VINA RESULT:      -8.5      5.311     11.069
REMARK  3 active torsions:
REMARK  status: ('A' for Active; 'I' for Inactive)
REMARK    1  A    between atoms: C_2  and  O_3 
REMARK    2  A    between atoms: O_3  and  C_4 
REMARK    3  A    between atoms: C_10  and  N_11 
REMARK       I    between atoms: N_11  and  C_12 
REMARK       I    between atoms: C_12  and  N_13 
ROOT
HETATM    1  N   UNL     1       8.479  31.326  59.378  1.00  0.00    -0.306 N 
HETATM    2  C   UNL     1       8.641  31.088  60.722  1.00  0.00     0.323 C 
HETATM    3  N   UNL     1       7.826  31.843  61.572  1.00  0.00    -0.328 N 
HETATM    4  C   UNL     1       6.684  32.649  61.105  1.00  0.00     0.185 C 
HETATM    5  C   UNL     1       6.144  33.482  62.214  1.00  0.00     0.035 A 
HETATM    6  C   UNL     1       6.564  33.492  63.526  1.00  0.00    -0.020 A 
HETATM    7  C   UNL     1       7.676  32.618  63.974  1.00  0.00     0.061 C 
HETATM    8  C   UNL     1       7.824  31.438  62.999  1.00  0.00     0.132 C 
HETATM    9  N   UNL     1       5.116  34.379  62.095  1.00  0.00    -0.357 N 
HETATM   10  H   UNL     1       4.604  34.586  61.250  1.00  0.00     0.166 HD
HETATM   11  C   UNL     1       4.869  34.972  63.317  1.00  0.00     0.043 A 
HETATM   12  C   UNL     1       5.770  34.429  64.236  1.00  0.00    -0.001 A 
HETATM   13  C   UNL     1       3.923  35.941  63.673  1.00  0.00     0.030 A 
HETATM   14  C   UNL     1       3.898  36.364  65.007  1.00  0.00     0.002 A 
HETATM   15  C   UNL     1       4.786  35.840  65.944  1.00  0.00     0.001 A 
HETATM   16  C   UNL     1       5.726  34.872  65.572  1.00  0.00     0.014 A 
HETATM   17  O   UNL     1       9.434  30.264  61.177  1.00  0.00    -0.247 OA
HETATM   18  H   UNL     1       7.919  32.109  59.084  1.00  0.00     0.171 HD
ENDROOT
BRANCH   1  19
HETATM   19  C   UNL     1       9.061  30.627  58.290  1.00  0.00     0.071 A 
HETATM   20  C   UNL     1       8.246  29.693  57.616  1.00  0.00     0.117 A 
HETATM   21  C   UNL     1       8.784  28.901  56.589  1.00  0.00     0.069 A 
HETATM   22 CL   UNL     1       7.890  27.640  55.819  1.00  0.00    -0.081 Cl
HETATM   23  C   UNL     1      10.107  29.088  56.185  1.00  0.00     0.027 A 
HETATM   24  C   UNL     1      10.901  30.042  56.818  1.00  0.00     0.004 A 
HETATM   25  C   UNL     1      10.383  30.799  57.873  1.00  0.00     0.032 A 
BRANCH  20  26
HETATM   26  O   UNL     1       6.950  29.564  58.070  1.00  0.00    -0.347 OA
BRANCH  26  27
HETATM   27  C   UNL     1       6.011  30.266  57.244  1.00  0.00     0.171 C 
HETATM   28  C   UNL     1       4.848  29.335  56.953  1.00  0.00     0.034 C 
ENDBRANCH  26  27
ENDBRANCH  20  26
ENDBRANCH   1  19
TORSDOF 3
ENDMDL
MODEL 9
REMARK VINA RESULT:      -8.5      3.581      8.519
REMARK  3 active torsions:
REMARK  status: ('A' for Active; 'I' for Inactive)
REMARK    1  A    between atoms: C_2  and  O_3 
REMARK    2  A    between atoms: O_3  and  C_4 
REMARK    3  A    between atoms: C_10  and  N_11 
REMARK       I    between atoms: N_11  and  C_12 
REMARK       I    between atoms: C_12  and  N_13 
ROOT
HETATM    1  N   UNL     1       6.394  28.802  54.326  1.00  0.00    -0.306 N 
HETATM    2  C   UNL     1       7.675  28.723  54.818  1.00  0.00     0.323 C 
HETATM    3  N   UNL     1       7.864  29.245  56.102  1.00  0.00    -0.328 N 
HETATM    4  C   UNL     1       6.758  29.620  57.001  1.00  0.00     0.185 C 
HETATM    5  C   UNL     1       7.280  30.320  58.206  1.00  0.00     0.035 A 
HETATM    6  C   UNL     1       8.599  30.554  58.525  1.00  0.00    -0.020 A 
HETATM    7  C   UNL     1       9.689  30.104  57.626  1.00  0.00     0.061 C 
HETATM    8  C   UNL     1       9.176  28.962  56.732  1.00  0.00     0.132 C 
HETATM    9  N   UNL     1       6.507  30.842  59.209  1.00  0.00    -0.357 N 
HETATM   10  H   UNL     1       5.498  30.819  59.254  1.00  0.00     0.166 HD
HETATM   11  C   UNL     1       7.313  31.413  60.172  1.00  0.00     0.043 A 
HETATM   12  C   UNL     1       8.638  31.245  59.764  1.00  0.00    -0.001 A 
HETATM   13  C   UNL     1       6.970  32.063  61.365  1.00  0.00     0.030 A 
HETATM   14  C   UNL     1       8.012  32.551  62.161  1.00  0.00     0.002 A 
HETATM   15  C   UNL     1       9.343  32.397  61.777  1.00  0.00     0.001 A 
HETATM   16  C   UNL     1       9.669  31.746  60.582  1.00  0.00     0.014 A 
HETATM   17  O   UNL     1       8.612  28.221  54.197  1.00  0.00    -0.247 OA
HETATM   18  H   UNL     1       5.712  29.350  54.825  1.00  0.00     0.171 HD
ENDROOT
BRANCH   1  19
HETATM   19  C   UNL     1       5.881  28.244  53.128  1.00  0.00     0.071 A 
HETATM   20  C   UNL     1       5.479  26.892  53.169  1.00  0.00     0.117 A 
HETATM   21  C   UNL     1       5.047  26.250  51.997  1.00  0.00     0.069 A 
HETATM   22 CL   UNL     1       4.678  24.564  51.941  1.00  0.00    -0.081 Cl
HETATM   23  C   UNL     1       4.946  26.970  50.805  1.00  0.00     0.027 A 
HETATM   24  C   UNL     1       5.299  28.317  50.772  1.00  0.00     0.004 A 
HETATM   25  C   UNL     1       5.775  28.947  51.925  1.00  0.00     0.032 A 
BRANCH  20  26
HETATM   26  O   UNL     1       5.606  26.247  54.382  1.00  0.00    -0.347 OA
BRANCH  26  27
HETATM   27  C   UNL     1       6.658  25.272  54.373  1.00  0.00     0.171 C 
HETATM   28  C   UNL     1       6.607  24.508  55.684  1.00  0.00     0.034 C 
ENDBRANCH  26  27
ENDBRANCH  20  26
ENDBRANCH   1  19
TORSDOF 3
ENDMDL
MODEL 10
REMARK VINA RESULT:      -8.4      2.123      3.032
REMARK  3 active torsions:
REMARK  status: ('A' for Active; 'I' for Inactive)
REMARK    1  A    between atoms: C_2  and  O_3 
REMARK    2  A    between atoms: O_3  and  C_4 
REMARK    3  A    between atoms: C_10  and  N_11 
REMARK       I    between atoms: N_11  and  C_12 
REMARK       I    between atoms: C_12  and  N_13 
ROOT
HETATM    1  N   UNL     1       5.671  30.455  58.065  1.00  0.00    -0.306 N 
HETATM    2  C   UNL     1       5.704  30.337  56.696  1.00  0.00     0.323 C 
HETATM    3  N   UNL     1       5.973  29.055  56.205  1.00  0.00    -0.328 N 
HETATM    4  C   UNL     1       5.965  27.843  57.044  1.00  0.00     0.185 C 
HETATM    5  C   UNL     1       6.476  26.675  56.276  1.00  0.00     0.035 A 
HETATM    6  C   UNL     1       6.853  26.651  54.951  1.00  0.00    -0.020 A 
HETATM    7  C   UNL     1       6.786  27.878  54.121  1.00  0.00     0.061 C 
HETATM    8  C   UNL     1       5.786  28.865  54.746  1.00  0.00     0.132 C 
HETATM    9  N   UNL     1       6.643  25.413  56.782  1.00  0.00    -0.357 N 
HETATM   10  H   UNL     1       6.444  25.123  57.729  1.00  0.00     0.166 HD
HETATM   11  C   UNL     1       7.127  24.574  55.799  1.00  0.00     0.043 A 
HETATM   12  C   UNL     1       7.269  25.332  54.634  1.00  0.00    -0.001 A 
HETATM   13  C   UNL     1       7.449  23.212  55.855  1.00  0.00     0.030 A 
HETATM   14  C   UNL     1       7.927  22.611  54.685  1.00  0.00     0.002 A 
HETATM   15  C   UNL     1       8.078  23.343  53.509  1.00  0.00     0.001 A 
HETATM   16  C   UNL     1       7.752  24.703  53.470  1.00  0.00     0.014 A 
HETATM   17  O   UNL     1       5.504  31.277  55.927  1.00  0.00    -0.247 OA
HETATM   18  H   UNL     1       5.982  29.682  58.630  1.00  0.00     0.171 HD
ENDROOT
BRANCH   1  19
HETATM   19  C   UNL     1       5.296  31.584  58.837  1.00  0.00     0.071 A 
HETATM   20  C   UNL     1       6.196  32.004  59.839  1.00  0.00     0.117 A 
HETATM   21  C   UNL     1       5.849  33.058  60.700  1.00  0.00     0.069 A 
HETATM   22 CL   UNL     1       6.835  33.532  62.037  1.00  0.00    -0.081 Cl
HETATM   23  C   UNL     1       4.644  33.738  60.519  1.00  0.00     0.027 A 
HETATM   24  C   UNL     1       3.773  33.354  59.502  1.00  0.00     0.004 A 
HETATM   25  C   UNL     1       4.094  32.275  58.673  1.00  0.00     0.032 A 
BRANCH  20  26
HETATM   26  O   UNL     1       7.368  31.286  59.957  1.00  0.00    -0.347 OA
BRANCH  26  27
HETATM   27  C   UNL     1       8.493  31.983  59.402  1.00  0.00     0.171 C 
HETATM   28  C   UNL     1       9.597  32.003  60.443  1.00  0.00     0.034 C 
ENDBRANCH  26  27
ENDBRANCH  20  26
ENDBRANCH   1  19
TORSDOF 3
ENDMDL
