MODEL 1
REMARK VINA RESULT:     -10.9      0.000      0.000
REMARK  7 active torsions:
REMARK  status: ('A' for Active; 'I' for Inactive)
REMARK    1  A    between atoms: C_4  and  C_5 
REMARK    2  A    between atoms: C_9  and  C_10 
REMARK       I    between atoms: C_10  and  N_11 
REMARK    3  A    between atoms: N_11  and  N_12 
REMARK       I    between atoms: N_12  and  C_13 
REMARK    4  A    between atoms: C_13  and  C_14 
REMARK    5  A    between atoms: C_14  and  C_15 
REMARK    6  A    between atoms: C_15  and  C_16 
REMARK    7  A    between atoms: C_16  and  C_17 
ROOT
HETATM    1  N   UNL     1       7.452  29.530  58.503  1.00  0.00    -0.267 N 
HETATM    2  C   UNL     1       8.473  30.429  58.728  1.00  0.00     0.236 C 
HETATM    3  O   UNL     1       9.645  30.187  58.450  1.00  0.00    -0.272 OA
HETATM    4  H   UNL     1       6.513  29.644  58.885  1.00  0.00     0.190 HD
ENDROOT
BRANCH   1   5
HETATM    5  N   UNL     1       7.794  28.254  58.043  1.00  0.00    -0.262 N 
HETATM    6  C   UNL     1       6.854  27.510  57.362  1.00  0.00     0.288 C 
HETATM    7  O   UNL     1       5.736  27.955  57.105  1.00  0.00    -0.264 OA
HETATM    8  H   UNL     1       8.686  27.883  58.357  1.00  0.00     0.190 HD
BRANCH   6   9
HETATM    9  C   UNL     1       7.272  26.193  56.972  1.00  0.00     0.121 A 
HETATM   10  N   UNL     1       8.045  25.413  57.786  1.00  0.00    -0.272 N 
HETATM   11  N   UNL     1       8.320  24.201  57.287  1.00  0.00    -0.174 NA
HETATM   12  H   UNL     1       8.404  25.658  58.704  1.00  0.00     0.189 HD
HETATM   13  C   UNL     1       7.719  24.180  56.086  1.00  0.00     0.089 A 
HETATM   14  C   UNL     1       7.053  25.417  55.851  1.00  0.00     0.071 A 
BRANCH  13  15
HETATM   15  C   UNL     1       7.776  23.002  55.214  1.00  0.00    -0.006 A 
HETATM   16  C   UNL     1       7.805  23.153  53.819  1.00  0.00     0.014 A 
HETATM   17  C   UNL     1       7.877  22.039  52.979  1.00  0.00     0.001 A 
HETATM   18  C   UNL     1       7.916  20.758  53.523  1.00  0.00     0.000 A 
HETATM   19  C   UNL     1       7.880  20.589  54.905  1.00  0.00     0.001 A 
HETATM   20  C   UNL     1       7.811  21.704  55.747  1.00  0.00     0.014 A 
ENDBRANCH  13  15
ENDBRANCH   6   9
ENDBRANCH   1   5
BRANCH   2  21
HETATM   21  C   UNL     1       7.995  31.733  59.322  1.00  0.00     0.112 C 
BRANCH  21  22
HETATM   22  C   UNL     1       8.908  32.196  60.453  1.00  0.00     0.093 C 
BRANCH  22  23
HETATM   23  C   UNL     1       8.573  31.499  61.757  1.00  0.00     0.160 C 
HETATM   24  O   UNL     1       9.202  30.519  62.147  1.00  0.00    -0.292 OA
BRANCH  23  25
HETATM   25  C   UNL     1       7.443  32.025  62.583  1.00  0.00     0.013 A 
HETATM   26  C   UNL     1       7.745  32.671  63.791  1.00  0.00     0.054 A 
HETATM   27  C   UNL     1       6.722  33.186  64.585  1.00  0.00     0.103 A 
HETATM   28  C   UNL     1       5.388  33.037  64.196  1.00  0.00     0.102 A 
HETATM   29  O   UNL     1       7.099  33.820  65.742  1.00  0.00    -0.346 OA
HETATM   30  O   UNL     1       4.331  33.491  64.942  1.00  0.00    -0.346 OA
HETATM   31  C   UNL     1       5.080  32.408  62.993  1.00  0.00     0.040 A 
HETATM   32  C   UNL     1       4.731  33.800  66.282  1.00  0.00     0.202 C 
HETATM   33  C   UNL     1       6.026  34.597  66.287  1.00  0.00     0.202 C 
HETATM   34  C   UNL     1       6.104  31.900  62.186  1.00  0.00     0.018 A 
ENDBRANCH  23  25
ENDBRANCH  22  23
ENDBRANCH  21  22
ENDBRANCH   2  21
TORSDOF 7
ENDMDL
MODEL 2
REMARK VINA RESULT:     -10.9      1.643      2.080
REMARK  7 active torsions:
REMARK  status: ('A' for Active; 'I' for Inactive)
REMARK    1  A    between atoms: C_4  and  C_5 
REMARK    2  A    between atoms: C_9  and  C_10 
REMARK       I    between atoms: C_10  and  N_11 
REMARK    3  A    between atoms: N_11  and  N_12 
REMARK       I    between atoms: N_12  and  C_13 
REMARK    4  A    between atoms: C_13  and  C_14 
REMARK    5  A    between atoms: C_14  and  C_15 
REMARK    6  A    between atoms: C_15  and  C_16 
REMARK    7  A    between atoms: C_16  and  C_17 
ROOT
HETATM    1  N   UNL     1       8.585  29.864  57.276  1.00  0.00    -0.267 N 
HETATM    2  C   UNL     1       9.890  30.187  57.580  1.00  0.00     0.236 C 
HETATM    3  O   UNL     1      10.852  29.589  57.103  1.00  0.00    -0.272 OA
HETATM    4  H   UNL     1       7.784  30.230  57.792  1.00  0.00     0.190 HD
ENDROOT
BRANCH   1   5
HETATM    5  N   UNL     1       8.359  28.738  56.479  1.00  0.00    -0.262 N 
HETATM    6  C   UNL     1       8.001  27.549  57.078  1.00  0.00     0.288 C 
HETATM    7  O   UNL     1       7.829  27.461  58.293  1.00  0.00    -0.264 OA
HETATM    8  H   UNL     1       8.606  28.822  55.496  1.00  0.00     0.190 HD
BRANCH   6   9
HETATM    9  C   UNL     1       7.842  26.433  56.190  1.00  0.00     0.121 A 
HETATM   10  N   UNL     1       7.426  26.594  54.898  1.00  0.00    -0.272 N 
HETATM   11  N   UNL     1       7.360  25.456  54.195  1.00  0.00    -0.174 NA
HETATM   12  H   UNL     1       7.185  27.468  54.440  1.00  0.00     0.189 HD
HETATM   13  C   UNL     1       7.731  24.497  55.059  1.00  0.00     0.089 A 
HETATM   14  C   UNL     1       8.038  25.072  56.325  1.00  0.00     0.071 A 
BRANCH  13  15
HETATM   15  C   UNL     1       7.801  23.086  54.665  1.00  0.00    -0.006 A 
HETATM   16  C   UNL     1       7.985  22.734  53.319  1.00  0.00     0.014 A 
HETATM   17  C   UNL     1       8.071  21.393  52.935  1.00  0.00     0.001 A 
HETATM   18  C   UNL     1       7.969  20.386  53.891  1.00  0.00     0.000 A 
HETATM   19  C   UNL     1       7.778  20.718  55.230  1.00  0.00     0.001 A 
HETATM   20  C   UNL     1       7.695  22.060  55.617  1.00  0.00     0.014 A 
ENDBRANCH  13  15
ENDBRANCH   6   9
ENDBRANCH   1   5
BRANCH   2  21
HETATM   21  C   UNL     1      10.007  31.356  58.531  1.00  0.00     0.112 C 
BRANCH  21  22
HETATM   22  C   UNL     1       9.261  31.089  59.834  1.00  0.00     0.093 C 
BRANCH  22  23
HETATM   23  C   UNL     1       8.046  31.986  59.973  1.00  0.00     0.160 C 
HETATM   24  O   UNL     1       7.393  32.346  58.996  1.00  0.00    -0.292 OA
BRANCH  23  25
HETATM   25  C   UNL     1       7.643  32.443  61.338  1.00  0.00     0.013 A 
HETATM   26  C   UNL     1       6.410  33.096  61.484  1.00  0.00     0.054 A 
HETATM   27  C   UNL     1       5.990  33.527  62.742  1.00  0.00     0.103 A 
HETATM   28  C   UNL     1       6.809  33.337  63.859  1.00  0.00     0.102 A 
HETATM   29  O   UNL     1       4.765  34.139  62.807  1.00  0.00    -0.346 OA
HETATM   30  O   UNL     1       6.475  33.761  65.118  1.00  0.00    -0.346 OA
HETATM   31  C   UNL     1       8.029  32.679  63.724  1.00  0.00     0.040 A 
HETATM   32  C   UNL     1       5.395  34.703  65.083  1.00  0.00     0.202 C 
HETATM   33  C   UNL     1       4.291  34.222  64.155  1.00  0.00     0.202 C 
HETATM   34  C   UNL     1       8.449  32.233  62.466  1.00  0.00     0.018 A 
ENDBRANCH  23  25
ENDBRANCH  22  23
ENDBRANCH  21  22
ENDBRANCH   2  21
TORSDOF 7
ENDMDL
MODEL 3
REMARK VINA RESULT:     -10.4      3.500     11.568
REMARK  7 active torsions:
REMARK  status: ('A' for Active; 'I' for Inactive)
REMARK    1  A    between atoms: C_4  and  C_5 
REMARK    2  A    between atoms: C_9  and  C_10 
REMARK       I    between atoms: C_10  and  N_11 
REMARK    3  A    between atoms: N_11  and  N_12 
REMARK       I    between atoms: N_12  and  C_13 
REMARK    4  A    between atoms: C_13  and  C_14 
REMARK    5  A    between atoms: C_14  and  C_15 
REMARK    6  A    between atoms: C_15  and  C_16 
REMARK    7  A    between atoms: C_16  and  C_17 
ROOT
HETATM    1  N   UNL     1       8.113  28.952  55.183  1.00  0.00    -0.267 N 
HETATM    2  C   UNL     1       6.900  28.580  54.642  1.00  0.00     0.236 C 
HETATM    3  O   UNL     1       5.829  29.043  55.027  1.00  0.00    -0.272 OA
HETATM    4  H   UNL     1       8.984  28.454  54.997  1.00  0.00     0.190 HD
ENDROOT
BRANCH   1   5
HETATM    5  N   UNL     1       8.100  29.809  56.287  1.00  0.00    -0.262 N 
HETATM    6  C   UNL     1       9.143  29.765  57.187  1.00  0.00     0.288 C 
HETATM    7  O   UNL     1      10.112  29.024  57.020  1.00  0.00    -0.264 OA
HETATM    8  H   UNL     1       7.242  30.333  56.445  1.00  0.00     0.190 HD
BRANCH   6   9
HETATM    9  C   UNL     1       9.022  30.640  58.318  1.00  0.00     0.121 A 
HETATM   10  N   UNL     1       9.897  31.668  58.530  1.00  0.00    -0.272 N 
HETATM   11  N   UNL     1       9.624  32.409  59.612  1.00  0.00    -0.174 NA
HETATM   12  H   UNL     1      10.696  31.918  57.954  1.00  0.00     0.189 HD
HETATM   13  C   UNL     1       8.534  31.840  60.152  1.00  0.00     0.089 A 
HETATM   14  C   UNL     1       8.128  30.722  59.367  1.00  0.00     0.071 A 
BRANCH  13  15
HETATM   15  C   UNL     1       7.905  32.371  61.365  1.00  0.00    -0.006 A 
HETATM   16  C   UNL     1       6.672  33.037  61.291  1.00  0.00     0.014 A 
HETATM   17  C   UNL     1       6.055  33.531  62.443  1.00  0.00     0.001 A 
HETATM   18  C   UNL     1       6.664  33.370  63.685  1.00  0.00     0.000 A 
HETATM   19  C   UNL     1       7.892  32.717  63.775  1.00  0.00     0.001 A 
HETATM   20  C   UNL     1       8.510  32.220  62.623  1.00  0.00     0.014 A 
ENDBRANCH  13  15
ENDBRANCH   6   9
ENDBRANCH   1   5
BRANCH   2  21
HETATM   21  C   UNL     1       7.034  27.572  53.524  1.00  0.00     0.112 C 
BRANCH  21  22
HETATM   22  C   UNL     1       6.565  26.188  53.962  1.00  0.00     0.093 C 
BRANCH  22  23
HETATM   23  C   UNL     1       6.976  25.121  52.967  1.00  0.00     0.160 C 
HETATM   24  O   UNL     1       6.930  25.315  51.755  1.00  0.00    -0.292 OA
BRANCH  23  25
HETATM   25  C   UNL     1       7.447  23.800  53.485  1.00  0.00     0.013 A 
HETATM   26  C   UNL     1       7.673  23.667  54.863  1.00  0.00     0.054 A 
HETATM   27  C   UNL     1       8.100  22.448  55.388  1.00  0.00     0.103 A 
HETATM   28  C   UNL     1       8.334  21.362  54.541  1.00  0.00     0.102 A 
HETATM   29  O   UNL     1       8.281  22.392  56.746  1.00  0.00    -0.346 OA
HETATM   30  O   UNL     1       8.783  20.145  54.984  1.00  0.00    -0.346 OA
HETATM   31  C   UNL     1       8.100  21.482  53.173  1.00  0.00     0.040 A 
HETATM   32  C   UNL     1       9.307  20.234  56.315  1.00  0.00     0.202 C 
HETATM   33  C   UNL     1       8.376  21.039  57.206  1.00  0.00     0.202 C 
HETATM   34  C   UNL     1       7.660  22.699  52.643  1.00  0.00     0.018 A 
ENDBRANCH  23  25
ENDBRANCH  22  23
ENDBRANCH  21  22
ENDBRANCH   2  21
TORSDOF 7
ENDMDL
MODEL 4
REMARK VINA RESULT:     -10.3      1.450      2.502
REMARK  7 active torsions:
REMARK  status: ('A' for Active; 'I' for Inactive)
REMARK    1  A    between atoms: C_4  and  C_5 
REMARK    2  A    between atoms: C_9  and  C_10 
REMARK       I    between atoms: C_10  and  N_11 
REMARK    3  A    between atoms: N_11  and  N_12 
REMARK       I    between atoms: N_12  and  C_13 
REMARK    4  A    between atoms: C_13  and  C_14 
REMARK    5  A    between atoms: C_14  and  C_15 
REMARK    6  A    between atoms: C_15  and  C_16 
REMARK    7  A    between atoms: C_16  and  C_17 
ROOT
HETATM    1  N   UNL     1       6.824  29.527  56.778  1.00  0.00    -0.267 N 
HETATM    2  C   UNL     1       5.541  29.955  57.048  1.00  0.00     0.236 C 
HETATM    3  O   UNL     1       4.586  29.186  57.123  1.00  0.00    -0.272 OA
HETATM    4  H   UNL     1       7.587  30.163  56.542  1.00  0.00     0.190 HD
ENDROOT
BRANCH   1   5
HETATM    5  N   UNL     1       7.011  28.176  56.470  1.00  0.00    -0.262 N 
HETATM    6  C   UNL     1       7.626  27.355  57.390  1.00  0.00     0.288 C 
HETATM    7  O   UNL     1       7.973  27.765  58.497  1.00  0.00    -0.264 OA
HETATM    8  H   UNL     1       6.804  27.897  55.514  1.00  0.00     0.190 HD
BRANCH   6   9
HETATM    9  C   UNL     1       7.825  25.996  56.970  1.00  0.00     0.121 A 
HETATM   10  N   UNL     1       8.261  25.031  57.833  1.00  0.00    -0.272 N 
HETATM   11  N   UNL     1       8.363  23.811  57.290  1.00  0.00    -0.174 NA
HETATM   12  H   UNL     1       8.491  25.151  58.816  1.00  0.00     0.189 HD
HETATM   13  C   UNL     1       7.998  23.975  56.008  1.00  0.00     0.089 A 
HETATM   14  C   UNL     1       7.656  25.337  55.768  1.00  0.00     0.071 A 
BRANCH  13  15
HETATM   15  C   UNL     1       7.965  22.854  55.064  1.00  0.00    -0.006 A 
HETATM   16  C   UNL     1       7.943  21.532  55.534  1.00  0.00     0.014 A 
HETATM   17  C   UNL     1       7.894  20.456  54.644  1.00  0.00     0.001 A 
HETATM   18  C   UNL     1       7.871  20.687  53.271  1.00  0.00     0.000 A 
HETATM   19  C   UNL     1       7.900  21.994  52.787  1.00  0.00     0.001 A 
HETATM   20  C   UNL     1       7.946  23.072  53.677  1.00  0.00     0.014 A 
ENDBRANCH  13  15
ENDBRANCH   6   9
ENDBRANCH   1   5
BRANCH   2  21
HETATM   21  C   UNL     1       5.446  31.447  57.263  1.00  0.00     0.112 C 
BRANCH  21  22
HETATM   22  C   UNL     1       5.429  31.796  58.748  1.00  0.00     0.093 C 
BRANCH  22  23
HETATM   23  C   UNL     1       6.832  31.970  59.295  1.00  0.00     0.160 C 
HETATM   24  O   UNL     1       7.822  31.887  58.573  1.00  0.00    -0.292 OA
BRANCH  23  25
HETATM   25  C   UNL     1       7.005  32.247  60.754  1.00  0.00     0.013 A 
HETATM   26  C   UNL     1       5.925  32.796  61.460  1.00  0.00     0.054 A 
HETATM   27  C   UNL     1       6.041  33.059  62.825  1.00  0.00     0.103 A 
HETATM   28  C   UNL     1       7.243  32.802  63.489  1.00  0.00     0.102 A 
HETATM   29  O   UNL     1       4.936  33.578  63.449  1.00  0.00    -0.346 OA
HETATM   30  O   UNL     1       7.438  33.064  64.821  1.00  0.00    -0.346 OA
HETATM   31  C   UNL     1       8.316  32.245  62.798  1.00  0.00     0.040 A 
HETATM   32  C   UNL     1       6.420  33.930  65.338  1.00  0.00     0.202 C 
HETATM   33  C   UNL     1       5.044  33.481  64.873  1.00  0.00     0.202 C 
HETATM   34  C   UNL     1       8.201  31.969  61.432  1.00  0.00     0.018 A 
ENDBRANCH  23  25
ENDBRANCH  22  23
ENDBRANCH  21  22
ENDBRANCH   2  21
TORSDOF 7
ENDMDL
MODEL 5
REMARK VINA RESULT:     -10.3      1.452      2.152
REMARK  7 active torsions:
REMARK  status: ('A' for Active; 'I' for Inactive)
REMARK    1  A    between atoms: C_4  and  C_5 
REMARK    2  A    between atoms: C_9  and  C_10 
REMARK       I    between atoms: C_10  and  N_11 
REMARK    3  A    between atoms: N_11  and  N_12 
REMARK       I    between atoms: N_12  and  C_13 
REMARK    4  A    between atoms: C_13  and  C_14 
REMARK    5  A    between atoms: C_14  and  C_15 
REMARK    6  A    between atoms: C_15  and  C_16 
REMARK    7  A    between atoms: C_16  and  C_17 
ROOT
HETATM    1  N   UNL     1       7.432  30.146  58.827  1.00  0.00    -0.267 N 
HETATM    2  C   UNL     1       8.624  30.833  58.921  1.00  0.00     0.236 C 
HETATM    3  O   UNL     1       9.640  30.487  58.322  1.00  0.00    -0.272 OA
HETATM    4  H   UNL     1       6.639  30.316  59.446  1.00  0.00     0.190 HD
ENDROOT
BRANCH   1   5
HETATM    5  N   UNL     1       7.423  28.948  58.106  1.00  0.00    -0.262 N 
HETATM    6  C   UNL     1       6.273  28.567  57.448  1.00  0.00     0.288 C 
HETATM    7  O   UNL     1       5.266  29.275  57.437  1.00  0.00    -0.264 OA
HETATM    8  H   UNL     1       8.234  28.345  58.218  1.00  0.00     0.190 HD
BRANCH   6   9
HETATM    9  C   UNL     1       6.336  27.298  56.778  1.00  0.00     0.121 A 
HETATM   10  N   UNL     1       5.213  26.563  56.520  1.00  0.00    -0.272 N 
HETATM   11  N   UNL     1       5.443  25.421  55.860  1.00  0.00    -0.174 NA
HETATM   12  H   UNL     1       4.257  26.806  56.764  1.00  0.00     0.189 HD
HETATM   13  C   UNL     1       6.774  25.386  55.687  1.00  0.00     0.089 A 
HETATM   14  C   UNL     1       7.371  26.549  56.255  1.00  0.00     0.071 A 
BRANCH  13  15
HETATM   15  C   UNL     1       7.434  24.281  54.985  1.00  0.00    -0.006 A 
HETATM   16  C   UNL     1       8.452  23.548  55.614  1.00  0.00     0.014 A 
HETATM   17  C   UNL     1       9.075  22.481  54.962  1.00  0.00     0.001 A 
HETATM   18  C   UNL     1       8.692  22.136  53.668  1.00  0.00     0.000 A 
HETATM   19  C   UNL     1       7.688  22.858  53.026  1.00  0.00     0.001 A 
HETATM   20  C   UNL     1       7.061  23.924  53.680  1.00  0.00     0.014 A 
ENDBRANCH  13  15
ENDBRANCH   6   9
ENDBRANCH   1   5
BRANCH   2  21
HETATM   21  C   UNL     1       8.538  32.052  59.808  1.00  0.00     0.112 C 
BRANCH  21  22
HETATM   22  C   UNL     1       9.378  31.883  61.070  1.00  0.00     0.093 C 
BRANCH  22  23
HETATM   23  C   UNL     1       8.546  31.360  62.225  1.00  0.00     0.160 C 
HETATM   24  O   UNL     1       8.636  30.197  62.611  1.00  0.00    -0.292 OA
BRANCH  23  25
HETATM   25  C   UNL     1       7.592  32.290  62.902  1.00  0.00     0.013 A 
HETATM   26  C   UNL     1       6.311  32.446  62.354  1.00  0.00     0.054 A 
HETATM   27  C   UNL     1       5.387  33.294  62.962  1.00  0.00     0.103 A 
HETATM   28  C   UNL     1       5.742  34.016  64.104  1.00  0.00     0.102 A 
HETATM   29  O   UNL     1       4.149  33.378  62.377  1.00  0.00    -0.346 OA
HETATM   30  O   UNL     1       4.896  34.891  64.735  1.00  0.00    -0.346 OA
HETATM   31  C   UNL     1       7.008  33.859  64.662  1.00  0.00     0.040 A 
HETATM   32  C   UNL     1       3.778  35.229  63.904  1.00  0.00     0.202 C 
HETATM   33  C   UNL     1       3.195  33.985  63.255  1.00  0.00     0.202 C 
HETATM   34  C   UNL     1       7.935  32.999  64.063  1.00  0.00     0.018 A 
ENDBRANCH  23  25
ENDBRANCH  22  23
ENDBRANCH  21  22
ENDBRANCH   2  21
TORSDOF 7
ENDMDL
MODEL 6
REMARK VINA RESULT:     -10.3      2.830     11.628
REMARK  7 active torsions:
REMARK  status: ('A' for Active; 'I' for Inactive)
REMARK    1  A    between atoms: C_4  and  C_5 
REMARK    2  A    between atoms: C_9  and  C_10 
REMARK       I    between atoms: C_10  and  N_11 
REMARK    3  A    between atoms: N_11  and  N_12 
REMARK       I    between atoms: N_12  and  C_13 
REMARK    4  A    between atoms: C_13  and  C_14 
REMARK    5  A    between atoms: C_14  and  C_15 
REMARK    6  A    between atoms: C_15  and  C_16 
REMARK    7  A    between atoms: C_16  and  C_17 
ROOT
HETATM    1  N   UNL     1       8.313  28.607  57.228  1.00  0.00    -0.267 N 
HETATM    2  C   UNL     1       7.420  28.762  56.189  1.00  0.00     0.236 C 
HETATM    3  O   UNL     1       6.447  29.509  56.254  1.00  0.00    -0.272 OA
HETATM    4  H   UNL     1       9.016  27.869  57.255  1.00  0.00     0.190 HD
ENDROOT
BRANCH   1   5
HETATM    5  N   UNL     1       8.027  29.249  58.437  1.00  0.00    -0.262 N 
HETATM    6  C   UNL     1       8.883  30.225  58.901  1.00  0.00     0.288 C 
HETATM    7  O   UNL     1       9.869  30.582  58.257  1.00  0.00    -0.264 OA
HETATM    8  H   UNL     1       7.264  28.861  58.986  1.00  0.00     0.190 HD
BRANCH   6   9
HETATM    9  C   UNL     1       8.541  30.792  60.174  1.00  0.00     0.121 A 
HETATM   10  N   UNL     1       8.910  30.200  61.349  1.00  0.00    -0.272 N 
HETATM   11  N   UNL     1       8.541  30.875  62.446  1.00  0.00    -0.174 NA
HETATM   12  H   UNL     1       9.432  29.335  61.458  1.00  0.00     0.189 HD
HETATM   13  C   UNL     1       7.883  31.950  61.982  1.00  0.00     0.089 A 
HETATM   14  C   UNL     1       7.860  31.931  60.557  1.00  0.00     0.071 A 
BRANCH  13  15
HETATM   15  C   UNL     1       7.320  32.960  62.883  1.00  0.00    -0.006 A 
HETATM   16  C   UNL     1       6.448  33.943  62.391  1.00  0.00     0.014 A 
HETATM   17  C   UNL     1       5.891  34.899  63.243  1.00  0.00     0.001 A 
HETATM   18  C   UNL     1       6.203  34.889  64.601  1.00  0.00     0.000 A 
HETATM   19  C   UNL     1       7.073  33.925  65.105  1.00  0.00     0.001 A 
HETATM   20  C   UNL     1       7.629  32.965  64.252  1.00  0.00     0.014 A 
ENDBRANCH  13  15
ENDBRANCH   6   9
ENDBRANCH   1   5
BRANCH   2  21
HETATM   21  C   UNL     1       7.777  27.941  54.972  1.00  0.00     0.112 C 
BRANCH  21  22
HETATM   22  C   UNL     1       6.583  27.132  54.476  1.00  0.00     0.093 C 
BRANCH  22  23
HETATM   23  C   UNL     1       6.176  26.070  55.478  1.00  0.00     0.160 C 
HETATM   24  O   UNL     1       5.219  26.226  56.233  1.00  0.00    -0.292 OA
BRANCH  23  25
HETATM   25  C   UNL     1       6.968  24.804  55.544  1.00  0.00     0.013 A 
HETATM   26  C   UNL     1       6.897  23.917  54.459  1.00  0.00     0.054 A 
HETATM   27  C   UNL     1       7.629  22.731  54.475  1.00  0.00     0.103 A 
HETATM   28  C   UNL     1       8.414  22.405  55.584  1.00  0.00     0.102 A 
HETATM   29  O   UNL     1       7.522  21.925  53.370  1.00  0.00    -0.346 OA
HETATM   30  O   UNL     1       9.136  21.244  55.681  1.00  0.00    -0.346 OA
HETATM   31  C   UNL     1       8.501  23.286  56.660  1.00  0.00     0.040 A 
HETATM   32  C   UNL     1       8.714  20.283  54.705  1.00  0.00     0.202 C 
HETATM   33  C   UNL     1       8.556  20.936  53.341  1.00  0.00     0.202 C 
HETATM   34  C   UNL     1       7.777  24.483  56.643  1.00  0.00     0.018 A 
ENDBRANCH  23  25
ENDBRANCH  22  23
ENDBRANCH  21  22
ENDBRANCH   2  21
TORSDOF 7
ENDMDL
MODEL 7
REMARK VINA RESULT:     -10.3      2.670     11.641
REMARK  7 active torsions:
REMARK  status: ('A' for Active; 'I' for Inactive)
REMARK    1  A    between atoms: C_4  and  C_5 
REMARK    2  A    between atoms: C_9  and  C_10 
REMARK       I    between atoms: C_10  and  N_11 
REMARK    3  A    between atoms: N_11  and  N_12 
REMARK       I    between atoms: N_12  and  C_13 
REMARK    4  A    between atoms: C_13  and  C_14 
REMARK    5  A    between atoms: C_14  and  C_15 
REMARK    6  A    between atoms: C_15  and  C_16 
REMARK    7  A    between atoms: C_16  and  C_17 
ROOT
HETATM    1  N   UNL     1       7.794  29.306  57.560  1.00  0.00    -0.267 N 
HETATM    2  C   UNL     1       7.974  27.965  57.296  1.00  0.00     0.236 C 
HETATM    3  O   UNL     1       7.934  27.103  58.171  1.00  0.00    -0.272 OA
HETATM    4  H   UNL     1       7.997  30.041  56.882  1.00  0.00     0.190 HD
ENDROOT
BRANCH   1   5
HETATM    5  N   UNL     1       7.673  29.698  58.897  1.00  0.00    -0.262 N 
HETATM    6  C   UNL     1       7.450  31.027  59.191  1.00  0.00     0.288 C 
HETATM    7  O   UNL     1       7.306  31.871  58.308  1.00  0.00    -0.264 OA
HETATM    8  H   UNL     1       7.895  28.995  59.598  1.00  0.00     0.190 HD
BRANCH   6   9
HETATM    9  C   UNL     1       7.392  31.348  60.589  1.00  0.00     0.121 A 
HETATM   10  N   UNL     1       8.225  30.760  61.499  1.00  0.00    -0.272 N 
HETATM   11  N   UNL     1       8.063  31.195  62.755  1.00  0.00    -0.174 NA
HETATM   12  H   UNL     1       8.936  30.060  61.310  1.00  0.00     0.189 HD
HETATM   13  C   UNL     1       7.070  32.097  62.681  1.00  0.00     0.089 A 
HETATM   14  C   UNL     1       6.620  32.218  61.335  1.00  0.00     0.071 A 
BRANCH  13  15
HETATM   15  C   UNL     1       6.594  32.821  63.864  1.00  0.00    -0.006 A 
HETATM   16  C   UNL     1       5.219  32.989  64.086  1.00  0.00     0.014 A 
HETATM   17  C   UNL     1       4.753  33.662  65.219  1.00  0.00     0.001 A 
HETATM   18  C   UNL     1       5.657  34.181  66.142  1.00  0.00     0.000 A 
HETATM   19  C   UNL     1       7.026  34.030  65.932  1.00  0.00     0.001 A 
HETATM   20  C   UNL     1       7.493  33.354  64.800  1.00  0.00     0.014 A 
ENDBRANCH  13  15
ENDBRANCH   6   9
ENDBRANCH   1   5
BRANCH   2  21
HETATM   21  C   UNL     1       8.197  27.673  55.831  1.00  0.00     0.112 C 
BRANCH  21  22
HETATM   22  C   UNL     1       6.875  27.520  55.086  1.00  0.00     0.093 C 
BRANCH  22  23
HETATM   23  C   UNL     1       6.141  26.263  55.510  1.00  0.00     0.160 C 
HETATM   24  O   UNL     1       5.080  26.310  56.127  1.00  0.00    -0.292 OA
BRANCH  23  25
HETATM   25  C   UNL     1       6.734  24.934  55.165  1.00  0.00     0.013 A 
HETATM   26  C   UNL     1       7.251  24.146  56.205  1.00  0.00     0.054 A 
HETATM   27  C   UNL     1       7.802  22.896  55.928  1.00  0.00     0.103 A 
HETATM   28  C   UNL     1       7.869  22.433  54.611  1.00  0.00     0.102 A 
HETATM   29  O   UNL     1       8.268  22.177  56.999  1.00  0.00    -0.346 OA
HETATM   30  O   UNL     1       8.423  21.229  54.263  1.00  0.00    -0.346 OA
HETATM   31  C   UNL     1       7.347  23.204  53.575  1.00  0.00     0.040 A 
HETATM   32  C   UNL     1       9.217  20.692  55.329  1.00  0.00     0.202 C 
HETATM   33  C   UNL     1       8.483  20.804  56.655  1.00  0.00     0.202 C 
HETATM   34  C   UNL     1       6.782  24.454  53.849  1.00  0.00     0.018 A 
ENDBRANCH  23  25
ENDBRANCH  22  23
ENDBRANCH  21  22
ENDBRANCH   2  21
TORSDOF 7
ENDMDL
MODEL 8
REMARK VINA RESULT:     -10.0      3.423     10.928
REMARK  7 active torsions:
REMARK  status: ('A' for Active; 'I' for Inactive)
REMARK    1  A    between atoms: C_4  and  C_5 
REMARK    2  A    between atoms: C_9  and  C_10 
REMARK       I    between atoms: C_10  and  N_11 
REMARK    3  A    between atoms: N_11  and  N_12 
REMARK       I    between atoms: N_12  and  C_13 
REMARK    4  A    between atoms: C_13  and  C_14 
REMARK    5  A    between atoms: C_14  and  C_15 
REMARK    6  A    between atoms: C_15  and  C_16 
REMARK    7  A    between atoms: C_16  and  C_17 
ROOT
HETATM    1  N   UNL     1       8.103  27.369  56.743  1.00  0.00    -0.267 N 
HETATM    2  C   UNL     1       8.076  26.102  57.286  1.00  0.00     0.236 C 
HETATM    3  O   UNL     1       7.888  25.895  58.482  1.00  0.00    -0.272 OA
HETATM    4  H   UNL     1       8.428  27.564  55.796  1.00  0.00     0.190 HD
ENDROOT
BRANCH   1   5
HETATM    5  N   UNL     1       8.020  28.457  57.618  1.00  0.00    -0.262 N 
HETATM    6  C   UNL     1       9.088  29.322  57.719  1.00  0.00     0.288 C 
HETATM    7  O   UNL     1      10.097  29.192  57.026  1.00  0.00    -0.264 OA
HETATM    8  H   UNL     1       7.218  28.476  58.242  1.00  0.00     0.190 HD
BRANCH   6   9
HETATM    9  C   UNL     1       8.938  30.379  58.679  1.00  0.00     0.121 A 
HETATM   10  N   UNL     1       9.593  31.571  58.546  1.00  0.00    -0.272 N 
HETATM   11  N   UNL     1       9.319  32.460  59.510  1.00  0.00    -0.174 NA
HETATM   12  H   UNL     1      10.233  31.835  57.803  1.00  0.00     0.189 HD
HETATM   13  C   UNL     1       8.460  31.827  60.326  1.00  0.00     0.089 A 
HETATM   14  C   UNL     1       8.200  30.514  59.838  1.00  0.00     0.071 A 
BRANCH  13  15
HETATM   15  C   UNL     1       7.904  32.478  61.517  1.00  0.00    -0.006 A 
HETATM   16  C   UNL     1       6.820  33.361  61.401  1.00  0.00     0.014 A 
HETATM   17  C   UNL     1       6.271  33.973  62.531  1.00  0.00     0.001 A 
HETATM   18  C   UNL     1       6.801  33.712  63.792  1.00  0.00     0.000 A 
HETATM   19  C   UNL     1       7.882  32.843  63.924  1.00  0.00     0.001 A 
HETATM   20  C   UNL     1       8.431  32.228  62.794  1.00  0.00     0.014 A 
ENDBRANCH  13  15
ENDBRANCH   6   9
ENDBRANCH   1   5
BRANCH   2  21
HETATM   21  C   UNL     1       8.278  25.012  56.259  1.00  0.00     0.112 C 
BRANCH  21  22
HETATM   22  C   UNL     1       6.973  24.282  55.959  1.00  0.00     0.093 C 
BRANCH  22  23
HETATM   23  C   UNL     1       6.825  23.995  54.477  1.00  0.00     0.160 C 
HETATM   24  O   UNL     1       7.174  22.924  53.988  1.00  0.00    -0.292 OA
BRANCH  23  25
HETATM   25  C   UNL     1       6.241  25.053  53.596  1.00  0.00     0.013 A 
HETATM   26  C   UNL     1       5.398  26.012  54.176  1.00  0.00     0.054 A 
HETATM   27  C   UNL     1       4.842  27.022  53.392  1.00  0.00     0.103 A 
HETATM   28  C   UNL     1       5.100  27.067  52.019  1.00  0.00     0.102 A 
HETATM   29  O   UNL     1       4.043  27.932  54.035  1.00  0.00    -0.346 OA
HETATM   30  O   UNL     1       4.564  28.012  51.183  1.00  0.00    -0.346 OA
HETATM   31  C   UNL     1       5.946  26.127  51.438  1.00  0.00     0.040 A 
HETATM   32  C   UNL     1       3.468  28.697  51.803  1.00  0.00     0.202 C 
HETATM   33  C   UNL     1       3.818  29.093  53.228  1.00  0.00     0.202 C 
HETATM   34  C   UNL     1       6.516  25.118  52.222  1.00  0.00     0.018 A 
ENDBRANCH  23  25
ENDBRANCH  22  23
ENDBRANCH  21  22
ENDBRANCH   2  21
TORSDOF 7
ENDMDL
MODEL 9
REMARK VINA RESULT:      -9.8      2.850     11.886
REMARK  7 active torsions:
REMARK  status: ('A' for Active; 'I' for Inactive)
REMARK    1  A    between atoms: C_4  and  C_5 
REMARK    2  A    between atoms: C_9  and  C_10 
REMARK       I    between atoms: C_10  and  N_11 
REMARK    3  A    between atoms: N_11  and  N_12 
REMARK       I    between atoms: N_12  and  C_13 
REMARK    4  A    between atoms: C_13  and  C_14 
REMARK    5  A    between atoms: C_14  and  C_15 
REMARK    6  A    between atoms: C_15  and  C_16 
REMARK    7  A    between atoms: C_16  and  C_17 
ROOT
HETATM    1  N   UNL     1       7.977  29.483  58.984  1.00  0.00    -0.267 N 
HETATM    2  C   UNL     1       8.896  29.770  57.998  1.00  0.00     0.236 C 
HETATM    3  O   UNL     1       9.456  30.860  57.907  1.00  0.00    -0.272 OA
HETATM    4  H   UNL     1       7.381  28.655  58.968  1.00  0.00     0.190 HD
ENDROOT
BRANCH   1   5
HETATM    5  N   UNL     1       7.594  30.518  59.842  1.00  0.00    -0.262 N 
HETATM    6  C   UNL     1       8.314  30.735  60.998  1.00  0.00     0.288 C 
HETATM    7  O   UNL     1       9.314  30.074  61.274  1.00  0.00    -0.264 OA
HETATM    8  H   UNL     1       6.711  30.977  59.634  1.00  0.00     0.190 HD
BRANCH   6   9
HETATM    9  C   UNL     1       7.820  31.783  61.846  1.00  0.00     0.121 A 
HETATM   10  N   UNL     1       8.306  31.979  63.108  1.00  0.00    -0.272 N 
HETATM   11  N   UNL     1       7.761  33.018  63.754  1.00  0.00    -0.174 NA
HETATM   12  H   UNL     1       9.026  31.434  63.575  1.00  0.00     0.189 HD
HETATM   13  C   UNL     1       6.863  33.523  62.893  1.00  0.00     0.089 A 
HETATM   14  C   UNL     1       6.868  32.771  61.683  1.00  0.00     0.071 A 
BRANCH  13  15
HETATM   15  C   UNL     1       6.049  34.697  63.225  1.00  0.00    -0.006 A 
HETATM   16  C   UNL     1       5.607  34.904  64.540  1.00  0.00     0.014 A 
HETATM   17  C   UNL     1       4.847  36.028  64.872  1.00  0.00     0.001 A 
HETATM   18  C   UNL     1       4.512  36.959  63.891  1.00  0.00     0.000 A 
HETATM   19  C   UNL     1       4.937  36.764  62.578  1.00  0.00     0.001 A 
HETATM   20  C   UNL     1       5.701  35.640  62.246  1.00  0.00     0.014 A 
ENDBRANCH  13  15
ENDBRANCH   6   9
ENDBRANCH   1   5
BRANCH   2  21
HETATM   21  C   UNL     1       9.153  28.607  57.069  1.00  0.00     0.112 C 
BRANCH  21  22
HETATM   22  C   UNL     1       7.855  27.904  56.685  1.00  0.00     0.093 C 
BRANCH  22  23
HETATM   23  C   UNL     1       7.785  26.508  57.271  1.00  0.00     0.160 C 
HETATM   24  O   UNL     1       7.782  26.316  58.485  1.00  0.00    -0.292 OA
BRANCH  23  25
HETATM   25  C   UNL     1       7.721  25.340  56.340  1.00  0.00     0.013 A 
HETATM   26  C   UNL     1       8.001  24.065  56.852  1.00  0.00     0.054 A 
HETATM   27  C   UNL     1       7.941  22.947  56.020  1.00  0.00     0.103 A 
HETATM   28  C   UNL     1       7.630  23.096  54.666  1.00  0.00     0.102 A 
HETATM   29  O   UNL     1       8.210  21.733  56.599  1.00  0.00    -0.346 OA
HETATM   30  O   UNL     1       7.583  22.047  53.785  1.00  0.00    -0.346 OA
HETATM   31  C   UNL     1       7.338  24.357  54.153  1.00  0.00     0.040 A 
HETATM   32  C   UNL     1       8.220  20.882  54.324  1.00  0.00     0.202 C 
HETATM   33  C   UNL     1       7.788  20.650  55.763  1.00  0.00     0.202 C 
HETATM   34  C   UNL     1       7.385  25.480  54.986  1.00  0.00     0.018 A 
ENDBRANCH  23  25
ENDBRANCH  22  23
ENDBRANCH  21  22
ENDBRANCH   2  21
TORSDOF 7
ENDMDL
MODEL 10
REMARK VINA RESULT:      -9.7      2.460      4.323
REMARK  7 active torsions:
REMARK  status: ('A' for Active; 'I' for Inactive)
REMARK    1  A    between atoms: C_4  and  C_5 
REMARK    2  A    between atoms: C_9  and  C_10 
REMARK       I    between atoms: C_10  and  N_11 
REMARK    3  A    between atoms: N_11  and  N_12 
REMARK       I    between atoms: N_12  and  C_13 
REMARK    4  A    between atoms: C_13  and  C_14 
REMARK    5  A    between atoms: C_14  and  C_15 
REMARK    6  A    between atoms: C_15  and  C_16 
REMARK    7  A    between atoms: C_16  and  C_17 
ROOT
HETATM    1  N   UNL     1       3.907  28.271  56.607  1.00  0.00    -0.267 N 
HETATM    2  C   UNL     1       4.062  29.272  55.672  1.00  0.00     0.236 C 
HETATM    3  O   UNL     1       4.676  29.111  54.620  1.00  0.00    -0.272 OA
HETATM    4  H   UNL     1       3.557  28.438  57.551  1.00  0.00     0.190 HD
ENDROOT
BRANCH   1   5
HETATM    5  N   UNL     1       4.575  27.062  56.387  1.00  0.00    -0.262 N 
HETATM    6  C   UNL     1       5.849  26.896  56.886  1.00  0.00     0.288 C 
HETATM    7  O   UNL     1       6.400  27.765  57.561  1.00  0.00    -0.264 OA
HETATM    8  H   UNL     1       4.131  26.410  55.745  1.00  0.00     0.190 HD
BRANCH   6   9
HETATM    9  C   UNL     1       6.479  25.646  56.568  1.00  0.00     0.121 A 
HETATM   10  N   UNL     1       7.183  24.936  57.499  1.00  0.00    -0.272 N 
HETATM   11  N   UNL     1       7.679  23.776  57.049  1.00  0.00    -0.174 NA
HETATM   12  H   UNL     1       7.344  25.195  58.468  1.00  0.00     0.189 HD
HETATM   13  C   UNL     1       7.305  23.721  55.760  1.00  0.00     0.089 A 
HETATM   14  C   UNL     1       6.551  24.881  55.420  1.00  0.00     0.071 A 
BRANCH  13  15
HETATM   15  C   UNL     1       7.649  22.582  54.903  1.00  0.00    -0.006 A 
HETATM   16  C   UNL     1       7.956  21.336  55.470  1.00  0.00     0.014 A 
HETATM   17  C   UNL     1       8.268  20.239  54.663  1.00  0.00     0.001 A 
HETATM   18  C   UNL     1       8.282  20.375  53.277  1.00  0.00     0.000 A 
HETATM   19  C   UNL     1       7.987  21.607  52.698  1.00  0.00     0.001 A 
HETATM   20  C   UNL     1       7.672  22.705  53.505  1.00  0.00     0.014 A 
ENDBRANCH  13  15
ENDBRANCH   6   9
ENDBRANCH   1   5
BRANCH   2  21
HETATM   21  C   UNL     1       3.384  30.563  56.066  1.00  0.00     0.112 C 
BRANCH  21  22
HETATM   22  C   UNL     1       3.390  30.756  57.580  1.00  0.00     0.093 C 
BRANCH  22  23
HETATM   23  C   UNL     1       4.221  31.957  57.983  1.00  0.00     0.160 C 
HETATM   24  O   UNL     1       3.817  33.107  57.826  1.00  0.00    -0.292 OA
BRANCH  23  25
HETATM   25  C   UNL     1       5.571  31.727  58.585  1.00  0.00     0.013 A 
HETATM   26  C   UNL     1       5.812  32.206  59.881  1.00  0.00     0.054 A 
HETATM   27  C   UNL     1       7.052  32.002  60.484  1.00  0.00     0.103 A 
HETATM   28  C   UNL     1       8.071  31.345  59.789  1.00  0.00     0.102 A 
HETATM   29  O   UNL     1       7.205  32.483  61.759  1.00  0.00    -0.346 OA
HETATM   30  O   UNL     1       9.323  31.136  60.307  1.00  0.00    -0.346 OA
HETATM   31  C   UNL     1       7.836  30.855  58.507  1.00  0.00     0.040 A 
HETATM   32  C   UNL     1       9.557  31.960  61.457  1.00  0.00     0.202 C 
HETATM   33  C   UNL     1       8.361  31.926  62.394  1.00  0.00     0.202 C 
HETATM   34  C   UNL     1       6.589  31.047  57.902  1.00  0.00     0.018 A 
ENDBRANCH  23  25
ENDBRANCH  22  23
ENDBRANCH  21  22
ENDBRANCH   2  21
TORSDOF 7
ENDMDL
