MODEL 1
REMARK VINA RESULT:      -9.9      0.000      0.000
REMARK  4 active torsions:
REMARK  status: ('A' for Active; 'I' for Inactive)
REMARK    1  A    between atoms: C_3  and  N_4 
REMARK       I    between atoms: N_4  and  C_5 
REMARK    2  A    between atoms: C_5  and  C_6 
REMARK    3  A    between atoms: C_7  and  C_8 
REMARK    4  A    between atoms: C_19  and  C_20 
ROOT
HETATM    1  N   UNL     1       7.348  26.396  55.698  1.00  0.00    -0.324 N 
HETATM    2  C   UNL     1       6.213  27.126  55.985  1.00  0.00     0.245 C 
HETATM    3  O   UNL     1       5.150  27.110  55.378  1.00  0.00    -0.268 OA
HETATM    4  H   UNL     1       8.134  26.491  56.326  1.00  0.00     0.169 HD
ENDROOT
BRANCH   1   5
HETATM    5  C   UNL     1       7.548  25.526  54.601  1.00  0.00     0.035 A 
HETATM    6  C   UNL     1       7.453  25.922  53.267  1.00  0.00     0.029 A 
HETATM    7  C   UNL     1       7.692  25.009  52.238  1.00  0.00     0.003 A 
HETATM    8  C   UNL     1       8.025  23.687  52.534  1.00  0.00     0.012 A 
HETATM    9  C   UNL     1       8.120  23.264  53.863  1.00  0.00    -0.021 A 
HETATM   10  C   UNL     1       7.882  24.193  54.889  1.00  0.00     0.042 A 
BRANCH   9  11
HETATM   11  C   UNL     1       8.471  21.886  54.161  1.00  0.00     0.010 A 
HETATM   12  C   UNL     1       8.390  20.719  53.365  1.00  0.00     0.152 A 
HETATM   13  N   UNL     1       8.794  19.621  54.010  1.00  0.00    -0.187 NA
HETATM   14  N   UNL     1       9.127  20.079  55.227  1.00  0.00    -0.289 N 
HETATM   15  H   UNL     1       9.460  19.412  55.915  1.00  0.00     0.188 HD
HETATM   16  C   UNL     1       8.955  21.426  55.368  1.00  0.00     0.123 A 
ENDBRANCH   9  11
ENDBRANCH   1   5
BRANCH   2  17
HETATM   17  C   UNL     1       6.402  28.005  57.176  1.00  0.00     0.075 C 
HETATM   18  C   UNL     1       6.820  29.270  57.004  1.00  0.00     0.017 C 
BRANCH  18  19
HETATM   19  C   UNL     1       7.077  30.222  58.094  1.00  0.00    -0.035 A 
HETATM   20  C   UNL     1       8.090  29.920  59.019  1.00  0.00     0.021 A 
HETATM   21  C   UNL     1       8.293  30.778  60.088  1.00  0.00    -0.022 A 
HETATM   22  C   UNL     1       7.521  31.917  60.244  1.00  0.00     0.075 A 
HETATM   23  C   UNL     1       9.310  30.730  61.162  1.00  0.00     0.068 C 
HETATM   24  O   UNL     1       7.851  32.659  61.346  1.00  0.00    -0.350 OA
HETATM   25  C   UNL     1       6.523  32.247  59.352  1.00  0.00     0.038 A 
HETATM   26  C   UNL     1       8.708  31.772  62.105  1.00  0.00     0.180 C 
HETATM   27  C   UNL     1       6.294  31.383  58.276  1.00  0.00     0.014 A 
ENDBRANCH  18  19
ENDBRANCH   2  17
TORSDOF 4
ENDMDL
MODEL 2
REMARK VINA RESULT:      -9.6      3.267      9.802
REMARK  4 active torsions:
REMARK  status: ('A' for Active; 'I' for Inactive)
REMARK    1  A    between atoms: C_3  and  N_4 
REMARK       I    between atoms: N_4  and  C_5 
REMARK    2  A    between atoms: C_5  and  C_6 
REMARK    3  A    between atoms: C_7  and  C_8 
REMARK    4  A    between atoms: C_19  and  C_20 
ROOT
HETATM    1  N   UNL     1       8.836  28.289  57.065  1.00  0.00    -0.324 N 
HETATM    2  C   UNL     1       7.661  27.980  56.409  1.00  0.00     0.245 C 
HETATM    3  O   UNL     1       6.682  28.702  56.267  1.00  0.00    -0.268 OA
HETATM    4  H   UNL     1       9.570  27.595  57.055  1.00  0.00     0.169 HD
ENDROOT
BRANCH   1   5
HETATM    5  C   UNL     1       9.132  29.477  57.772  1.00  0.00     0.035 A 
HETATM    6  C   UNL     1      10.216  30.305  57.482  1.00  0.00     0.029 A 
HETATM    7  C   UNL     1      10.427  31.478  58.210  1.00  0.00     0.003 A 
HETATM    8  C   UNL     1       9.555  31.833  59.239  1.00  0.00     0.012 A 
HETATM    9  C   UNL     1       8.464  31.016  59.553  1.00  0.00    -0.021 A 
HETATM   10  C   UNL     1       8.261  29.841  58.811  1.00  0.00     0.042 A 
BRANCH   9  11
HETATM   11  C   UNL     1       7.560  31.397  60.625  1.00  0.00     0.010 A 
HETATM   12  C   UNL     1       7.657  31.214  62.025  1.00  0.00     0.152 A 
HETATM   13  N   UNL     1       6.598  31.690  62.685  1.00  0.00    -0.187 NA
HETATM   14  N   UNL     1       5.812  32.172  61.709  1.00  0.00    -0.289 N 
HETATM   15  H   UNL     1       4.923  32.586  61.970  1.00  0.00     0.188 HD
HETATM   16  C   UNL     1       6.342  32.024  60.460  1.00  0.00     0.123 A 
ENDBRANCH   9  11
ENDBRANCH   1   5
BRANCH   2  17
HETATM   17  C   UNL     1       7.680  26.596  55.852  1.00  0.00     0.075 C 
HETATM   18  C   UNL     1       8.114  25.582  56.619  1.00  0.00     0.017 C 
BRANCH  18  19
HETATM   19  C   UNL     1       8.215  24.184  56.179  1.00  0.00    -0.035 A 
HETATM   20  C   UNL     1       8.053  23.899  54.813  1.00  0.00     0.021 A 
HETATM   21  C   UNL     1       8.078  22.577  54.400  1.00  0.00    -0.022 A 
HETATM   22  C   UNL     1       8.266  21.550  55.310  1.00  0.00     0.075 A 
HETATM   23  C   UNL     1       7.990  22.009  53.037  1.00  0.00     0.068 C 
HETATM   24  O   UNL     1       8.270  20.305  54.740  1.00  0.00    -0.350 OA
HETATM   25  C   UNL     1       8.433  21.793  56.656  1.00  0.00     0.038 A 
HETATM   26  C   UNL     1       7.761  20.543  53.406  1.00  0.00     0.180 C 
HETATM   27  C   UNL     1       8.394  23.121  57.092  1.00  0.00     0.014 A 
ENDBRANCH  18  19
ENDBRANCH   2  17
TORSDOF 4
ENDMDL
MODEL 3
REMARK VINA RESULT:      -9.4      4.471     10.790
REMARK  4 active torsions:
REMARK  status: ('A' for Active; 'I' for Inactive)
REMARK    1  A    between atoms: C_3  and  N_4 
REMARK       I    between atoms: N_4  and  C_5 
REMARK    2  A    between atoms: C_5  and  C_6 
REMARK    3  A    between atoms: C_7  and  C_8 
REMARK    4  A    between atoms: C_19  and  C_20 
ROOT
HETATM    1  N   UNL     1       7.864  30.871  60.478  1.00  0.00    -0.324 N 
HETATM    2  C   UNL     1       8.544  31.307  59.358  1.00  0.00     0.245 C 
HETATM    3  O   UNL     1       9.058  32.405  59.186  1.00  0.00    -0.268 OA
HETATM    4  H   UNL     1       7.535  29.916  60.480  1.00  0.00     0.169 HD
ENDROOT
BRANCH   1   5
HETATM    5  C   UNL     1       7.556  31.622  61.636  1.00  0.00     0.035 A 
HETATM    6  C   UNL     1       8.500  31.999  62.591  1.00  0.00     0.029 A 
HETATM    7  C   UNL     1       8.123  32.765  63.696  1.00  0.00     0.003 A 
HETATM    8  C   UNL     1       6.795  33.159  63.858  1.00  0.00     0.012 A 
HETATM    9  C   UNL     1       5.829  32.789  62.918  1.00  0.00    -0.021 A 
HETATM   10  C   UNL     1       6.222  32.022  61.808  1.00  0.00     0.042 A 
BRANCH   9  11
HETATM   11  C   UNL     1       4.449  33.207  63.094  1.00  0.00     0.010 A 
HETATM   12  C   UNL     1       3.817  33.878  64.168  1.00  0.00     0.152 A 
HETATM   13  N   UNL     1       2.510  34.070  63.962  1.00  0.00    -0.187 NA
HETATM   14  N   UNL     1       2.298  33.512  62.760  1.00  0.00    -0.289 N 
HETATM   15  H   UNL     1       1.355  33.525  62.386  1.00  0.00     0.188 HD
HETATM   16  C   UNL     1       3.424  32.985  62.197  1.00  0.00     0.123 A 
ENDBRANCH   9  11
ENDBRANCH   1   5
BRANCH   2  17
HETATM   17  C   UNL     1       8.599  30.260  58.297  1.00  0.00     0.075 C 
HETATM   18  C   UNL     1       7.671  29.290  58.277  1.00  0.00     0.017 C 
BRANCH  18  19
HETATM   19  C   UNL     1       7.635  28.185  57.309  1.00  0.00    -0.035 A 
HETATM   20  C   UNL     1       7.472  28.493  55.949  1.00  0.00     0.021 A 
HETATM   21  C   UNL     1       7.368  27.455  55.037  1.00  0.00    -0.022 A 
HETATM   22  C   UNL     1       7.431  26.135  55.452  1.00  0.00     0.075 A 
HETATM   23  C   UNL     1       7.247  27.496  53.563  1.00  0.00     0.068 C 
HETATM   24  O   UNL     1       7.317  25.232  54.429  1.00  0.00    -0.350 OA
HETATM   25  C   UNL     1       7.596  25.796  56.777  1.00  0.00     0.038 A 
HETATM   26  C   UNL     1       6.861  26.037  53.316  1.00  0.00     0.180 C 
HETATM   27  C   UNL     1       7.686  26.832  57.712  1.00  0.00     0.014 A 
ENDBRANCH  18  19
ENDBRANCH   2  17
TORSDOF 4
ENDMDL
MODEL 4
REMARK VINA RESULT:      -9.4      3.748      6.560
REMARK  4 active torsions:
REMARK  status: ('A' for Active; 'I' for Inactive)
REMARK    1  A    between atoms: C_3  and  N_4 
REMARK       I    between atoms: N_4  and  C_5 
REMARK    2  A    between atoms: C_5  and  C_6 
REMARK    3  A    between atoms: C_7  and  C_8 
REMARK    4  A    between atoms: C_19  and  C_20 
ROOT
HETATM    1  N   UNL     1       7.632  30.958  59.908  1.00  0.00    -0.324 N 
HETATM    2  C   UNL     1       6.765  32.021  59.754  1.00  0.00     0.245 C 
HETATM    3  O   UNL     1       6.471  32.590  58.711  1.00  0.00    -0.268 OA
HETATM    4  H   UNL     1       7.734  30.571  60.836  1.00  0.00     0.169 HD
ENDROOT
BRANCH   1   5
HETATM    5  C   UNL     1       8.416  30.344  58.904  1.00  0.00     0.035 A 
HETATM    6  C   UNL     1       9.657  30.824  58.485  1.00  0.00     0.029 A 
HETATM    7  C   UNL     1      10.385  30.146  57.505  1.00  0.00     0.003 A 
HETATM    8  C   UNL     1       9.877  28.981  56.932  1.00  0.00     0.012 A 
HETATM    9  C   UNL     1       8.633  28.483  57.331  1.00  0.00    -0.021 A 
HETATM   10  C   UNL     1       7.912  29.171  58.320  1.00  0.00     0.042 A 
BRANCH   9  11
HETATM   11  C   UNL     1       8.114  27.266  56.730  1.00  0.00     0.010 A 
HETATM   12  C   UNL     1       7.369  27.066  55.543  1.00  0.00     0.152 A 
HETATM   13  N   UNL     1       7.056  25.783  55.337  1.00  0.00    -0.187 NA
HETATM   14  N   UNL     1       7.590  25.157  56.398  1.00  0.00    -0.289 N 
HETATM   15  H   UNL     1       7.470  24.152  56.471  1.00  0.00     0.188 HD
HETATM   16  C   UNL     1       8.235  25.997  57.259  1.00  0.00     0.123 A 
ENDBRANCH   9  11
ENDBRANCH   1   5
BRANCH   2  17
HETATM   17  C   UNL     1       6.180  32.456  61.056  1.00  0.00     0.075 C 
HETATM   18  C   UNL     1       6.996  32.830  62.055  1.00  0.00     0.017 C 
BRANCH  18  19
HETATM   19  C   UNL     1       6.549  33.244  63.392  1.00  0.00    -0.035 A 
HETATM   20  C   UNL     1       5.214  33.651  63.553  1.00  0.00     0.021 A 
HETATM   21  C   UNL     1       4.801  34.108  64.794  1.00  0.00    -0.022 A 
HETATM   22  C   UNL     1       5.681  34.160  65.862  1.00  0.00     0.075 A 
HETATM   23  C   UNL     1       3.461  34.539  65.248  1.00  0.00     0.068 C 
HETATM   24  O   UNL     1       5.116  34.630  67.017  1.00  0.00    -0.350 OA
HETATM   25  C   UNL     1       6.996  33.764  65.741  1.00  0.00     0.038 A 
HETATM   26  C   UNL     1       3.857  35.189  66.574  1.00  0.00     0.180 C 
HETATM   27  C   UNL     1       7.432  33.315  64.491  1.00  0.00     0.014 A 
ENDBRANCH  18  19
ENDBRANCH   2  17
TORSDOF 4
ENDMDL
MODEL 5
REMARK VINA RESULT:      -9.3      6.240      9.999
REMARK  4 active torsions:
REMARK  status: ('A' for Active; 'I' for Inactive)
REMARK    1  A    between atoms: C_3  and  N_4 
REMARK       I    between atoms: N_4  and  C_5 
REMARK    2  A    between atoms: C_5  and  C_6 
REMARK    3  A    between atoms: C_7  and  C_8 
REMARK    4  A    between atoms: C_19  and  C_20 
ROOT
HETATM    1  N   UNL     1       5.293  26.565  50.024  1.00  0.00    -0.324 N 
HETATM    2  C   UNL     1       5.292  26.556  51.405  1.00  0.00     0.245 C 
HETATM    3  O   UNL     1       4.835  27.414  52.149  1.00  0.00    -0.268 OA
HETATM    4  H   UNL     1       5.673  25.756  49.553  1.00  0.00     0.169 HD
ENDROOT
BRANCH   1   5
HETATM    5  C   UNL     1       4.829  27.598  49.177  1.00  0.00     0.035 A 
HETATM    6  C   UNL     1       5.589  28.713  48.822  1.00  0.00     0.029 A 
HETATM    7  C   UNL     1       5.069  29.678  47.957  1.00  0.00     0.003 A 
HETATM    8  C   UNL     1       3.781  29.540  47.441  1.00  0.00     0.012 A 
HETATM    9  C   UNL     1       2.997  28.436  47.788  1.00  0.00    -0.021 A 
HETATM   10  C   UNL     1       3.532  27.469  48.654  1.00  0.00     0.042 A 
BRANCH   9  11
HETATM   11  C   UNL     1       1.657  28.299  47.242  1.00  0.00     0.010 A 
HETATM   12  C   UNL     1       0.815  27.168  47.132  1.00  0.00     0.152 A 
HETATM   13  N   UNL     1      -0.352  27.445  46.544  1.00  0.00    -0.187 NA
HETATM   14  N   UNL     1      -0.259  28.755  46.266  1.00  0.00    -0.289 N 
HETATM   15  H   UNL     1      -1.040  29.202  45.797  1.00  0.00     0.188 HD
HETATM   16  C   UNL     1       0.921  29.314  46.665  1.00  0.00     0.123 A 
ENDBRANCH   9  11
ENDBRANCH   1   5
BRANCH   2  17
HETATM   17  C   UNL     1       5.945  25.333  51.954  1.00  0.00     0.075 C 
HETATM   18  C   UNL     1       6.732  25.435  53.038  1.00  0.00     0.017 C 
BRANCH  18  19
HETATM   19  C   UNL     1       7.458  24.315  53.654  1.00  0.00    -0.035 A 
HETATM   20  C   UNL     1       7.521  23.097  52.959  1.00  0.00     0.021 A 
HETATM   21  C   UNL     1       8.144  22.016  53.562  1.00  0.00    -0.022 A 
HETATM   22  C   UNL     1       8.702  22.130  54.824  1.00  0.00     0.075 A 
HETATM   23  C   UNL     1       8.396  20.655  53.040  1.00  0.00     0.068 C 
HETATM   24  O   UNL     1       9.283  20.975  55.275  1.00  0.00    -0.350 OA
HETATM   25  C   UNL     1       8.665  23.312  55.532  1.00  0.00     0.038 A 
HETATM   26  C   UNL     1       8.805  19.972  54.346  1.00  0.00     0.180 C 
HETATM   27  C   UNL     1       8.025  24.408  54.944  1.00  0.00     0.014 A 
ENDBRANCH  18  19
ENDBRANCH   2  17
TORSDOF 4
ENDMDL
MODEL 6
REMARK VINA RESULT:      -9.3      3.248      9.512
REMARK  4 active torsions:
REMARK  status: ('A' for Active; 'I' for Inactive)
REMARK    1  A    between atoms: C_3  and  N_4 
REMARK       I    between atoms: N_4  and  C_5 
REMARK    2  A    between atoms: C_5  and  C_6 
REMARK    3  A    between atoms: C_7  and  C_8 
REMARK    4  A    between atoms: C_19  and  C_20 
ROOT
HETATM    1  N   UNL     1       6.387  27.706  55.747  1.00  0.00    -0.324 N 
HETATM    2  C   UNL     1       6.314  27.584  54.373  1.00  0.00     0.245 C 
HETATM    3  O   UNL     1       6.005  28.454  53.570  1.00  0.00    -0.268 OA
HETATM    4  H   UNL     1       6.702  26.900  56.269  1.00  0.00     0.169 HD
ENDROOT
BRANCH   1   5
HETATM    5  C   UNL     1       6.054  28.840  56.522  1.00  0.00     0.035 A 
HETATM    6  C   UNL     1       4.759  29.342  56.649  1.00  0.00     0.029 A 
HETATM    7  C   UNL     1       4.505  30.453  57.455  1.00  0.00     0.003 A 
HETATM    8  C   UNL     1       5.546  31.076  58.141  1.00  0.00     0.012 A 
HETATM    9  C   UNL     1       6.855  30.597  58.025  1.00  0.00    -0.021 A 
HETATM   10  C   UNL     1       7.097  29.476  57.214  1.00  0.00     0.042 A 
BRANCH   9  11
HETATM   11  C   UNL     1       7.933  31.251  58.747  1.00  0.00     0.010 A 
HETATM   12  C   UNL     1       7.900  32.178  59.815  1.00  0.00     0.152 A 
HETATM   13  N   UNL     1       9.118  32.571  60.199  1.00  0.00    -0.187 NA
HETATM   14  N   UNL     1       9.937  31.904  59.370  1.00  0.00    -0.289 N 
HETATM   15  H   UNL     1      10.937  32.051  59.464  1.00  0.00     0.188 HD
HETATM   16  C   UNL     1       9.279  31.100  58.485  1.00  0.00     0.123 A 
ENDBRANCH   9  11
ENDBRANCH   1   5
BRANCH   2  17
HETATM   17  C   UNL     1       6.660  26.206  53.917  1.00  0.00     0.075 C 
HETATM   18  C   UNL     1       6.864  25.240  54.828  1.00  0.00     0.017 C 
BRANCH  18  19
HETATM   19  C   UNL     1       7.242  23.856  54.511  1.00  0.00    -0.035 A 
HETATM   20  C   UNL     1       7.437  22.957  55.571  1.00  0.00     0.021 A 
HETATM   21  C   UNL     1       7.861  21.669  55.285  1.00  0.00    -0.022 A 
HETATM   22  C   UNL     1       8.084  21.267  53.979  1.00  0.00     0.075 A 
HETATM   23  C   UNL     1       8.088  20.522  56.191  1.00  0.00     0.068 C 
HETATM   24  O   UNL     1       8.494  19.965  53.866  1.00  0.00    -0.350 OA
HETATM   25  C   UNL     1       7.897  22.121  52.913  1.00  0.00     0.038 A 
HETATM   26  C   UNL     1       8.832  19.600  55.226  1.00  0.00     0.180 C 
HETATM   27  C   UNL     1       7.485  23.429  53.186  1.00  0.00     0.014 A 
ENDBRANCH  18  19
ENDBRANCH   2  17
TORSDOF 4
ENDMDL
MODEL 7
REMARK VINA RESULT:      -9.1      4.908      8.928
REMARK  4 active torsions:
REMARK  status: ('A' for Active; 'I' for Inactive)
REMARK    1  A    between atoms: C_3  and  N_4 
REMARK       I    between atoms: N_4  and  C_5 
REMARK    2  A    between atoms: C_5  and  C_6 
REMARK    3  A    between atoms: C_7  and  C_8 
REMARK    4  A    between atoms: C_19  and  C_20 
ROOT
HETATM    1  N   UNL     1       5.628  25.458  53.123  1.00  0.00    -0.324 N 
HETATM    2  C   UNL     1       5.900  26.678  52.535  1.00  0.00     0.245 C 
HETATM    3  O   UNL     1       6.828  27.433  52.795  1.00  0.00    -0.268 OA
HETATM    4  H   UNL     1       4.843  24.933  52.762  1.00  0.00     0.169 HD
ENDROOT
BRANCH   1   5
HETATM    5  C   UNL     1       6.321  24.855  54.196  1.00  0.00     0.035 A 
HETATM    6  C   UNL     1       6.440  25.425  55.464  1.00  0.00     0.029 A 
HETATM    7  C   UNL     1       7.119  24.754  56.482  1.00  0.00     0.003 A 
HETATM    8  C   UNL     1       7.690  23.504  56.242  1.00  0.00     0.012 A 
HETATM    9  C   UNL     1       7.591  22.914  54.978  1.00  0.00    -0.021 A 
HETATM   10  C   UNL     1       6.901  23.598  53.963  1.00  0.00     0.042 A 
BRANCH   9  11
HETATM   11  C   UNL     1       8.186  21.611  54.739  1.00  0.00     0.010 A 
HETATM   12  C   UNL     1       8.295  20.848  53.552  1.00  0.00     0.152 A 
HETATM   13  N   UNL     1       8.900  19.673  53.744  1.00  0.00    -0.187 NA
HETATM   14  N   UNL     1       9.173  19.673  55.058  1.00  0.00    -0.289 N 
HETATM   15  H   UNL     1       9.634  18.859  55.451  1.00  0.00     0.188 HD
HETATM   16  C   UNL     1       8.769  20.808  55.698  1.00  0.00     0.123 A 
ENDBRANCH   9  11
ENDBRANCH   1   5
BRANCH   2  17
HETATM   17  C   UNL     1       4.897  27.028  51.488  1.00  0.00     0.075 C 
HETATM   18  C   UNL     1       4.844  26.307  50.356  1.00  0.00     0.017 C 
BRANCH  18  19
HETATM   19  C   UNL     1       3.929  26.570  49.237  1.00  0.00    -0.035 A 
HETATM   20  C   UNL     1       3.232  27.789  49.217  1.00  0.00     0.021 A 
HETATM   21  C   UNL     1       2.316  28.017  48.203  1.00  0.00    -0.022 A 
HETATM   22  C   UNL     1       2.092  27.068  47.220  1.00  0.00     0.075 A 
HETATM   23  C   UNL     1       1.499  29.217  47.915  1.00  0.00     0.068 C 
HETATM   24  O   UNL     1       1.162  27.449  46.289  1.00  0.00    -0.350 OA
HETATM   25  C   UNL     1       2.762  25.864  47.205  1.00  0.00     0.038 A 
HETATM   26  C   UNL     1       0.540  28.610  46.890  1.00  0.00     0.180 C 
HETATM   27  C   UNL     1       3.678  25.612  48.231  1.00  0.00     0.014 A 
ENDBRANCH  18  19
ENDBRANCH   2  17
TORSDOF 4
ENDMDL
MODEL 8
REMARK VINA RESULT:      -8.5      6.647      9.959
REMARK  4 active torsions:
REMARK  status: ('A' for Active; 'I' for Inactive)
REMARK    1  A    between atoms: C_3  and  N_4 
REMARK       I    between atoms: N_4  and  C_5 
REMARK    2  A    between atoms: C_5  and  C_6 
REMARK    3  A    between atoms: C_7  and  C_8 
REMARK    4  A    between atoms: C_19  and  C_20 
ROOT
HETATM    1  N   UNL     1       4.817  26.027  50.539  1.00  0.00    -0.324 N 
HETATM    2  C   UNL     1       5.643  26.107  51.643  1.00  0.00     0.245 C 
HETATM    3  O   UNL     1       6.141  27.118  52.121  1.00  0.00    -0.268 OA
HETATM    4  H   UNL     1       4.452  25.116  50.297  1.00  0.00     0.169 HD
ENDROOT
BRANCH   1   5
HETATM    5  C   UNL     1       4.427  27.085  49.687  1.00  0.00     0.035 A 
HETATM    6  C   UNL     1       4.737  27.143  48.328  1.00  0.00     0.029 A 
HETATM    7  C   UNL     1       4.292  28.210  47.545  1.00  0.00     0.003 A 
HETATM    8  C   UNL     1       3.534  29.232  48.114  1.00  0.00     0.012 A 
HETATM    9  C   UNL     1       3.215  29.200  49.475  1.00  0.00    -0.021 A 
HETATM   10  C   UNL     1       3.664  28.119  50.252  1.00  0.00     0.042 A 
BRANCH   9  11
HETATM   11  C   UNL     1       2.421  30.268  50.058  1.00  0.00     0.010 A 
HETATM   12  C   UNL     1       2.806  31.389  50.831  1.00  0.00     0.152 A 
HETATM   13  N   UNL     1       1.768  32.143  51.205  1.00  0.00    -0.187 NA
HETATM   14  N   UNL     1       0.711  31.501  50.682  1.00  0.00    -0.289 N 
HETATM   15  H   UNL     1      -0.213  31.887  50.845  1.00  0.00     0.188 HD
HETATM   16  C   UNL     1       1.047  30.376  49.985  1.00  0.00     0.123 A 
ENDBRANCH   9  11
ENDBRANCH   1   5
BRANCH   2  17
HETATM   17  C   UNL     1       5.903  24.767  52.243  1.00  0.00     0.075 C 
HETATM   18  C   UNL     1       7.077  24.532  52.853  1.00  0.00     0.017 C 
BRANCH  18  19
HETATM   19  C   UNL     1       7.468  23.249  53.451  1.00  0.00    -0.035 A 
HETATM   20  C   UNL     1       7.626  23.181  54.845  1.00  0.00     0.021 A 
HETATM   21  C   UNL     1       8.061  21.994  55.411  1.00  0.00    -0.022 A 
HETATM   22  C   UNL     1       8.330  20.887  54.624  1.00  0.00     0.075 A 
HETATM   23  C   UNL     1       8.256  21.637  56.834  1.00  0.00     0.068 C 
HETATM   24  O   UNL     1       8.745  19.793  55.336  1.00  0.00    -0.350 OA
HETATM   25  C   UNL     1       8.180  20.915  53.254  1.00  0.00     0.038 A 
HETATM   26  C   UNL     1       9.036  20.335  56.647  1.00  0.00     0.180 C 
HETATM   27  C   UNL     1       7.757  22.111  52.666  1.00  0.00     0.014 A 
ENDBRANCH  18  19
ENDBRANCH   2  17
TORSDOF 4
ENDMDL
MODEL 9
REMARK VINA RESULT:      -8.5      3.220      5.363
REMARK  4 active torsions:
REMARK  status: ('A' for Active; 'I' for Inactive)
REMARK    1  A    between atoms: C_3  and  N_4 
REMARK       I    between atoms: N_4  and  C_5 
REMARK    2  A    between atoms: C_5  and  C_6 
REMARK    3  A    between atoms: C_7  and  C_8 
REMARK    4  A    between atoms: C_19  and  C_20 
ROOT
HETATM    1  N   UNL     1       7.172  29.861  59.034  1.00  0.00    -0.324 N 
HETATM    2  C   UNL     1       7.889  30.993  59.368  1.00  0.00     0.245 C 
HETATM    3  O   UNL     1       8.587  31.671  58.625  1.00  0.00    -0.268 OA
HETATM    4  H   UNL     1       6.607  29.439  59.758  1.00  0.00     0.169 HD
ENDROOT
BRANCH   1   5
HETATM    5  C   UNL     1       7.148  29.205  57.783  1.00  0.00     0.035 A 
HETATM    6  C   UNL     1       6.821  29.833  56.581  1.00  0.00     0.029 A 
HETATM    7  C   UNL     1       6.846  29.123  55.380  1.00  0.00     0.003 A 
HETATM    8  C   UNL     1       7.194  27.773  55.368  1.00  0.00     0.012 A 
HETATM    9  C   UNL     1       7.519  27.118  56.560  1.00  0.00    -0.021 A 
HETATM   10  C   UNL     1       7.495  27.845  57.762  1.00  0.00     0.042 A 
BRANCH   9  11
HETATM   11  C   UNL     1       7.885  25.711  56.537  1.00  0.00     0.010 A 
HETATM   12  C   UNL     1       8.551  24.914  57.498  1.00  0.00     0.152 A 
HETATM   13  N   UNL     1       8.723  23.652  57.094  1.00  0.00    -0.187 NA
HETATM   14  N   UNL     1       8.176  23.638  55.869  1.00  0.00    -0.289 N 
HETATM   15  H   UNL     1       8.196  22.769  55.346  1.00  0.00     0.188 HD
HETATM   16  C   UNL     1       7.658  24.843  55.490  1.00  0.00     0.123 A 
ENDBRANCH   9  11
ENDBRANCH   1   5
BRANCH   2  17
HETATM   17  C   UNL     1       7.738  31.344  60.810  1.00  0.00     0.075 C 
HETATM   18  C   UNL     1       6.888  32.321  61.167  1.00  0.00     0.017 C 
BRANCH  18  19
HETATM   19  C   UNL     1       6.674  32.783  62.545  1.00  0.00    -0.035 A 
HETATM   20  C   UNL     1       5.398  33.248  62.904  1.00  0.00     0.021 A 
HETATM   21  C   UNL     1       5.206  33.750  64.181  1.00  0.00    -0.022 A 
HETATM   22  C   UNL     1       6.246  33.789  65.094  1.00  0.00     0.075 A 
HETATM   23  C   UNL     1       3.972  34.245  64.828  1.00  0.00     0.068 C 
HETATM   24  O   UNL     1       5.890  34.308  66.311  1.00  0.00    -0.350 OA
HETATM   25  C   UNL     1       7.509  33.336  64.779  1.00  0.00     0.038 A 
HETATM   26  C   UNL     1       4.598  34.908  66.056  1.00  0.00     0.180 C 
HETATM   27  C   UNL     1       7.724  32.841  63.488  1.00  0.00     0.014 A 
ENDBRANCH  18  19
ENDBRANCH   2  17
TORSDOF 4
ENDMDL
MODEL 10
REMARK VINA RESULT:      -8.3      1.363      2.069
REMARK  4 active torsions:
REMARK  status: ('A' for Active; 'I' for Inactive)
REMARK    1  A    between atoms: C_3  and  N_4 
REMARK       I    between atoms: N_4  and  C_5 
REMARK    2  A    between atoms: C_5  and  C_6 
REMARK    3  A    between atoms: C_7  and  C_8 
REMARK    4  A    between atoms: C_19  and  C_20 
ROOT
HETATM    1  N   UNL     1       6.658  26.679  56.219  1.00  0.00    -0.324 N 
HETATM    2  C   UNL     1       7.449  27.809  56.279  1.00  0.00     0.245 C 
HETATM    3  O   UNL     1       8.199  28.233  55.410  1.00  0.00    -0.268 OA
HETATM    4  H   UNL     1       6.057  26.489  57.009  1.00  0.00     0.169 HD
ENDROOT
BRANCH   1   5
HETATM    5  C   UNL     1       6.599  25.734  55.169  1.00  0.00     0.035 A 
HETATM    6  C   UNL     1       6.009  25.983  53.930  1.00  0.00     0.029 A 
HETATM    7  C   UNL     1       6.014  25.006  52.933  1.00  0.00     0.003 A 
HETATM    8  C   UNL     1       6.608  23.766  53.167  1.00  0.00     0.012 A 
HETATM    9  C   UNL     1       7.200  23.489  54.403  1.00  0.00    -0.021 A 
HETATM   10  C   UNL     1       7.192  24.482  55.397  1.00  0.00     0.042 A 
BRANCH   9  11
HETATM   11  C   UNL     1       7.819  22.195  54.636  1.00  0.00     0.010 A 
HETATM   12  C   UNL     1       8.369  21.632  55.811  1.00  0.00     0.152 A 
HETATM   13  N   UNL     1       8.870  20.409  55.615  1.00  0.00    -0.187 NA
HETATM   14  N   UNL     1       8.652  20.188  54.310  1.00  0.00    -0.289 N 
HETATM   15  H   UNL     1       8.964  19.306  53.915  1.00  0.00     0.188 HD
HETATM   16  C   UNL     1       8.025  21.223  53.679  1.00  0.00     0.123 A 
ENDBRANCH   9  11
ENDBRANCH   1   5
BRANCH   2  17
HETATM   17  C   UNL     1       7.309  28.519  57.584  1.00  0.00     0.075 C 
HETATM   18  C   UNL     1       7.571  29.834  57.652  1.00  0.00     0.017 C 
BRANCH  18  19
HETATM   19  C   UNL     1       7.505  30.638  58.880  1.00  0.00    -0.035 A 
HETATM   20  C   UNL     1       6.511  31.626  58.980  1.00  0.00     0.021 A 
HETATM   21  C   UNL     1       6.485  32.434  60.104  1.00  0.00    -0.022 A 
HETATM   22  C   UNL     1       7.413  32.274  61.119  1.00  0.00     0.075 A 
HETATM   23  C   UNL     1       5.529  33.498  60.484  1.00  0.00     0.068 C 
HETATM   24  O   UNL     1       7.247  33.147  62.160  1.00  0.00    -0.350 OA
HETATM   25  C   UNL     1       8.398  31.312  61.057  1.00  0.00     0.038 A 
HETATM   26  C   UNL     1       6.317  34.125  61.635  1.00  0.00     0.180 C 
HETATM   27  C   UNL     1       8.449  30.498  59.921  1.00  0.00     0.014 A 
ENDBRANCH  18  19
ENDBRANCH   2  17
TORSDOF 4
ENDMDL
