MODEL 1
REMARK VINA RESULT:      -8.8      0.000      0.000
REMARK  5 active torsions:
REMARK  status: ('A' for Active; 'I' for Inactive)
REMARK    1  A    between atoms: C_4  and  S_5 
REMARK    2  A    between atoms: S_5  and  C_6 
REMARK    3  A    between atoms: C_6  and  C_7 
REMARK       I    between atoms: C_7  and  N_8 
REMARK    4  A    between atoms: N_8  and  C_9 
REMARK    5  A    between atoms: C_11  and  C_12 
ROOT
HETATM    1  C   UNL     1       7.539  25.465  54.486  1.00  0.00     0.035 A 
HETATM    2  C   UNL     1       7.901  24.153  54.809  1.00  0.00     0.042 A 
HETATM    3  C   UNL     1       8.127  23.189  53.810  1.00  0.00    -0.021 A 
HETATM    4  C   UNL     1       7.990  23.568  52.470  1.00  0.00     0.012 A 
HETATM    5  C   UNL     1       7.640  24.876  52.134  1.00  0.00     0.003 A 
HETATM    6  C   UNL     1       7.417  25.819  53.139  1.00  0.00     0.029 A 
ENDROOT
BRANCH   1   7
HETATM    7  N   UNL     1       7.289  26.470  55.442  1.00  0.00    -0.327 N 
HETATM    8  C   UNL     1       6.226  26.561  56.321  1.00  0.00     0.231 C 
HETATM    9  O   UNL     1       5.308  25.749  56.423  1.00  0.00    -0.272 OA
HETATM   10  H   UNL     1       7.917  27.267  55.440  1.00  0.00     0.169 HD
BRANCH   8  11
HETATM   11  C   UNL     1       6.283  27.744  57.279  1.00  0.00     0.182 C 
BRANCH  11  12
HETATM   12  S   UNL     1       6.453  29.352  56.430  1.00  0.00    -0.121 SA
BRANCH  12  13
HETATM   13  C   UNL     1       8.149  29.706  56.854  1.00  0.00     0.001 A 
HETATM   14  C   UNL     1       8.449  30.289  58.088  1.00  0.00     0.018 A 
HETATM   15  C   UNL     1       9.773  30.580  58.425  1.00  0.00     0.001 A 
HETATM   16  C   UNL     1      10.803  30.280  57.534  1.00  0.00     0.000 A 
HETATM   17  C   UNL     1      10.511  29.684  56.308  1.00  0.00     0.001 A 
HETATM   18  C   UNL     1       9.188  29.393  55.971  1.00  0.00     0.018 A 
ENDBRANCH  12  13
ENDBRANCH  11  12
ENDBRANCH   8  11
ENDBRANCH   1   7
BRANCH   3  19
HETATM   19  C   UNL     1       8.486  21.827  54.184  1.00  0.00     0.010 A 
HETATM   20  C   UNL     1       8.454  20.624  53.435  1.00  0.00     0.152 A 
HETATM   21  N   UNL     1       8.856  19.561  54.136  1.00  0.00    -0.187 NA
HETATM   22  N   UNL     1       9.141  20.073  55.342  1.00  0.00    -0.289 N 
HETATM   23  H   UNL     1       9.469  19.444  56.066  1.00  0.00     0.188 HD
HETATM   24  C   UNL     1       8.936  21.421  55.424  1.00  0.00     0.123 A 
ENDBRANCH   3  19
TORSDOF 5
ENDMDL
MODEL 2
REMARK VINA RESULT:      -8.6      3.168      8.662
REMARK  5 active torsions:
REMARK  status: ('A' for Active; 'I' for Inactive)
REMARK    1  A    between atoms: C_4  and  S_5 
REMARK    2  A    between atoms: S_5  and  C_6 
REMARK    3  A    between atoms: C_6  and  C_7 
REMARK       I    between atoms: C_7  and  N_8 
REMARK    4  A    between atoms: N_8  and  C_9 
REMARK    5  A    between atoms: C_11  and  C_12 
ROOT
HETATM    1  C   UNL     1       8.556  28.664  57.120  1.00  0.00     0.035 A 
HETATM    2  C   UNL     1       8.179  29.228  58.343  1.00  0.00     0.042 A 
HETATM    3  C   UNL     1       8.922  30.269  58.928  1.00  0.00    -0.021 A 
HETATM    4  C   UNL     1      10.056  30.743  58.257  1.00  0.00     0.012 A 
HETATM    5  C   UNL     1      10.436  30.194  57.031  1.00  0.00     0.003 A 
HETATM    6  C   UNL     1       9.687  29.161  56.466  1.00  0.00     0.029 A 
ENDROOT
BRANCH   1   7
HETATM    7  N   UNL     1       7.857  27.613  56.491  1.00  0.00    -0.327 N 
HETATM    8  C   UNL     1       7.819  26.280  56.856  1.00  0.00     0.231 C 
HETATM    9  O   UNL     1       8.392  25.784  57.825  1.00  0.00    -0.272 OA
HETATM   10  H   UNL     1       7.387  27.836  55.620  1.00  0.00     0.169 HD
BRANCH   8  11
HETATM   11  C   UNL     1       6.911  25.405  56.001  1.00  0.00     0.182 C 
BRANCH  11  12
HETATM   12  S   UNL     1       7.529  25.172  54.299  1.00  0.00    -0.121 SA
BRANCH  12  13
HETATM   13  C   UNL     1       7.690  23.395  54.308  1.00  0.00     0.001 A 
HETATM   14  C   UNL     1       7.920  22.713  53.110  1.00  0.00     0.018 A 
HETATM   15  C   UNL     1       8.038  21.321  53.106  1.00  0.00     0.001 A 
HETATM   16  C   UNL     1       7.936  20.607  54.300  1.00  0.00     0.000 A 
HETATM   17  C   UNL     1       7.723  21.284  55.499  1.00  0.00     0.001 A 
HETATM   18  C   UNL     1       7.606  22.675  55.504  1.00  0.00     0.018 A 
ENDBRANCH  12  13
ENDBRANCH  11  12
ENDBRANCH   8  11
ENDBRANCH   1   7
BRANCH   3  19
HETATM   19  C   UNL     1       8.511  30.822  60.212  1.00  0.00     0.010 A 
HETATM   20  C   UNL     1       9.050  30.642  61.511  1.00  0.00     0.152 A 
HETATM   21  N   UNL     1       8.383  31.318  62.450  1.00  0.00    -0.187 NA
HETATM   22  N   UNL     1       7.409  31.929  61.762  1.00  0.00    -0.289 N 
HETATM   23  H   UNL     1       6.753  32.511  62.272  1.00  0.00     0.188 HD
HETATM   24  C   UNL     1       7.440  31.666  60.422  1.00  0.00     0.123 A 
ENDBRANCH   3  19
TORSDOF 5
ENDMDL
MODEL 3
REMARK VINA RESULT:      -8.2      4.296      7.488
REMARK  5 active torsions:
REMARK  status: ('A' for Active; 'I' for Inactive)
REMARK    1  A    between atoms: C_4  and  S_5 
REMARK    2  A    between atoms: S_5  and  C_6 
REMARK    3  A    between atoms: C_6  and  C_7 
REMARK       I    between atoms: C_7  and  N_8 
REMARK    4  A    between atoms: N_8  and  C_9 
REMARK    5  A    between atoms: C_11  and  C_12 
ROOT
HETATM    1  C   UNL     1       4.544  27.031  53.110  1.00  0.00     0.035 A 
HETATM    2  C   UNL     1       4.882  26.865  51.763  1.00  0.00     0.042 A 
HETATM    3  C   UNL     1       4.474  27.791  50.786  1.00  0.00    -0.021 A 
HETATM    4  C   UNL     1       3.720  28.900  51.187  1.00  0.00     0.012 A 
HETATM    5  C   UNL     1       3.385  29.083  52.530  1.00  0.00     0.003 A 
HETATM    6  C   UNL     1       3.797  28.152  53.485  1.00  0.00     0.029 A 
ENDROOT
BRANCH   1   7
HETATM    7  N   UNL     1       4.914  26.132  54.131  1.00  0.00    -0.327 N 
HETATM    8  C   UNL     1       6.174  25.919  54.659  1.00  0.00     0.231 C 
HETATM    9  O   UNL     1       7.201  26.507  54.325  1.00  0.00    -0.272 OA
HETATM   10  H   UNL     1       4.191  25.507  54.471  1.00  0.00     0.169 HD
BRANCH   8  11
HETATM   11  C   UNL     1       6.229  24.919  55.808  1.00  0.00     0.182 C 
BRANCH  11  12
HETATM   12  S   UNL     1       7.919  24.336  56.175  1.00  0.00    -0.121 SA
BRANCH  12  13
HETATM   13  C   UNL     1       7.932  22.875  55.153  1.00  0.00     0.001 A 
HETATM   14  C   UNL     1       7.850  21.612  55.746  1.00  0.00     0.018 A 
HETATM   15  C   UNL     1       7.870  20.461  54.954  1.00  0.00     0.001 A 
HETATM   16  C   UNL     1       7.962  20.569  53.566  1.00  0.00     0.000 A 
HETATM   17  C   UNL     1       8.027  21.826  52.969  1.00  0.00     0.001 A 
HETATM   18  C   UNL     1       8.008  22.977  53.760  1.00  0.00     0.018 A 
ENDBRANCH  12  13
ENDBRANCH  11  12
ENDBRANCH   8  11
ENDBRANCH   1   7
BRANCH   3  19
HETATM   19  C   UNL     1       4.829  27.577  49.389  1.00  0.00     0.010 A 
HETATM   20  C   UNL     1       4.517  26.510  48.510  1.00  0.00     0.152 A 
HETATM   21  N   UNL     1       5.037  26.669  47.290  1.00  0.00    -0.187 NA
HETATM   22  N   UNL     1       5.693  27.835  47.381  1.00  0.00    -0.289 N 
HETATM   23  H   UNL     1       6.186  28.175  46.563  1.00  0.00     0.188 HD
HETATM   24  C   UNL     1       5.600  28.418  48.613  1.00  0.00     0.123 A 
ENDBRANCH   3  19
TORSDOF 5
ENDMDL
MODEL 4
REMARK VINA RESULT:      -8.1      1.601      2.291
REMARK  5 active torsions:
REMARK  status: ('A' for Active; 'I' for Inactive)
REMARK    1  A    between atoms: C_4  and  S_5 
REMARK    2  A    between atoms: S_5  and  C_6 
REMARK    3  A    between atoms: C_6  and  C_7 
REMARK       I    between atoms: C_7  and  N_8 
REMARK    4  A    between atoms: N_8  and  C_9 
REMARK    5  A    between atoms: C_11  and  C_12 
ROOT
HETATM    1  C   UNL     1       7.649  25.629  54.683  1.00  0.00     0.035 A 
HETATM    2  C   UNL     1       7.866  24.325  55.139  1.00  0.00     0.042 A 
HETATM    3  C   UNL     1       8.009  23.250  54.244  1.00  0.00    -0.021 A 
HETATM    4  C   UNL     1       7.937  23.508  52.870  1.00  0.00     0.012 A 
HETATM    5  C   UNL     1       7.731  24.806  52.402  1.00  0.00     0.003 A 
HETATM    6  C   UNL     1       7.589  25.861  53.305  1.00  0.00     0.029 A 
ENDROOT
BRANCH   1   7
HETATM    7  N   UNL     1       7.487  26.743  55.532  1.00  0.00    -0.327 N 
HETATM    8  C   UNL     1       7.925  26.889  56.834  1.00  0.00     0.231 C 
HETATM    9  O   UNL     1       8.558  26.053  57.477  1.00  0.00    -0.272 OA
HETATM   10  H   UNL     1       6.914  27.504  55.180  1.00  0.00     0.169 HD
BRANCH   8  11
HETATM   11  C   UNL     1       7.646  28.252  57.457  1.00  0.00     0.182 C 
BRANCH  11  12
HETATM   12  S   UNL     1       8.972  29.469  57.151  1.00  0.00    -0.121 SA
BRANCH  12  13
HETATM   13  C   UNL     1       8.583  30.629  58.448  1.00  0.00     0.001 A 
HETATM   14  C   UNL     1       7.248  30.929  58.734  1.00  0.00     0.018 A 
HETATM   15  C   UNL     1       6.934  31.845  59.741  1.00  0.00     0.001 A 
HETATM   16  C   UNL     1       7.952  32.456  60.473  1.00  0.00     0.000 A 
HETATM   17  C   UNL     1       9.284  32.147  60.203  1.00  0.00     0.001 A 
HETATM   18  C   UNL     1       9.599  31.233  59.196  1.00  0.00     0.018 A 
ENDBRANCH  12  13
ENDBRANCH  11  12
ENDBRANCH   8  11
ENDBRANCH   1   7
BRANCH   3  19
HETATM   19  C   UNL     1       8.217  21.901  54.756  1.00  0.00     0.010 A 
HETATM   20  C   UNL     1       7.973  21.353  56.040  1.00  0.00     0.152 A 
HETATM   21  N   UNL     1       8.304  20.062  56.127  1.00  0.00    -0.187 NA
HETATM   22  N   UNL     1       8.770  19.776  54.903  1.00  0.00    -0.289 N 
HETATM   23  H   UNL     1       9.095  18.833  54.721  1.00  0.00     0.188 HD
HETATM   24  C   UNL     1       8.739  20.839  54.046  1.00  0.00     0.123 A 
ENDBRANCH   3  19
TORSDOF 5
ENDMDL
MODEL 5
REMARK VINA RESULT:      -8.1      6.081     11.110
REMARK  5 active torsions:
REMARK  status: ('A' for Active; 'I' for Inactive)
REMARK    1  A    between atoms: C_4  and  S_5 
REMARK    2  A    between atoms: S_5  and  C_6 
REMARK    3  A    between atoms: C_6  and  C_7 
REMARK       I    between atoms: C_7  and  N_8 
REMARK    4  A    between atoms: N_8  and  C_9 
REMARK    5  A    between atoms: C_11  and  C_12 
ROOT
HETATM    1  C   UNL     1       7.247  31.675  61.858  1.00  0.00     0.035 A 
HETATM    2  C   UNL     1       5.965  32.151  62.150  1.00  0.00     0.042 A 
HETATM    3  C   UNL     1       5.730  32.992  63.252  1.00  0.00    -0.021 A 
HETATM    4  C   UNL     1       6.814  33.357  64.060  1.00  0.00     0.012 A 
HETATM    5  C   UNL     1       8.100  32.897  63.772  1.00  0.00     0.003 A 
HETATM    6  C   UNL     1       8.314  32.061  62.676  1.00  0.00     0.029 A 
ENDROOT
BRANCH   1   7
HETATM    7  N   UNL     1       7.542  30.821  60.775  1.00  0.00    -0.327 N 
HETATM    8  C   UNL     1       7.605  31.143  59.432  1.00  0.00     0.231 C 
HETATM    9  O   UNL     1       7.423  32.261  58.953  1.00  0.00    -0.272 OA
HETATM   10  H   UNL     1       7.646  29.834  60.989  1.00  0.00     0.169 HD
BRANCH   8  11
HETATM   11  C   UNL     1       8.017  29.998  58.515  1.00  0.00     0.182 C 
BRANCH  11  12
HETATM   12  S   UNL     1       6.934  29.817  57.057  1.00  0.00    -0.121 SA
BRANCH  12  13
HETATM   13  C   UNL     1       6.679  28.053  57.123  1.00  0.00     0.001 A 
HETATM   14  C   UNL     1       7.725  27.215  57.522  1.00  0.00     0.018 A 
HETATM   15  C   UNL     1       7.538  25.831  57.568  1.00  0.00     0.001 A 
HETATM   16  C   UNL     1       6.303  25.281  57.224  1.00  0.00     0.000 A 
HETATM   17  C   UNL     1       5.253  26.113  56.842  1.00  0.00     0.001 A 
HETATM   18  C   UNL     1       5.439  27.496  56.796  1.00  0.00     0.018 A 
ENDBRANCH  12  13
ENDBRANCH  11  12
ENDBRANCH   8  11
ENDBRANCH   1   7
BRANCH   3  19
HETATM   19  C   UNL     1       4.378  33.455  63.537  1.00  0.00     0.010 A 
HETATM   20  C   UNL     1       3.195  33.386  62.759  1.00  0.00     0.152 A 
HETATM   21  N   UNL     1       2.139  33.934  63.365  1.00  0.00    -0.187 NA
HETATM   22  N   UNL     1       2.639  34.365  64.532  1.00  0.00    -0.289 N 
HETATM   23  H   UNL     1       2.014  34.833  65.179  1.00  0.00     0.188 HD
HETATM   24  C   UNL     1       3.971  34.104  64.684  1.00  0.00     0.123 A 
ENDBRANCH   3  19
TORSDOF 5
ENDMDL
MODEL 6
REMARK VINA RESULT:      -7.9      3.172      5.705
REMARK  5 active torsions:
REMARK  status: ('A' for Active; 'I' for Inactive)
REMARK    1  A    between atoms: C_4  and  S_5 
REMARK    2  A    between atoms: S_5  and  C_6 
REMARK    3  A    between atoms: C_6  and  C_7 
REMARK       I    between atoms: C_7  and  N_8 
REMARK    4  A    between atoms: N_8  and  C_9 
REMARK    5  A    between atoms: C_11  and  C_12 
ROOT
HETATM    1  C   UNL     1       7.057  25.291  55.033  1.00  0.00     0.035 A 
HETATM    2  C   UNL     1       7.348  23.982  54.633  1.00  0.00     0.042 A 
HETATM    3  C   UNL     1       8.132  23.131  55.431  1.00  0.00    -0.021 A 
HETATM    4  C   UNL     1       8.619  23.615  56.651  1.00  0.00     0.012 A 
HETATM    5  C   UNL     1       8.327  24.915  57.065  1.00  0.00     0.003 A 
HETATM    6  C   UNL     1       7.548  25.747  56.259  1.00  0.00     0.029 A 
ENDROOT
BRANCH   1   7
HETATM    7  N   UNL     1       6.286  26.193  54.271  1.00  0.00    -0.327 N 
HETATM    8  C   UNL     1       5.170  25.919  53.502  1.00  0.00     0.231 C 
HETATM    9  O   UNL     1       4.647  24.814  53.365  1.00  0.00    -0.272 OA
HETATM   10  H   UNL     1       6.628  27.147  54.212  1.00  0.00     0.169 HD
BRANCH   8  11
HETATM   11  C   UNL     1       4.522  27.135  52.852  1.00  0.00     0.182 C 
BRANCH  11  12
HETATM   12  S   UNL     1       5.720  28.226  52.011  1.00  0.00    -0.121 SA
BRANCH  12  13
HETATM   13  C   UNL     1       5.303  27.837  50.321  1.00  0.00     0.001 A 
HETATM   14  C   UNL     1       5.534  28.779  49.314  1.00  0.00     0.018 A 
HETATM   15  C   UNL     1       5.202  28.487  47.989  1.00  0.00     0.001 A 
HETATM   16  C   UNL     1       4.647  27.249  47.664  1.00  0.00     0.000 A 
HETATM   17  C   UNL     1       4.430  26.301  48.662  1.00  0.00     0.001 A 
HETATM   18  C   UNL     1       4.762  26.592  49.986  1.00  0.00     0.018 A 
ENDBRANCH  12  13
ENDBRANCH  11  12
ENDBRANCH   8  11
ENDBRANCH   1   7
BRANCH   3  19
HETATM   19  C   UNL     1       8.431  21.779  54.974  1.00  0.00     0.010 A 
HETATM   20  C   UNL     1       8.283  21.182  53.697  1.00  0.00     0.152 A 
HETATM   21  N   UNL     1       8.663  19.902  53.673  1.00  0.00    -0.187 NA
HETATM   22  N   UNL     1       9.047  19.667  54.935  1.00  0.00    -0.289 N 
HETATM   23  H   UNL     1       9.379  18.738  55.172  1.00  0.00     0.188 HD
HETATM   24  C   UNL     1       8.929  20.755  55.752  1.00  0.00     0.123 A 
ENDBRANCH   3  19
TORSDOF 5
ENDMDL
MODEL 7
REMARK VINA RESULT:      -7.8      2.839      4.992
REMARK  5 active torsions:
REMARK  status: ('A' for Active; 'I' for Inactive)
REMARK    1  A    between atoms: C_4  and  S_5 
REMARK    2  A    between atoms: S_5  and  C_6 
REMARK    3  A    between atoms: C_6  and  C_7 
REMARK       I    between atoms: C_7  and  N_8 
REMARK    4  A    between atoms: N_8  and  C_9 
REMARK    5  A    between atoms: C_11  and  C_12 
ROOT
HETATM    1  C   UNL     1       7.303  25.543  55.836  1.00  0.00     0.035 A 
HETATM    2  C   UNL     1       7.378  24.407  55.024  1.00  0.00     0.042 A 
HETATM    3  C   UNL     1       8.155  23.294  55.392  1.00  0.00    -0.021 A 
HETATM    4  C   UNL     1       8.857  23.337  56.603  1.00  0.00     0.012 A 
HETATM    5  C   UNL     1       8.782  24.461  57.426  1.00  0.00     0.003 A 
HETATM    6  C   UNL     1       8.007  25.557  57.044  1.00  0.00     0.029 A 
ENDROOT
BRANCH   1   7
HETATM    7  N   UNL     1       6.550  26.691  55.515  1.00  0.00    -0.327 N 
HETATM    8  C   UNL     1       6.955  27.797  54.791  1.00  0.00     0.231 C 
HETATM    9  O   UNL     1       8.064  27.956  54.283  1.00  0.00    -0.272 OA
HETATM   10  H   UNL     1       5.625  26.758  55.926  1.00  0.00     0.169 HD
BRANCH   8  11
HETATM   11  C   UNL     1       5.874  28.846  54.562  1.00  0.00     0.182 C 
BRANCH  11  12
HETATM   12  S   UNL     1       4.223  28.126  54.264  1.00  0.00    -0.121 SA
BRANCH  12  13
HETATM   13  C   UNL     1       4.508  27.452  52.637  1.00  0.00     0.001 A 
HETATM   14  C   UNL     1       4.357  28.268  51.512  1.00  0.00     0.018 A 
HETATM   15  C   UNL     1       4.568  27.746  50.233  1.00  0.00     0.001 A 
HETATM   16  C   UNL     1       4.940  26.412  50.075  1.00  0.00     0.000 A 
HETATM   17  C   UNL     1       5.108  25.599  51.195  1.00  0.00     0.001 A 
HETATM   18  C   UNL     1       4.897  26.119  52.473  1.00  0.00     0.018 A 
ENDBRANCH  12  13
ENDBRANCH  11  12
ENDBRANCH   8  11
ENDBRANCH   1   7
BRANCH   3  19
HETATM   19  C   UNL     1       8.224  22.134  54.513  1.00  0.00     0.010 A 
HETATM   20  C   UNL     1       8.709  20.823  54.749  1.00  0.00     0.152 A 
HETATM   21  N   UNL     1       8.610  20.029  53.680  1.00  0.00    -0.187 NA
HETATM   22  N   UNL     1       8.070  20.828  52.748  1.00  0.00    -0.289 N 
HETATM   23  H   UNL     1       7.899  20.443  51.826  1.00  0.00     0.188 HD
HETATM   24  C   UNL     1       7.820  22.094  53.195  1.00  0.00     0.123 A 
ENDBRANCH   3  19
TORSDOF 5
ENDMDL
MODEL 8
REMARK VINA RESULT:      -7.7      5.267      8.756
REMARK  5 active torsions:
REMARK  status: ('A' for Active; 'I' for Inactive)
REMARK    1  A    between atoms: C_4  and  S_5 
REMARK    2  A    between atoms: S_5  and  C_6 
REMARK    3  A    between atoms: C_6  and  C_7 
REMARK       I    between atoms: C_7  and  N_8 
REMARK    4  A    between atoms: N_8  and  C_9 
REMARK    5  A    between atoms: C_11  and  C_12 
ROOT
HETATM    1  C   UNL     1       4.767  26.686  50.285  1.00  0.00     0.035 A 
HETATM    2  C   UNL     1       5.013  28.061  50.213  1.00  0.00     0.042 A 
HETATM    3  C   UNL     1       4.949  28.754  48.991  1.00  0.00    -0.021 A 
HETATM    4  C   UNL     1       4.625  28.039  47.832  1.00  0.00     0.012 A 
HETATM    5  C   UNL     1       4.367  26.669  47.892  1.00  0.00     0.003 A 
HETATM    6  C   UNL     1       4.437  25.998  49.113  1.00  0.00     0.029 A 
ENDROOT
BRANCH   1   7
HETATM    7  N   UNL     1       4.827  25.937  51.478  1.00  0.00    -0.327 N 
HETATM    8  C   UNL     1       5.949  25.435  52.110  1.00  0.00     0.231 C 
HETATM    9  O   UNL     1       7.110  25.577  51.731  1.00  0.00    -0.272 OA
HETATM   10  H   UNL     1       3.940  25.662  51.887  1.00  0.00     0.169 HD
BRANCH   8  11
HETATM   11  C   UNL     1       5.678  24.720  53.428  1.00  0.00     0.182 C 
BRANCH  11  12
HETATM   12  S   UNL     1       7.119  24.705  54.549  1.00  0.00    -0.121 SA
BRANCH  12  13
HETATM   13  C   UNL     1       7.547  22.979  54.421  1.00  0.00     0.001 A 
HETATM   14  C   UNL     1       7.869  22.433  53.175  1.00  0.00     0.018 A 
HETATM   15  C   UNL     1       8.195  21.079  53.064  1.00  0.00     0.001 A 
HETATM   16  C   UNL     1       8.210  20.268  54.199  1.00  0.00     0.000 A 
HETATM   17  C   UNL     1       7.905  20.811  55.446  1.00  0.00     0.001 A 
HETATM   18  C   UNL     1       7.579  22.164  55.558  1.00  0.00     0.018 A 
ENDBRANCH  12  13
ENDBRANCH  11  12
ENDBRANCH   8  11
ENDBRANCH   1   7
BRANCH   3  19
HETATM   19  C   UNL     1       5.229  30.184  48.952  1.00  0.00     0.010 A 
HETATM   20  C   UNL     1       5.860  31.028  49.899  1.00  0.00     0.152 A 
HETATM   21  N   UNL     1       5.926  32.301  49.502  1.00  0.00    -0.187 NA
HETATM   22  N   UNL     1       5.329  32.284  48.301  1.00  0.00    -0.289 N 
HETATM   23  H   UNL     1       5.251  33.156  47.791  1.00  0.00     0.188 HD
HETATM   24  C   UNL     1       4.895  31.044  47.926  1.00  0.00     0.123 A 
ENDBRANCH   3  19
TORSDOF 5
ENDMDL
MODEL 9
REMARK VINA RESULT:      -7.5      3.901      5.895
REMARK  5 active torsions:
REMARK  status: ('A' for Active; 'I' for Inactive)
REMARK    1  A    between atoms: C_4  and  S_5 
REMARK    2  A    between atoms: S_5  and  C_6 
REMARK    3  A    between atoms: C_6  and  C_7 
REMARK       I    between atoms: C_7  and  N_8 
REMARK    4  A    between atoms: N_8  and  C_9 
REMARK    5  A    between atoms: C_11  and  C_12 
ROOT
HETATM    1  C   UNL     1       7.203  25.155  54.479  1.00  0.00     0.035 A 
HETATM    2  C   UNL     1       7.569  23.825  54.251  1.00  0.00     0.042 A 
HETATM    3  C   UNL     1       8.042  23.007  55.292  1.00  0.00    -0.021 A 
HETATM    4  C   UNL     1       8.138  23.550  56.580  1.00  0.00     0.012 A 
HETATM    5  C   UNL     1       7.766  24.873  56.821  1.00  0.00     0.003 A 
HETATM    6  C   UNL     1       7.300  25.670  55.775  1.00  0.00     0.029 A 
ENDROOT
BRANCH   1   7
HETATM    7  N   UNL     1       6.732  26.025  53.473  1.00  0.00    -0.327 N 
HETATM    8  C   UNL     1       5.514  25.989  52.820  1.00  0.00     0.231 C 
HETATM    9  O   UNL     1       4.613  25.178  53.027  1.00  0.00    -0.272 OA
HETATM   10  H   UNL     1       7.389  26.717  53.126  1.00  0.00     0.169 HD
BRANCH   8  11
HETATM   11  C   UNL     1       5.284  27.120  51.826  1.00  0.00     0.182 C 
BRANCH  11  12
HETATM   12  S   UNL     1       4.890  26.531  50.143  1.00  0.00    -0.121 SA
BRANCH  12  13
HETATM   13  C   UNL     1       4.875  28.103  49.300  1.00  0.00     0.001 A 
HETATM   14  C   UNL     1       4.411  28.180  47.984  1.00  0.00     0.018 A 
HETATM   15  C   UNL     1       4.405  29.405  47.312  1.00  0.00     0.001 A 
HETATM   16  C   UNL     1       4.854  30.558  47.956  1.00  0.00     0.000 A 
HETATM   17  C   UNL     1       5.303  30.488  49.274  1.00  0.00     0.001 A 
HETATM   18  C   UNL     1       5.309  29.265  49.946  1.00  0.00     0.018 A 
ENDBRANCH  12  13
ENDBRANCH  11  12
ENDBRANCH   8  11
ENDBRANCH   1   7
BRANCH   3  19
HETATM   19  C   UNL     1       8.431  21.631  55.015  1.00  0.00     0.010 A 
HETATM   20  C   UNL     1       8.416  20.892  53.805  1.00  0.00     0.152 A 
HETATM   21  N   UNL     1       8.847  19.637  53.954  1.00  0.00    -0.187 NA
HETATM   22  N   UNL     1       9.132  19.559  55.262  1.00  0.00    -0.289 N 
HETATM   23  H   UNL     1       9.479  18.679  55.627  1.00  0.00     0.188 HD
HETATM   24  C   UNL     1       8.902  20.722  55.940  1.00  0.00     0.123 A 
ENDBRANCH   3  19
TORSDOF 5
ENDMDL
MODEL 10
REMARK VINA RESULT:      -7.4      5.102     10.197
REMARK  5 active torsions:
REMARK  status: ('A' for Active; 'I' for Inactive)
REMARK    1  A    between atoms: C_4  and  S_5 
REMARK    2  A    between atoms: S_5  and  C_6 
REMARK    3  A    between atoms: C_6  and  C_7 
REMARK       I    between atoms: C_7  and  N_8 
REMARK    4  A    between atoms: N_8  and  C_9 
REMARK    5  A    between atoms: C_11  and  C_12 
ROOT
HETATM    1  C   UNL     1       7.690  31.582  59.971  1.00  0.00     0.035 A 
HETATM    2  C   UNL     1       6.682  31.973  60.858  1.00  0.00     0.042 A 
HETATM    3  C   UNL     1       6.978  32.367  62.175  1.00  0.00    -0.021 A 
HETATM    4  C   UNL     1       8.315  32.369  62.590  1.00  0.00     0.012 A 
HETATM    5  C   UNL     1       9.331  31.991  61.711  1.00  0.00     0.003 A 
HETATM    6  C   UNL     1       9.018  31.601  60.408  1.00  0.00     0.029 A 
ENDROOT
BRANCH   1   7
HETATM    7  N   UNL     1       7.454  31.167  58.645  1.00  0.00    -0.327 N 
HETATM    8  C   UNL     1       7.635  29.908  58.103  1.00  0.00     0.231 C 
HETATM    9  O   UNL     1       8.028  28.915  58.713  1.00  0.00    -0.272 OA
HETATM   10  H   UNL     1       7.194  31.890  57.981  1.00  0.00     0.169 HD
BRANCH   8  11
HETATM   11  C   UNL     1       7.221  29.770  56.644  1.00  0.00     0.182 C 
BRANCH  11  12
HETATM   12  S   UNL     1       8.399  28.791  55.650  1.00  0.00    -0.121 SA
BRANCH  12  13
HETATM   13  C   UNL     1       7.513  27.243  55.624  1.00  0.00     0.001 A 
HETATM   14  C   UNL     1       6.542  27.015  54.645  1.00  0.00     0.018 A 
HETATM   15  C   UNL     1       5.836  25.810  54.623  1.00  0.00     0.001 A 
HETATM   16  C   UNL     1       6.105  24.825  55.573  1.00  0.00     0.000 A 
HETATM   17  C   UNL     1       7.084  25.040  56.541  1.00  0.00     0.001 A 
HETATM   18  C   UNL     1       7.790  26.244  56.563  1.00  0.00     0.018 A 
ENDBRANCH  12  13
ENDBRANCH  11  12
ENDBRANCH   8  11
ENDBRANCH   1   7
BRANCH   3  19
HETATM   19  C   UNL     1       5.900  32.752  63.078  1.00  0.00     0.010 A 
HETATM   20  C   UNL     1       4.514  32.933  62.837  1.00  0.00     0.152 A 
HETATM   21  N   UNL     1       3.839  33.301  63.929  1.00  0.00    -0.187 NA
HETATM   22  N   UNL     1       4.788  33.365  64.875  1.00  0.00    -0.289 N 
HETATM   23  H   UNL     1       4.513  33.636  65.813  1.00  0.00     0.188 HD
HETATM   24  C   UNL     1       6.035  33.047  64.418  1.00  0.00     0.123 A 
ENDBRANCH   3  19
TORSDOF 5
ENDMDL
