MODEL 1
REMARK VINA RESULT:      -9.2      0.000      0.000
REMARK  6 active torsions:
REMARK  status: ('A' for Active; 'I' for Inactive)
REMARK    1  A    between atoms: C_2  and  O_3 
REMARK    2  A    between atoms: O_3  and  C_4 
REMARK    3  A    between atoms: C_7  and  C_8 
REMARK       I    between atoms: N_11  and  C_12 
REMARK       I    between atoms: C_12  and  N_13 
REMARK    4  A    between atoms: N_13  and  C_14 
REMARK    5  A    between atoms: C_14  and  C_15 
REMARK    6  A    between atoms: C_15  and  C_16 
ROOT
HETATM    1  C   UNL     1       7.742  27.586  56.835  1.00  0.00    -0.049 C 
HETATM    2  C   UNL     1       9.121  28.169  57.032  1.00  0.00     0.059 C 
HETATM    3  C   UNL     1       9.066  29.672  57.312  1.00  0.00     0.132 C 
HETATM    4  N   UNL     1       8.053  29.990  58.313  1.00  0.00    -0.331 N 
HETATM    5  C   UNL     1       8.397  30.829  59.359  1.00  0.00     0.318 C 
HETATM    6  N   UNL     1       7.365  31.179  60.192  1.00  0.00    -0.338 N 
HETATM    7  O   UNL     1       9.548  31.212  59.557  1.00  0.00    -0.247 OA
HETATM    8  C   UNL     1       6.691  29.566  58.007  1.00  0.00     0.155 C 
HETATM    9  C   UNL     1       6.657  28.265  57.257  1.00  0.00     0.001 C 
HETATM   10  H   UNL     1       6.485  31.349  59.715  1.00  0.00     0.164 HD
ENDROOT
BRANCH   6  11
HETATM   11  C   UNL     1       7.571  32.125  61.286  1.00  0.00     0.087 C 
HETATM   12  C   UNL     1       7.955  31.374  62.559  1.00  0.00     0.032 C 
BRANCH  11  13
HETATM   13  C   UNL     1       6.337  33.032  61.477  1.00  0.00     0.085 C 
BRANCH  13  14
HETATM   14  C   UNL     1       5.898  33.193  62.903  1.00  0.00     0.058 A 
HETATM   15  N   UNL     1       4.757  32.644  63.348  1.00  0.00    -0.179 NA
HETATM   16  N   UNL     1       4.707  33.004  64.642  1.00  0.00    -0.282 N 
HETATM   17  H   UNL     1       3.912  32.702  65.195  1.00  0.00     0.189 HD
HETATM   18  C   UNL     1       5.777  33.752  65.046  1.00  0.00     0.026 A 
HETATM   19  C   UNL     1       5.928  34.252  66.430  1.00  0.00     0.070 C 
HETATM   20  C   UNL     1       6.568  33.897  63.931  1.00  0.00     0.055 A 
ENDBRANCH  13  14
ENDBRANCH  11  13
ENDBRANCH   6  11
BRANCH   1  21
HETATM   21  C   UNL     1       7.608  26.267  56.180  1.00  0.00    -0.030 A 
HETATM   22  C   UNL     1       7.252  26.149  54.831  1.00  0.00     0.014 A 
HETATM   23  C   UNL     1       7.162  24.893  54.212  1.00  0.00     0.037 A 
HETATM   24  C   UNL     1       7.426  23.733  54.936  1.00  0.00     0.068 A 
HETATM   25  C   UNL     1       7.773  23.838  56.282  1.00  0.00     0.037 A 
HETATM   26  C   UNL     1       7.870  25.090  56.896  1.00  0.00     0.014 A 
BRANCH  24  27
HETATM   27  O   UNL     1       7.375  22.453  54.458  1.00  0.00    -0.352 OA
BRANCH  27  28
HETATM   28  C   UNL     1       7.981  22.210  53.190  1.00  0.00     0.171 C 
HETATM   29  C   UNL     1       8.078  20.707  53.001  1.00  0.00     0.034 C 
ENDBRANCH  27  28
ENDBRANCH  24  27
ENDBRANCH   1  21
TORSDOF 6
ENDMDL
MODEL 2
REMARK VINA RESULT:      -8.9      2.650     11.022
REMARK  6 active torsions:
REMARK  status: ('A' for Active; 'I' for Inactive)
REMARK    1  A    between atoms: C_2  and  O_3 
REMARK    2  A    between atoms: O_3  and  C_4 
REMARK    3  A    between atoms: C_7  and  C_8 
REMARK       I    between atoms: N_11  and  C_12 
REMARK       I    between atoms: C_12  and  N_13 
REMARK    4  A    between atoms: N_13  and  C_14 
REMARK    5  A    between atoms: C_14  and  C_15 
REMARK    6  A    between atoms: C_15  and  C_16 
ROOT
HETATM    1  C   UNL     1       6.918  32.503  61.991  1.00  0.00    -0.049 C 
HETATM    2  C   UNL     1       5.900  32.523  60.877  1.00  0.00     0.059 C 
HETATM    3  C   UNL     1       6.561  32.393  59.502  1.00  0.00     0.132 C 
HETATM    4  N   UNL     1       7.552  31.324  59.488  1.00  0.00    -0.331 N 
HETATM    5  C   UNL     1       7.528  30.414  58.444  1.00  0.00     0.318 C 
HETATM    6  N   UNL     1       8.561  29.511  58.432  1.00  0.00    -0.338 N 
HETATM    7  O   UNL     1       6.633  30.386  57.603  1.00  0.00    -0.247 OA
HETATM    8  C   UNL     1       8.629  31.430  60.467  1.00  0.00     0.155 C 
HETATM    9  C   UNL     1       8.161  32.034  61.760  1.00  0.00     0.001 C 
HETATM   10  H   UNL     1       9.458  29.900  58.703  1.00  0.00     0.164 HD
ENDROOT
BRANCH   6  11
HETATM   11  C   UNL     1       8.704  28.549  57.341  1.00  0.00     0.087 C 
HETATM   12  C   UNL     1       9.038  29.281  56.042  1.00  0.00     0.032 C 
BRANCH  11  13
HETATM   13  C   UNL     1       7.450  27.657  57.219  1.00  0.00     0.085 C 
BRANCH  13  14
HETATM   14  C   UNL     1       7.739  26.187  57.135  1.00  0.00     0.058 A 
HETATM   15  N   UNL     1       8.281  25.523  58.168  1.00  0.00    -0.179 NA
HETATM   16  N   UNL     1       8.389  24.260  57.720  1.00  0.00    -0.282 N 
HETATM   17  H   UNL     1       8.788  23.562  58.339  1.00  0.00     0.189 HD
HETATM   18  C   UNL     1       7.927  24.087  56.446  1.00  0.00     0.026 A 
HETATM   19  C   UNL     1       7.947  22.778  55.756  1.00  0.00     0.070 C 
HETATM   20  C   UNL     1       7.502  25.329  56.036  1.00  0.00     0.055 A 
ENDBRANCH  13  14
ENDBRANCH  11  13
ENDBRANCH   6  11
BRANCH   1  21
HETATM   21  C   UNL     1       6.528  33.001  63.327  1.00  0.00    -0.030 A 
HETATM   22  C   UNL     1       5.185  33.143  63.696  1.00  0.00     0.014 A 
HETATM   23  C   UNL     1       4.828  33.585  64.979  1.00  0.00     0.037 A 
HETATM   24  C   UNL     1       5.812  33.892  65.915  1.00  0.00     0.068 A 
HETATM   25  C   UNL     1       7.153  33.763  65.556  1.00  0.00     0.037 A 
HETATM   26  C   UNL     1       7.509  33.316  64.280  1.00  0.00     0.014 A 
BRANCH  24  27
HETATM   27  O   UNL     1       5.604  34.329  67.194  1.00  0.00    -0.352 OA
BRANCH  27  28
HETATM   28  C   UNL     1       6.742  34.396  68.050  1.00  0.00     0.171 C 
HETATM   29  C   UNL     1       6.268  34.160  69.473  1.00  0.00     0.034 C 
ENDBRANCH  27  28
ENDBRANCH  24  27
ENDBRANCH   1  21
TORSDOF 6
ENDMDL
MODEL 3
REMARK VINA RESULT:      -8.5      2.004      3.275
REMARK  6 active torsions:
REMARK  status: ('A' for Active; 'I' for Inactive)
REMARK    1  A    between atoms: C_2  and  O_3 
REMARK    2  A    between atoms: O_3  and  C_4 
REMARK    3  A    between atoms: C_7  and  C_8 
REMARK       I    between atoms: N_11  and  C_12 
REMARK       I    between atoms: C_12  and  N_13 
REMARK    4  A    between atoms: N_13  and  C_14 
REMARK    5  A    between atoms: C_14  and  C_15 
REMARK    6  A    between atoms: C_15  and  C_16 
ROOT
HETATM    1  C   UNL     1       7.766  27.443  56.803  1.00  0.00    -0.049 C 
HETATM    2  C   UNL     1       9.082  28.155  57.004  1.00  0.00     0.059 C 
HETATM    3  C   UNL     1       8.892  29.667  57.150  1.00  0.00     0.132 C 
HETATM    4  N   UNL     1       7.810  29.981  58.076  1.00  0.00    -0.331 N 
HETATM    5  C   UNL     1       8.034  30.930  59.058  1.00  0.00     0.318 C 
HETATM    6  N   UNL     1       6.938  31.260  59.813  1.00  0.00    -0.338 N 
HETATM    7  O   UNL     1       9.140  31.425  59.269  1.00  0.00    -0.247 OA
HETATM    8  C   UNL     1       6.503  29.419  57.752  1.00  0.00     0.155 C 
HETATM    9  C   UNL     1       6.611  28.061  57.118  1.00  0.00     0.001 C 
HETATM   10  H   UNL     1       6.071  31.315  59.288  1.00  0.00     0.164 HD
ENDROOT
BRANCH   6  11
HETATM   11  C   UNL     1       7.014  32.310  60.828  1.00  0.00     0.087 C 
HETATM   12  C   UNL     1       7.478  31.716  62.157  1.00  0.00     0.032 C 
BRANCH  11  13
HETATM   13  C   UNL     1       5.674  33.066  60.947  1.00  0.00     0.085 C 
BRANCH  13  14
HETATM   14  C   UNL     1       4.818  33.010  59.715  1.00  0.00     0.058 A 
HETATM   15  N   UNL     1       4.119  31.909  59.400  1.00  0.00    -0.179 NA
HETATM   16  N   UNL     1       3.496  32.236  58.255  1.00  0.00    -0.282 N 
HETATM   17  H   UNL     1       2.902  31.542  57.814  1.00  0.00     0.189 HD
HETATM   18  C   UNL     1       3.760  33.508  57.831  1.00  0.00     0.026 A 
HETATM   19  C   UNL     1       3.177  34.078  56.596  1.00  0.00     0.070 C 
HETATM   20  C   UNL     1       4.625  34.036  58.761  1.00  0.00     0.055 A 
ENDBRANCH  13  14
ENDBRANCH  11  13
ENDBRANCH   6  11
BRANCH   1  21
HETATM   21  C   UNL     1       7.771  26.068  56.261  1.00  0.00    -0.030 A 
HETATM   22  C   UNL     1       8.291  24.991  56.990  1.00  0.00     0.014 A 
HETATM   23  C   UNL     1       8.259  23.685  56.478  1.00  0.00     0.037 A 
HETATM   24  C   UNL     1       7.704  23.436  55.225  1.00  0.00     0.068 A 
HETATM   25  C   UNL     1       7.192  24.502  54.486  1.00  0.00     0.037 A 
HETATM   26  C   UNL     1       7.217  25.802  55.000  1.00  0.00     0.014 A 
BRANCH  24  27
HETATM   27  O   UNL     1       7.609  22.218  54.611  1.00  0.00    -0.352 OA
BRANCH  27  28
HETATM   28  C   UNL     1       8.668  21.850  53.731  1.00  0.00     0.171 C 
HETATM   29  C   UNL     1       8.255  20.580  53.009  1.00  0.00     0.034 C 
ENDBRANCH  27  28
ENDBRANCH  24  27
ENDBRANCH   1  21
TORSDOF 6
ENDMDL
MODEL 4
REMARK VINA RESULT:      -8.4      2.965     11.186
REMARK  6 active torsions:
REMARK  status: ('A' for Active; 'I' for Inactive)
REMARK    1  A    between atoms: C_2  and  O_3 
REMARK    2  A    between atoms: O_3  and  C_4 
REMARK    3  A    between atoms: C_7  and  C_8 
REMARK       I    between atoms: N_11  and  C_12 
REMARK       I    between atoms: C_12  and  N_13 
REMARK    4  A    between atoms: N_13  and  C_14 
REMARK    5  A    between atoms: C_14  and  C_15 
REMARK    6  A    between atoms: C_15  and  C_16 
ROOT
HETATM    1  C   UNL     1       7.241  31.204  59.824  1.00  0.00    -0.049 C 
HETATM    2  C   UNL     1       6.197  31.445  58.759  1.00  0.00     0.059 C 
HETATM    3  C   UNL     1       6.631  30.882  57.403  1.00  0.00     0.132 C 
HETATM    4  N   UNL     1       7.159  29.529  57.533  1.00  0.00    -0.331 N 
HETATM    5  C   UNL     1       6.706  28.556  56.659  1.00  0.00     0.318 C 
HETATM    6  N   UNL     1       7.334  27.340  56.761  1.00  0.00    -0.338 N 
HETATM    7  O   UNL     1       5.785  28.745  55.867  1.00  0.00    -0.247 OA
HETATM    8  C   UNL     1       8.290  29.363  58.441  1.00  0.00     0.155 C 
HETATM    9  C   UNL     1       8.199  30.277  59.630  1.00  0.00     0.001 C 
HETATM   10  H   UNL     1       8.333  27.400  56.930  1.00  0.00     0.164 HD
ENDROOT
BRANCH   6  11
HETATM   11  C   UNL     1       7.012  26.249  55.843  1.00  0.00     0.087 C 
HETATM   12  C   UNL     1       5.628  25.689  56.165  1.00  0.00     0.032 C 
BRANCH  11  13
HETATM   13  C   UNL     1       8.112  25.168  55.857  1.00  0.00     0.085 C 
BRANCH  13  14
HETATM   14  C   UNL     1       8.024  24.176  54.733  1.00  0.00     0.058 A 
HETATM   15  N   UNL     1       7.891  24.576  53.459  1.00  0.00    -0.179 NA
HETATM   16  N   UNL     1       7.843  23.427  52.762  1.00  0.00    -0.282 N 
HETATM   17  H   UNL     1       7.737  23.480  51.755  1.00  0.00     0.189 HD
HETATM   18  C   UNL     1       7.952  22.309  53.539  1.00  0.00     0.026 A 
HETATM   19  C   UNL     1       7.927  20.939  52.980  1.00  0.00     0.070 C 
HETATM   20  C   UNL     1       8.065  22.766  54.831  1.00  0.00     0.055 A 
ENDBRANCH  13  14
ENDBRANCH  11  13
ENDBRANCH   6  11
BRANCH   1  21
HETATM   21  C   UNL     1       7.189  31.997  61.071  1.00  0.00    -0.030 A 
HETATM   22  C   UNL     1       8.146  31.843  62.081  1.00  0.00     0.014 A 
HETATM   23  C   UNL     1       8.105  32.626  63.245  1.00  0.00     0.037 A 
HETATM   24  C   UNL     1       7.102  33.576  63.416  1.00  0.00     0.068 A 
HETATM   25  C   UNL     1       6.138  33.731  62.421  1.00  0.00     0.037 A 
HETATM   26  C   UNL     1       6.184  32.957  61.258  1.00  0.00     0.014 A 
BRANCH  24  27
HETATM   27  O   UNL     1       6.946  34.401  64.496  1.00  0.00    -0.352 OA
BRANCH  27  28
HETATM   28  C   UNL     1       5.630  34.532  65.028  1.00  0.00     0.171 C 
HETATM   29  C   UNL     1       5.691  34.199  66.508  1.00  0.00     0.034 C 
ENDBRANCH  27  28
ENDBRANCH  24  27
ENDBRANCH   1  21
TORSDOF 6
ENDMDL
MODEL 5
REMARK VINA RESULT:      -8.3      3.188      3.918
REMARK  6 active torsions:
REMARK  status: ('A' for Active; 'I' for Inactive)
REMARK    1  A    between atoms: C_2  and  O_3 
REMARK    2  A    between atoms: O_3  and  C_4 
REMARK    3  A    between atoms: C_7  and  C_8 
REMARK       I    between atoms: N_11  and  C_12 
REMARK       I    between atoms: C_12  and  N_13 
REMARK    4  A    between atoms: N_13  and  C_14 
REMARK    5  A    between atoms: C_14  and  C_15 
REMARK    6  A    between atoms: C_15  and  C_16 
ROOT
HETATM    1  C   UNL     1       6.459  26.526  55.276  1.00  0.00    -0.049 C 
HETATM    2  C   UNL     1       6.537  27.759  54.408  1.00  0.00     0.059 C 
HETATM    3  C   UNL     1       5.414  28.749  54.730  1.00  0.00     0.132 C 
HETATM    4  N   UNL     1       5.276  28.948  56.167  1.00  0.00    -0.331 N 
HETATM    5  C   UNL     1       5.188  30.242  56.651  1.00  0.00     0.318 C 
HETATM    6  N   UNL     1       4.938  30.348  57.996  1.00  0.00    -0.338 N 
HETATM    7  O   UNL     1       5.353  31.233  55.942  1.00  0.00    -0.247 OA
HETATM    8  C   UNL     1       5.023  27.750  56.962  1.00  0.00     0.155 C 
HETATM    9  C   UNL     1       5.732  26.545  56.411  1.00  0.00     0.001 C 
HETATM   10  H   UNL     1       4.282  29.661  58.353  1.00  0.00     0.164 HD
ENDROOT
BRANCH   6  11
HETATM   11  C   UNL     1       4.738  31.654  58.622  1.00  0.00     0.087 C 
HETATM   12  C   UNL     1       3.655  32.429  57.873  1.00  0.00     0.032 C 
BRANCH  11  13
HETATM   13  C   UNL     1       6.067  32.431  58.722  1.00  0.00     0.085 C 
BRANCH  13  14
HETATM   14  C   UNL     1       7.189  31.664  59.361  1.00  0.00     0.058 A 
HETATM   15  N   UNL     1       8.020  30.906  58.629  1.00  0.00    -0.179 NA
HETATM   16  N   UNL     1       8.867  30.387  59.535  1.00  0.00    -0.282 N 
HETATM   17  H   UNL     1       9.597  29.762  59.209  1.00  0.00     0.189 HD
HETATM   18  C   UNL     1       8.618  30.793  60.816  1.00  0.00     0.026 A 
HETATM   19  C   UNL     1       9.429  30.347  61.970  1.00  0.00     0.070 C 
HETATM   20  C   UNL     1       7.524  31.622  60.734  1.00  0.00     0.055 A 
ENDBRANCH  13  14
ENDBRANCH  11  13
ENDBRANCH   6  11
BRANCH   1  21
HETATM   21  C   UNL     1       7.192  25.311  54.862  1.00  0.00    -0.030 A 
HETATM   22  C   UNL     1       7.416  25.011  53.513  1.00  0.00     0.014 A 
HETATM   23  C   UNL     1       8.143  23.872  53.133  1.00  0.00     0.037 A 
HETATM   24  C   UNL     1       8.657  23.013  54.102  1.00  0.00     0.068 A 
HETATM   25  C   UNL     1       8.432  23.297  55.448  1.00  0.00     0.037 A 
HETATM   26  C   UNL     1       7.715  24.436  55.825  1.00  0.00     0.014 A 
BRANCH  24  27
HETATM   27  O   UNL     1       9.380  21.875  53.871  1.00  0.00    -0.352 OA
BRANCH  27  28
HETATM   28  C   UNL     1       8.714  20.631  54.076  1.00  0.00     0.171 C 
HETATM   29  C   UNL     1       7.840  20.365  52.863  1.00  0.00     0.034 C 
ENDBRANCH  27  28
ENDBRANCH  24  27
ENDBRANCH   1  21
TORSDOF 6
ENDMDL
MODEL 6
REMARK VINA RESULT:      -8.3      3.751      5.210
REMARK  6 active torsions:
REMARK  status: ('A' for Active; 'I' for Inactive)
REMARK    1  A    between atoms: C_2  and  O_3 
REMARK    2  A    between atoms: O_3  and  C_4 
REMARK    3  A    between atoms: C_7  and  C_8 
REMARK       I    between atoms: N_11  and  C_12 
REMARK       I    between atoms: C_12  and  N_13 
REMARK    4  A    between atoms: N_13  and  C_14 
REMARK    5  A    between atoms: C_14  and  C_15 
REMARK    6  A    between atoms: C_15  and  C_16 
ROOT
HETATM    1  C   UNL     1       5.565  26.465  54.311  1.00  0.00    -0.049 C 
HETATM    2  C   UNL     1       4.914  26.933  53.032  1.00  0.00     0.059 C 
HETATM    3  C   UNL     1       3.724  27.856  53.307  1.00  0.00     0.132 C 
HETATM    4  N   UNL     1       4.056  28.869  54.303  1.00  0.00    -0.331 N 
HETATM    5  C   UNL     1       3.727  30.188  54.040  1.00  0.00     0.318 C 
HETATM    6  N   UNL     1       3.958  31.065  55.069  1.00  0.00    -0.338 N 
HETATM    7  O   UNL     1       3.289  30.563  52.954  1.00  0.00    -0.247 OA
HETATM    8  C   UNL     1       4.515  28.374  55.596  1.00  0.00     0.155 C 
HETATM    9  C   UNL     1       5.332  27.121  55.465  1.00  0.00     0.001 C 
HETATM   10  H   UNL     1       3.740  30.695  55.988  1.00  0.00     0.164 HD
ENDROOT
BRANCH   6  11
HETATM   11  C   UNL     1       3.578  32.472  54.956  1.00  0.00     0.087 C 
HETATM   12  C   UNL     1       4.760  33.290  54.439  1.00  0.00     0.032 C 
BRANCH  11  13
HETATM   13  C   UNL     1       3.020  33.006  56.292  1.00  0.00     0.085 C 
BRANCH  13  14
HETATM   14  C   UNL     1       3.749  32.517  57.509  1.00  0.00     0.058 A 
HETATM   15  N   UNL     1       3.367  31.400  58.149  1.00  0.00    -0.179 NA
HETATM   16  N   UNL     1       4.238  31.296  59.167  1.00  0.00    -0.282 N 
HETATM   17  H   UNL     1       4.141  30.513  59.806  1.00  0.00     0.189 HD
HETATM   18  C   UNL     1       5.170  32.295  59.198  1.00  0.00     0.026 A 
HETATM   19  C   UNL     1       6.227  32.374  60.230  1.00  0.00     0.070 C 
HETATM   20  C   UNL     1       4.872  33.111  58.131  1.00  0.00     0.055 A 
ENDBRANCH  13  14
ENDBRANCH  11  13
ENDBRANCH   6  11
BRANCH   1  21
HETATM   21  C   UNL     1       6.456  25.285  54.272  1.00  0.00    -0.030 A 
HETATM   22  C   UNL     1       7.081  24.875  53.088  1.00  0.00     0.014 A 
HETATM   23  C   UNL     1       7.951  23.774  53.070  1.00  0.00     0.037 A 
HETATM   24  C   UNL     1       8.210  23.065  54.241  1.00  0.00     0.068 A 
HETATM   25  C   UNL     1       7.586  23.460  55.424  1.00  0.00     0.037 A 
HETATM   26  C   UNL     1       6.725  24.562  55.442  1.00  0.00     0.014 A 
BRANCH  24  27
HETATM   27  O   UNL     1       9.033  21.981  54.364  1.00  0.00    -0.352 OA
BRANCH  27  28
HETATM   28  C   UNL     1       8.428  20.693  54.266  1.00  0.00     0.171 C 
HETATM   29  C   UNL     1       8.273  20.362  52.792  1.00  0.00     0.034 C 
ENDBRANCH  27  28
ENDBRANCH  24  27
ENDBRANCH   1  21
TORSDOF 6
ENDMDL
MODEL 7
REMARK VINA RESULT:      -8.2      8.081     10.946
REMARK  6 active torsions:
REMARK  status: ('A' for Active; 'I' for Inactive)
REMARK    1  A    between atoms: C_2  and  O_3 
REMARK    2  A    between atoms: O_3  and  C_4 
REMARK    3  A    between atoms: C_7  and  C_8 
REMARK       I    between atoms: N_11  and  C_12 
REMARK       I    between atoms: C_12  and  N_13 
REMARK    4  A    between atoms: N_13  and  C_14 
REMARK    5  A    between atoms: C_14  and  C_15 
REMARK    6  A    between atoms: C_15  and  C_16 
ROOT
HETATM    1  C   UNL     1       6.451  25.840  52.792  1.00  0.00    -0.049 C 
HETATM    2  C   UNL     1       5.786  26.875  53.667  1.00  0.00     0.059 C 
HETATM    3  C   UNL     1       5.374  28.113  52.865  1.00  0.00     0.132 C 
HETATM    4  N   UNL     1       4.697  27.745  51.628  1.00  0.00    -0.331 N 
HETATM    5  C   UNL     1       3.512  28.383  51.307  1.00  0.00     0.318 C 
HETATM    6  N   UNL     1       2.996  28.073  50.074  1.00  0.00    -0.338 N 
HETATM    7  O   UNL     1       2.936  29.149  52.077  1.00  0.00    -0.247 OA
HETATM    8  C   UNL     1       5.443  26.881  50.718  1.00  0.00     0.155 C 
HETATM    9  C   UNL     1       6.304  25.894  51.453  1.00  0.00     0.001 C 
HETATM   10  H   UNL     1       3.693  27.972  49.344  1.00  0.00     0.164 HD
ENDROOT
BRANCH   6  11
HETATM   11  C   UNL     1       1.794  28.740  49.574  1.00  0.00     0.087 C 
HETATM   12  C   UNL     1       1.226  27.966  48.386  1.00  0.00     0.032 C 
BRANCH  11  13
HETATM   13  C   UNL     1       2.077  30.220  49.243  1.00  0.00     0.085 C 
BRANCH  13  14
HETATM   14  C   UNL     1       2.959  30.432  48.047  1.00  0.00     0.058 A 
HETATM   15  N   UNL     1       4.223  29.981  48.024  1.00  0.00    -0.179 NA
HETATM   16  N   UNL     1       4.679  30.359  46.817  1.00  0.00    -0.282 N 
HETATM   17  H   UNL     1       5.636  30.128  46.571  1.00  0.00     0.189 HD
HETATM   18  C   UNL     1       3.754  31.024  46.064  1.00  0.00     0.026 A 
HETATM   19  C   UNL     1       4.042  31.528  44.702  1.00  0.00     0.070 C 
HETATM   20  C   UNL     1       2.623  31.093  46.843  1.00  0.00     0.055 A 
ENDBRANCH  13  14
ENDBRANCH  11  13
ENDBRANCH   6  11
BRANCH   1  21
HETATM   21  C   UNL     1       7.255  24.774  53.428  1.00  0.00    -0.030 A 
HETATM   22  C   UNL     1       7.639  24.845  54.772  1.00  0.00     0.014 A 
HETATM   23  C   UNL     1       8.373  23.811  55.373  1.00  0.00     0.037 A 
HETATM   24  C   UNL     1       8.735  22.687  54.635  1.00  0.00     0.068 A 
HETATM   25  C   UNL     1       8.366  22.610  53.292  1.00  0.00     0.037 A 
HETATM   26  C   UNL     1       7.628  23.637  52.697  1.00  0.00     0.014 A 
BRANCH  24  27
HETATM   27  O   UNL     1       9.445  21.613  55.094  1.00  0.00    -0.352 OA
BRANCH  27  28
HETATM   28  C   UNL     1       8.801  20.341  55.047  1.00  0.00     0.171 C 
HETATM   29  C   UNL     1       7.753  20.309  56.144  1.00  0.00     0.034 C 
ENDBRANCH  27  28
ENDBRANCH  24  27
ENDBRANCH   1  21
TORSDOF 6
ENDMDL
MODEL 8
REMARK VINA RESULT:      -8.2      2.027      2.445
REMARK  6 active torsions:
REMARK  status: ('A' for Active; 'I' for Inactive)
REMARK    1  A    between atoms: C_2  and  O_3 
REMARK    2  A    between atoms: O_3  and  C_4 
REMARK    3  A    between atoms: C_7  and  C_8 
REMARK       I    between atoms: N_11  and  C_12 
REMARK       I    between atoms: C_12  and  N_13 
REMARK    4  A    between atoms: N_13  and  C_14 
REMARK    5  A    between atoms: C_14  and  C_15 
REMARK    6  A    between atoms: C_15  and  C_16 
ROOT
HETATM    1  C   UNL     1       6.250  27.212  55.256  1.00  0.00    -0.049 C 
HETATM    2  C   UNL     1       6.023  28.501  54.504  1.00  0.00     0.059 C 
HETATM    3  C   UNL     1       5.105  29.453  55.276  1.00  0.00     0.132 C 
HETATM    4  N   UNL     1       5.498  29.552  56.677  1.00  0.00    -0.331 N 
HETATM    5  C   UNL     1       5.607  30.809  57.246  1.00  0.00     0.318 C 
HETATM    6  N   UNL     1       5.862  30.821  58.594  1.00  0.00    -0.338 N 
HETATM    7  O   UNL     1       5.517  31.848  56.594  1.00  0.00    -0.247 OA
HETATM    8  C   UNL     1       5.535  28.300  57.426  1.00  0.00     0.155 C 
HETATM    9  C   UNL     1       5.982  27.145  56.575  1.00  0.00     0.001 C 
HETATM   10  H   UNL     1       5.371  30.103  59.117  1.00  0.00     0.164 HD
ENDROOT
BRANCH   6  11
HETATM   11  C   UNL     1       5.917  32.079  59.337  1.00  0.00     0.087 C 
HETATM   12  C   UNL     1       7.153  32.099  60.235  1.00  0.00     0.032 C 
BRANCH  11  13
HETATM   13  C   UNL     1       4.608  32.322  60.116  1.00  0.00     0.085 C 
BRANCH  13  14
HETATM   14  C   UNL     1       4.802  32.731  61.547  1.00  0.00     0.058 A 
HETATM   15  N   UNL     1       4.497  31.901  62.557  1.00  0.00    -0.179 NA
HETATM   16  N   UNL     1       4.798  32.609  63.660  1.00  0.00    -0.282 N 
HETATM   17  H   UNL     1       4.641  32.180  64.565  1.00  0.00     0.189 HD
HETATM   18  C   UNL     1       5.293  33.855  63.395  1.00  0.00     0.026 A 
HETATM   19  C   UNL     1       5.692  34.802  64.459  1.00  0.00     0.070 C 
HETATM   20  C   UNL     1       5.302  33.965  62.024  1.00  0.00     0.055 A 
ENDBRANCH  13  14
ENDBRANCH  11  13
ENDBRANCH   6  11
BRANCH   1  21
HETATM   21  C   UNL     1       6.769  26.037  54.524  1.00  0.00    -0.030 A 
HETATM   22  C   UNL     1       7.370  26.161  53.265  1.00  0.00     0.014 A 
HETATM   23  C   UNL     1       7.889  25.043  52.595  1.00  0.00     0.037 A 
HETATM   24  C   UNL     1       7.813  23.779  53.176  1.00  0.00     0.068 A 
HETATM   25  C   UNL     1       7.208  23.642  54.425  1.00  0.00     0.037 A 
HETATM   26  C   UNL     1       6.698  24.758  55.096  1.00  0.00     0.014 A 
BRANCH  24  27
HETATM   27  O   UNL     1       8.277  22.612  52.636  1.00  0.00    -0.352 OA
BRANCH  27  28
HETATM   28  C   UNL     1       7.697  21.400  53.113  1.00  0.00     0.171 C 
HETATM   29  C   UNL     1       8.806  20.372  53.243  1.00  0.00     0.034 C 
ENDBRANCH  27  28
ENDBRANCH  24  27
ENDBRANCH   1  21
TORSDOF 6
ENDMDL
MODEL 9
REMARK VINA RESULT:      -8.0      2.255      3.460
REMARK  6 active torsions:
REMARK  status: ('A' for Active; 'I' for Inactive)
REMARK    1  A    between atoms: C_2  and  O_3 
REMARK    2  A    between atoms: O_3  and  C_4 
REMARK    3  A    between atoms: C_7  and  C_8 
REMARK       I    between atoms: N_11  and  C_12 
REMARK       I    between atoms: C_12  and  N_13 
REMARK    4  A    between atoms: N_13  and  C_14 
REMARK    5  A    between atoms: C_14  and  C_15 
REMARK    6  A    between atoms: C_15  and  C_16 
ROOT
HETATM    1  C   UNL     1       7.016  25.595  56.052  1.00  0.00    -0.049 C 
HETATM    2  C   UNL     1       5.624  26.071  55.712  1.00  0.00     0.059 C 
HETATM    3  C   UNL     1       5.018  26.906  56.842  1.00  0.00     0.132 C 
HETATM    4  N   UNL     1       5.965  27.899  57.337  1.00  0.00    -0.331 N 
HETATM    5  C   UNL     1       5.531  29.204  57.499  1.00  0.00     0.318 C 
HETATM    6  N   UNL     1       6.439  30.053  58.079  1.00  0.00    -0.338 N 
HETATM    7  O   UNL     1       4.427  29.592  57.123  1.00  0.00    -0.247 OA
HETATM    8  C   UNL     1       7.240  27.385  57.827  1.00  0.00     0.155 C 
HETATM    9  C   UNL     1       7.707  26.191  57.044  1.00  0.00     0.001 C 
HETATM   10  H   UNL     1       6.979  29.636  58.829  1.00  0.00     0.164 HD
ENDROOT
BRANCH   6  11
HETATM   11  C   UNL     1       6.081  31.437  58.386  1.00  0.00     0.087 C 
HETATM   12  C   UNL     1       5.480  32.106  57.150  1.00  0.00     0.032 C 
BRANCH  11  13
HETATM   13  C   UNL     1       7.289  32.210  58.956  1.00  0.00     0.085 C 
BRANCH  13  14
HETATM   14  C   UNL     1       7.529  31.995  60.422  1.00  0.00     0.058 A 
HETATM   15  N   UNL     1       7.999  30.827  60.887  1.00  0.00    -0.179 NA
HETATM   16  N   UNL     1       8.075  31.015  62.217  1.00  0.00    -0.282 N 
HETATM   17  H   UNL     1       8.405  30.248  62.793  1.00  0.00     0.189 HD
HETATM   18  C   UNL     1       7.683  32.260  62.618  1.00  0.00     0.026 A 
HETATM   19  C   UNL     1       7.689  32.684  64.036  1.00  0.00     0.070 C 
HETATM   20  C   UNL     1       7.315  32.921  61.469  1.00  0.00     0.055 A 
ENDBRANCH  13  14
ENDBRANCH  11  13
ENDBRANCH   6  11
BRANCH   1  21
HETATM   21  C   UNL     1       7.600  24.476  55.282  1.00  0.00    -0.030 A 
HETATM   22  C   UNL     1       8.729  23.782  55.734  1.00  0.00     0.014 A 
HETATM   23  C   UNL     1       9.253  22.700  55.010  1.00  0.00     0.037 A 
HETATM   24  C   UNL     1       8.654  22.296  53.820  1.00  0.00     0.068 A 
HETATM   25  C   UNL     1       7.534  22.986  53.356  1.00  0.00     0.037 A 
HETATM   26  C   UNL     1       7.008  24.059  54.081  1.00  0.00     0.014 A 
BRANCH  24  27
HETATM   27  O   UNL     1       9.060  21.263  53.021  1.00  0.00    -0.352 OA
BRANCH  27  28
HETATM   28  C   UNL     1       8.749  19.943  53.461  1.00  0.00     0.171 C 
HETATM   29  C   UNL     1       8.431  20.009  54.944  1.00  0.00     0.034 C 
ENDBRANCH  27  28
ENDBRANCH  24  27
ENDBRANCH   1  21
TORSDOF 6
ENDMDL
MODEL 10
REMARK VINA RESULT:      -7.8      8.195     11.057
REMARK  6 active torsions:
REMARK  status: ('A' for Active; 'I' for Inactive)
REMARK    1  A    between atoms: C_2  and  O_3 
REMARK    2  A    between atoms: O_3  and  C_4 
REMARK    3  A    between atoms: C_7  and  C_8 
REMARK       I    between atoms: N_11  and  C_12 
REMARK       I    between atoms: C_12  and  N_13 
REMARK    4  A    between atoms: N_13  and  C_14 
REMARK    5  A    between atoms: C_14  and  C_15 
REMARK    6  A    between atoms: C_15  and  C_16 
ROOT
HETATM    1  C   UNL     1       5.748  26.039  52.668  1.00  0.00    -0.049 C 
HETATM    2  C   UNL     1       5.988  25.724  51.211  1.00  0.00     0.059 C 
HETATM    3  C   UNL     1       4.935  26.374  50.311  1.00  0.00     0.132 C 
HETATM    4  N   UNL     1       4.717  27.771  50.669  1.00  0.00    -0.331 N 
HETATM    5  C   UNL     1       4.706  28.719  49.660  1.00  0.00     0.318 C 
HETATM    6  N   UNL     1       4.377  29.991  50.056  1.00  0.00    -0.338 N 
HETATM    7  O   UNL     1       5.002  28.459  48.496  1.00  0.00    -0.247 OA
HETATM    8  C   UNL     1       4.311  28.026  52.048  1.00  0.00     0.155 C 
HETATM    9  C   UNL     1       4.951  27.070  53.013  1.00  0.00     0.001 C 
HETATM   10  H   UNL     1       3.642  30.032  50.755  1.00  0.00     0.164 HD
ENDROOT
BRANCH   6  11
HETATM   11  C   UNL     1       4.246  31.070  49.079  1.00  0.00     0.087 C 
HETATM   12  C   UNL     1       5.059  32.282  49.530  1.00  0.00     0.032 C 
BRANCH  11  13
HETATM   13  C   UNL     1       2.762  31.409  48.822  1.00  0.00     0.085 C 
BRANCH  13  14
HETATM   14  C   UNL     1       2.081  30.507  47.834  1.00  0.00     0.058 A 
HETATM   15  N   UNL     1       2.050  30.803  46.525  1.00  0.00    -0.179 NA
HETATM   16  N   UNL     1       1.364  29.784  45.978  1.00  0.00    -0.282 N 
HETATM   17  H   UNL     1       1.205  29.794  44.976  1.00  0.00     0.189 HD
HETATM   18  C   UNL     1       0.965  28.843  46.884  1.00  0.00     0.026 A 
HETATM   19  C   UNL     1       0.200  27.636  46.501  1.00  0.00     0.070 C 
HETATM   20  C   UNL     1       1.413  29.290  48.105  1.00  0.00     0.055 A 
ENDBRANCH  13  14
ENDBRANCH  11  13
ENDBRANCH   6  11
BRANCH   1  21
HETATM   21  C   UNL     1       6.402  25.205  53.699  1.00  0.00    -0.030 A 
HETATM   22  C   UNL     1       5.968  25.205  55.030  1.00  0.00     0.014 A 
HETATM   23  C   UNL     1       6.575  24.383  55.992  1.00  0.00     0.037 A 
HETATM   24  C   UNL     1       7.630  23.546  55.635  1.00  0.00     0.068 A 
HETATM   25  C   UNL     1       8.076  23.545  54.314  1.00  0.00     0.037 A 
HETATM   26  C   UNL     1       7.466  24.358  53.355  1.00  0.00     0.014 A 
BRANCH  24  27
HETATM   27  O   UNL     1       8.306  22.699  56.467  1.00  0.00    -0.352 OA
BRANCH  27  28
HETATM   28  C   UNL     1       8.855  21.519  55.885  1.00  0.00     0.171 C 
HETATM   29  C   UNL     1       7.940  20.358  56.234  1.00  0.00     0.034 C 
ENDBRANCH  27  28
ENDBRANCH  24  27
ENDBRANCH   1  21
TORSDOF 6
ENDMDL
