MODEL 1
REMARK VINA RESULT:      -9.6      0.000      0.000
REMARK  7 active torsions:
REMARK  status: ('A' for Active; 'I' for Inactive)
REMARK    1  A    between atoms: C_4  and  C_5 
REMARK    2  A    between atoms: C_5  and  N_6 
REMARK       I    between atoms: N_6  and  C_7 
REMARK    3  A    between atoms: N_6  and  C_18 
REMARK       I    between atoms: C_7  and  N_8 
REMARK    4  A    between atoms: N_8  and  C_9 
REMARK    5  A    between atoms: C_10  and  O_11 
REMARK    6  A    between atoms: N_21  and  C_23 
REMARK    7  A    between atoms: C_23  and  C_24 
ROOT
HETATM    1  N   UNL     1       6.824  28.382  56.662  1.00  0.00    -0.323 N 
HETATM    2  C   UNL     1       5.796  29.308  56.964  1.00  0.00     0.323 C 
HETATM    3  N   UNL     1       5.988  30.586  56.494  1.00  0.00    -0.306 N 
HETATM    4  O   UNL     1       4.815  28.919  57.590  1.00  0.00    -0.247 OA
HETATM    5  H   UNL     1       6.751  30.743  55.864  1.00  0.00     0.171 HD
ENDROOT
BRANCH   1   6
HETATM    6  C   UNL     1       7.942  28.677  55.758  1.00  0.00     0.193 C 
BRANCH   6   7
HETATM    7  C   UNL     1       9.037  29.362  56.483  1.00  0.00     0.071 A 
HETATM    8  O   UNL     1       8.662  30.152  57.531  1.00  0.00    -0.318 OA
HETATM    9  C   UNL     1       9.799  30.697  58.048  1.00  0.00     0.049 A 
HETATM   10  C   UNL     1       9.642  31.616  59.195  1.00  0.00     0.076 C 
HETATM   11  C   UNL     1      10.898  30.257  57.344  1.00  0.00     0.035 A 
HETATM   12  C   UNL     1      10.408  29.397  56.333  1.00  0.00     0.037 A 
ENDBRANCH   6   7
ENDBRANCH   1   6
BRANCH   1  13
HETATM   13  C   UNL     1       6.714  27.058  57.345  1.00  0.00     0.092 C 
HETATM   14  C   UNL     1       7.922  26.110  57.332  1.00  0.00     0.053 C 
HETATM   15  C   UNL     1       8.114  25.294  56.061  1.00  0.00     0.237 C 
HETATM   16  N   UNL     1       6.821  24.661  55.600  1.00  0.00    -0.067 N 
HETATM   17  H   UNL     1       6.605  23.911  56.268  1.00  0.00     0.280 HD
HETATM   18  C   UNL     1       5.647  25.612  55.572  1.00  0.00     0.237 C 
HETATM   19  C   UNL     1       5.464  26.276  56.917  1.00  0.00     0.053 C 
BRANCH  16  20
HETATM   20  C   UNL     1       6.948  23.986  54.241  1.00  0.00     0.273 C 
BRANCH  20  21
HETATM   21  C   UNL     1       7.525  22.600  54.269  1.00  0.00    -0.033 A 
HETATM   22  C   UNL     1       7.976  21.982  53.094  1.00  0.00     0.009 A 
HETATM   23  C   UNL     1       8.510  20.693  53.139  1.00  0.00     0.001 A 
HETATM   24  C   UNL     1       8.594  20.011  54.351  1.00  0.00     0.000 A 
HETATM   25  C   UNL     1       8.147  20.613  55.523  1.00  0.00     0.001 A 
HETATM   26  C   UNL     1       7.616  21.901  55.485  1.00  0.00     0.009 A 
ENDBRANCH  20  21
ENDBRANCH  16  20
ENDBRANCH   1  13
BRANCH   3  27
HETATM   27  C   UNL     1       5.170  31.738  56.642  1.00  0.00     0.069 A 
HETATM   28  C   UNL     1       5.255  32.724  57.635  1.00  0.00     0.095 A 
HETATM   29  C   UNL     1       4.326  33.775  57.678  1.00  0.00     0.039 A 
HETATM   30  C   UNL     1       3.340  33.892  56.703  1.00  0.00     0.003 A 
HETATM   31  C   UNL     1       3.275  32.956  55.679  1.00  0.00     0.002 A 
HETATM   32  C   UNL     1       4.182  31.892  55.649  1.00  0.00     0.032 A 
BRANCH  28  33
HETATM   33  O   UNL     1       6.217  32.753  58.604  1.00  0.00    -0.354 OA
HETATM   34  C   UNL     1       5.619  32.748  59.899  1.00  0.00     0.210 C 
ENDBRANCH  28  33
ENDBRANCH   3  27
TORSDOF 7
ENDMDL
MODEL 2
REMARK VINA RESULT:      -9.6      1.424      2.348
REMARK  7 active torsions:
REMARK  status: ('A' for Active; 'I' for Inactive)
REMARK    1  A    between atoms: C_4  and  C_5 
REMARK    2  A    between atoms: C_5  and  N_6 
REMARK       I    between atoms: N_6  and  C_7 
REMARK    3  A    between atoms: N_6  and  C_18 
REMARK       I    between atoms: C_7  and  N_8 
REMARK    4  A    between atoms: N_8  and  C_9 
REMARK    5  A    between atoms: C_10  and  O_11 
REMARK    6  A    between atoms: N_21  and  C_23 
REMARK    7  A    between atoms: C_23  and  C_24 
ROOT
HETATM    1  N   UNL     1       6.231  29.052  56.768  1.00  0.00    -0.323 N 
HETATM    2  C   UNL     1       5.443  30.220  56.906  1.00  0.00     0.323 C 
HETATM    3  N   UNL     1       5.411  30.773  58.165  1.00  0.00    -0.306 N 
HETATM    4  O   UNL     1       4.869  30.666  55.917  1.00  0.00    -0.247 OA
HETATM    5  H   UNL     1       6.042  30.408  58.852  1.00  0.00     0.171 HD
ENDROOT
BRANCH   1   6
HETATM    6  C   UNL     1       7.114  28.540  57.822  1.00  0.00     0.193 C 
BRANCH   6   7
HETATM    7  C   UNL     1       8.261  29.453  58.035  1.00  0.00     0.071 A 
HETATM    8  O   UNL     1       8.201  30.246  59.145  1.00  0.00    -0.318 OA
HETATM    9  C   UNL     1       9.328  31.012  59.151  1.00  0.00     0.049 A 
HETATM   10  C   UNL     1       9.478  31.976  60.261  1.00  0.00     0.076 C 
HETATM   11  C   UNL     1      10.112  30.710  58.060  1.00  0.00     0.035 A 
HETATM   12  C   UNL     1       9.425  29.705  57.339  1.00  0.00     0.037 A 
ENDBRANCH   6   7
ENDBRANCH   1   6
BRANCH   1  13
HETATM   13  C   UNL     1       6.099  28.341  55.461  1.00  0.00     0.092 C 
HETATM   14  C   UNL     1       5.035  27.244  55.313  1.00  0.00     0.053 C 
HETATM   15  C   UNL     1       5.405  25.878  55.872  1.00  0.00     0.237 C 
HETATM   16  N   UNL     1       6.795  25.458  55.451  1.00  0.00    -0.067 N 
HETATM   17  H   UNL     1       6.746  25.238  54.448  1.00  0.00     0.280 HD
HETATM   18  C   UNL     1       7.845  26.528  55.643  1.00  0.00     0.237 C 
HETATM   19  C   UNL     1       7.441  27.805  54.944  1.00  0.00     0.053 C 
BRANCH  16  20
HETATM   20  C   UNL     1       7.258  24.179  56.137  1.00  0.00     0.273 C 
BRANCH  20  21
HETATM   21  C   UNL     1       7.518  23.021  55.217  1.00  0.00    -0.033 A 
HETATM   22  C   UNL     1       7.696  21.724  55.720  1.00  0.00     0.009 A 
HETATM   23  C   UNL     1       7.937  20.660  54.850  1.00  0.00     0.001 A 
HETATM   24  C   UNL     1       8.007  20.880  53.476  1.00  0.00     0.000 A 
HETATM   25  C   UNL     1       7.835  22.163  52.965  1.00  0.00     0.001 A 
HETATM   26  C   UNL     1       7.591  23.229  53.828  1.00  0.00     0.009 A 
ENDBRANCH  20  21
ENDBRANCH  16  20
ENDBRANCH   1  13
BRANCH   3  27
HETATM   27  C   UNL     1       4.708  31.914  58.636  1.00  0.00     0.069 A 
HETATM   28  C   UNL     1       4.808  33.232  58.167  1.00  0.00     0.095 A 
HETATM   29  C   UNL     1       4.085  34.264  58.784  1.00  0.00     0.039 A 
HETATM   30  C   UNL     1       3.212  33.993  59.834  1.00  0.00     0.003 A 
HETATM   31  C   UNL     1       3.059  32.685  60.275  1.00  0.00     0.002 A 
HETATM   32  C   UNL     1       3.798  31.658  59.680  1.00  0.00     0.032 A 
BRANCH  28  33
HETATM   33  O   UNL     1       5.578  33.609  57.105  1.00  0.00    -0.354 OA
HETATM   34  C   UNL     1       4.789  34.302  56.139  1.00  0.00     0.210 C 
ENDBRANCH  28  33
ENDBRANCH   3  27
TORSDOF 7
ENDMDL
MODEL 3
REMARK VINA RESULT:      -9.6      2.858      4.738
REMARK  7 active torsions:
REMARK  status: ('A' for Active; 'I' for Inactive)
REMARK    1  A    between atoms: C_4  and  C_5 
REMARK    2  A    between atoms: C_5  and  N_6 
REMARK       I    between atoms: N_6  and  C_7 
REMARK    3  A    between atoms: N_6  and  C_18 
REMARK       I    between atoms: C_7  and  N_8 
REMARK    4  A    between atoms: N_8  and  C_9 
REMARK    5  A    between atoms: C_10  and  O_11 
REMARK    6  A    between atoms: N_21  and  C_23 
REMARK    7  A    between atoms: C_23  and  C_24 
ROOT
HETATM    1  N   UNL     1       5.815  27.334  55.333  1.00  0.00    -0.323 N 
HETATM    2  C   UNL     1       4.861  28.335  55.032  1.00  0.00     0.323 C 
HETATM    3  N   UNL     1       4.946  28.881  53.772  1.00  0.00    -0.306 N 
HETATM    4  O   UNL     1       4.027  28.633  55.882  1.00  0.00    -0.247 OA
HETATM    5  H   UNL     1       5.568  28.448  53.116  1.00  0.00     0.171 HD
ENDROOT
BRANCH   1   6
HETATM    6  C   UNL     1       6.729  26.758  54.339  1.00  0.00     0.193 C 
BRANCH   6   7
HETATM    7  C   UNL     1       5.973  26.074  53.265  1.00  0.00     0.071 A 
HETATM    8  O   UNL     1       5.907  26.726  52.067  1.00  0.00    -0.318 OA
HETATM    9  C   UNL     1       5.166  25.948  51.229  1.00  0.00     0.049 A 
HETATM   10  C   UNL     1       4.937  26.462  49.863  1.00  0.00     0.076 C 
HETATM   11  C   UNL     1       4.763  24.801  51.878  1.00  0.00     0.035 A 
HETATM   12  C   UNL     1       5.283  24.882  53.192  1.00  0.00     0.037 A 
ENDBRANCH   6   7
ENDBRANCH   1   6
BRANCH   1  13
HETATM   13  C   UNL     1       5.853  26.894  56.760  1.00  0.00     0.092 C 
HETATM   14  C   UNL     1       7.157  27.054  57.556  1.00  0.00     0.053 C 
HETATM   15  C   UNL     1       8.210  25.978  57.331  1.00  0.00     0.237 C 
HETATM   16  N   UNL     1       7.613  24.589  57.384  1.00  0.00    -0.067 N 
HETATM   17  H   UNL     1       7.375  24.409  58.368  1.00  0.00     0.280 HD
HETATM   18  C   UNL     1       6.356  24.429  56.562  1.00  0.00     0.237 C 
HETATM   19  C   UNL     1       5.326  25.464  56.950  1.00  0.00     0.053 C 
BRANCH  16  20
HETATM   20  C   UNL     1       8.607  23.505  56.991  1.00  0.00     0.273 C 
BRANCH  20  21
HETATM   21  C   UNL     1       8.348  22.855  55.662  1.00  0.00    -0.033 A 
HETATM   22  C   UNL     1       8.514  23.566  54.465  1.00  0.00     0.009 A 
HETATM   23  C   UNL     1       8.269  22.944  53.240  1.00  0.00     0.001 A 
HETATM   24  C   UNL     1       7.852  21.615  53.198  1.00  0.00     0.000 A 
HETATM   25  C   UNL     1       7.681  20.900  54.380  1.00  0.00     0.001 A 
HETATM   26  C   UNL     1       7.928  21.514  55.606  1.00  0.00     0.009 A 
ENDBRANCH  20  21
ENDBRANCH  16  20
ENDBRANCH   1  13
BRANCH   3  27
HETATM   27  C   UNL     1       4.166  29.906  53.174  1.00  0.00     0.069 A 
HETATM   28  C   UNL     1       3.964  31.210  53.645  1.00  0.00     0.095 A 
HETATM   29  C   UNL     1       3.109  32.090  52.963  1.00  0.00     0.039 A 
HETATM   30  C   UNL     1       2.491  31.705  51.777  1.00  0.00     0.003 A 
HETATM   31  C   UNL     1       2.723  30.435  51.266  1.00  0.00     0.002 A 
HETATM   32  C   UNL     1       3.553  29.547  51.956  1.00  0.00     0.032 A 
BRANCH  28  33
HETATM   33  O   UNL     1       4.566  31.724  54.758  1.00  0.00    -0.354 OA
HETATM   34  C   UNL     1       4.666  33.143  54.660  1.00  0.00     0.210 C 
ENDBRANCH  28  33
ENDBRANCH   3  27
TORSDOF 7
ENDMDL
MODEL 4
REMARK VINA RESULT:      -9.4      1.805      4.266
REMARK  7 active torsions:
REMARK  status: ('A' for Active; 'I' for Inactive)
REMARK    1  A    between atoms: C_4  and  C_5 
REMARK    2  A    between atoms: C_5  and  N_6 
REMARK       I    between atoms: N_6  and  C_7 
REMARK    3  A    between atoms: N_6  and  C_18 
REMARK       I    between atoms: C_7  and  N_8 
REMARK    4  A    between atoms: N_8  and  C_9 
REMARK    5  A    between atoms: C_10  and  O_11 
REMARK    6  A    between atoms: N_21  and  C_23 
REMARK    7  A    between atoms: C_23  and  C_24 
ROOT
HETATM    1  N   UNL     1       7.136  29.540  57.623  1.00  0.00    -0.323 N 
HETATM    2  C   UNL     1       7.714  30.142  58.767  1.00  0.00     0.323 C 
HETATM    3  N   UNL     1       6.856  30.873  59.554  1.00  0.00    -0.306 N 
HETATM    4  O   UNL     1       8.907  29.963  58.989  1.00  0.00    -0.247 OA
HETATM    5  H   UNL     1       5.876  30.818  59.354  1.00  0.00     0.171 HD
ENDROOT
BRANCH   1   6
HETATM    6  C   UNL     1       5.692  29.518  57.360  1.00  0.00     0.193 C 
BRANCH   6   7
HETATM    7  C   UNL     1       5.269  30.747  56.650  1.00  0.00     0.071 A 
HETATM    8  O   UNL     1       5.214  31.887  57.400  1.00  0.00    -0.318 OA
HETATM    9  C   UNL     1       4.795  32.888  56.576  1.00  0.00     0.049 A 
HETATM   10  C   UNL     1       4.639  34.230  57.176  1.00  0.00     0.076 C 
HETATM   11  C   UNL     1       4.589  32.401  55.304  1.00  0.00     0.035 A 
HETATM   12  C   UNL     1       4.893  31.020  55.351  1.00  0.00     0.037 A 
ENDBRANCH   6   7
ENDBRANCH   1   6
BRANCH   1  13
HETATM   13  C   UNL     1       8.103  28.924  56.665  1.00  0.00     0.092 C 
HETATM   14  C   UNL     1       7.665  28.687  55.212  1.00  0.00     0.053 C 
HETATM   15  C   UNL     1       6.825  27.441  54.966  1.00  0.00     0.237 C 
HETATM   16  N   UNL     1       7.412  26.225  55.646  1.00  0.00    -0.067 N 
HETATM   17  H   UNL     1       8.263  25.979  55.124  1.00  0.00     0.280 HD
HETATM   18  C   UNL     1       7.799  26.454  57.088  1.00  0.00     0.237 C 
HETATM   19  C   UNL     1       8.733  27.635  57.211  1.00  0.00     0.053 C 
BRANCH  16  20
HETATM   20  C   UNL     1       6.503  25.007  55.561  1.00  0.00     0.273 C 
BRANCH  20  21
HETATM   21  C   UNL     1       7.079  23.832  54.824  1.00  0.00    -0.033 A 
HETATM   22  C   UNL     1       7.438  22.658  55.504  1.00  0.00     0.009 A 
HETATM   23  C   UNL     1       7.971  21.576  54.803  1.00  0.00     0.001 A 
HETATM   24  C   UNL     1       8.156  21.656  53.423  1.00  0.00     0.000 A 
HETATM   25  C   UNL     1       7.807  22.817  52.739  1.00  0.00     0.001 A 
HETATM   26  C   UNL     1       7.271  23.899  53.433  1.00  0.00     0.009 A 
ENDBRANCH  20  21
ENDBRANCH  16  20
ENDBRANCH   1  13
BRANCH   3  27
HETATM   27  C   UNL     1       7.120  31.610  60.740  1.00  0.00     0.069 A 
HETATM   28  C   UNL     1       6.513  32.803  61.156  1.00  0.00     0.095 A 
HETATM   29  C   UNL     1       6.932  33.442  62.333  1.00  0.00     0.039 A 
HETATM   30  C   UNL     1       7.916  32.875  63.139  1.00  0.00     0.003 A 
HETATM   31  C   UNL     1       8.488  31.665  62.771  1.00  0.00     0.002 A 
HETATM   32  C   UNL     1       8.092  31.039  61.585  1.00  0.00     0.032 A 
BRANCH  28  33
HETATM   33  O   UNL     1       5.495  33.418  60.486  1.00  0.00    -0.354 OA
HETATM   34  C   UNL     1       4.233  32.983  60.989  1.00  0.00     0.210 C 
ENDBRANCH  28  33
ENDBRANCH   3  27
TORSDOF 7
ENDMDL
MODEL 5
REMARK VINA RESULT:      -9.4      3.689      8.204
REMARK  7 active torsions:
REMARK  status: ('A' for Active; 'I' for Inactive)
REMARK    1  A    between atoms: C_4  and  C_5 
REMARK    2  A    between atoms: C_5  and  N_6 
REMARK       I    between atoms: N_6  and  C_7 
REMARK    3  A    between atoms: N_6  and  C_18 
REMARK       I    between atoms: C_7  and  N_8 
REMARK    4  A    between atoms: N_8  and  C_9 
REMARK    5  A    between atoms: C_10  and  O_11 
REMARK    6  A    between atoms: N_21  and  C_23 
REMARK    7  A    between atoms: C_23  and  C_24 
ROOT
HETATM    1  N   UNL     1       6.002  27.614  54.887  1.00  0.00    -0.323 N 
HETATM    2  C   UNL     1       5.253  27.728  53.691  1.00  0.00     0.323 C 
HETATM    3  N   UNL     1       5.945  27.480  52.528  1.00  0.00    -0.306 N 
HETATM    4  O   UNL     1       4.062  28.013  53.763  1.00  0.00    -0.247 OA
HETATM    5  H   UNL     1       6.872  27.106  52.607  1.00  0.00     0.171 HD
ENDROOT
BRANCH   1   6
HETATM    6  C   UNL     1       7.372  27.092  54.941  1.00  0.00     0.193 C 
BRANCH   6   7
HETATM    7  C   UNL     1       7.370  25.610  54.931  1.00  0.00     0.071 A 
HETATM    8  O   UNL     1       7.657  25.016  53.736  1.00  0.00    -0.318 OA
HETATM    9  C   UNL     1       7.590  23.669  53.933  1.00  0.00     0.049 A 
HETATM   10  C   UNL     1       7.848  22.806  52.761  1.00  0.00     0.076 C 
HETATM   11  C   UNL     1       7.270  23.397  55.245  1.00  0.00     0.035 A 
HETATM   12  C   UNL     1       7.126  24.648  55.889  1.00  0.00     0.037 A 
ENDBRANCH   6   7
ENDBRANCH   1   6
BRANCH   1  13
HETATM   13  C   UNL     1       5.307  28.083  56.124  1.00  0.00     0.092 C 
HETATM   14  C   UNL     1       5.087  29.589  56.331  1.00  0.00     0.053 C 
HETATM   15  C   UNL     1       6.281  30.369  56.861  1.00  0.00     0.237 C 
HETATM   16  N   UNL     1       6.934  29.668  58.031  1.00  0.00    -0.067 N 
HETATM   17  H   UNL     1       6.289  29.759  58.826  1.00  0.00     0.280 HD
HETATM   18  C   UNL     1       7.189  28.197  57.802  1.00  0.00     0.237 C 
HETATM   19  C   UNL     1       5.915  27.489  57.402  1.00  0.00     0.053 C 
BRANCH  16  20
HETATM   20  C   UNL     1       8.231  30.336  58.468  1.00  0.00     0.273 C 
BRANCH  20  21
HETATM   21  C   UNL     1       8.190  30.982  59.823  1.00  0.00    -0.033 A 
HETATM   22  C   UNL     1       9.132  30.653  60.809  1.00  0.00     0.009 A 
HETATM   23  C   UNL     1       9.079  31.264  62.063  1.00  0.00     0.001 A 
HETATM   24  C   UNL     1       8.086  32.202  62.345  1.00  0.00     0.000 A 
HETATM   25  C   UNL     1       7.145  32.534  61.375  1.00  0.00     0.001 A 
HETATM   26  C   UNL     1       7.195  31.930  60.120  1.00  0.00     0.009 A 
ENDBRANCH  20  21
ENDBRANCH  16  20
ENDBRANCH   1  13
BRANCH   3  27
HETATM   27  C   UNL     1       5.500  27.531  51.181  1.00  0.00     0.069 A 
HETATM   28  C   UNL     1       5.480  28.644  50.329  1.00  0.00     0.095 A 
HETATM   29  C   UNL     1       4.949  28.542  49.034  1.00  0.00     0.039 A 
HETATM   30  C   UNL     1       4.486  27.322  48.550  1.00  0.00     0.003 A 
HETATM   31  C   UNL     1       4.549  26.195  49.360  1.00  0.00     0.002 A 
HETATM   32  C   UNL     1       5.053  26.300  50.660  1.00  0.00     0.032 A 
BRANCH  28  33
HETATM   33  O   UNL     1       5.966  29.875  50.667  1.00  0.00    -0.354 OA
HETATM   34  C   UNL     1       4.901  30.818  50.773  1.00  0.00     0.210 C 
ENDBRANCH  28  33
ENDBRANCH   3  27
TORSDOF 7
ENDMDL
MODEL 6
REMARK VINA RESULT:      -9.3      0.815      1.931
REMARK  7 active torsions:
REMARK  status: ('A' for Active; 'I' for Inactive)
REMARK    1  A    between atoms: C_4  and  C_5 
REMARK    2  A    between atoms: C_5  and  N_6 
REMARK       I    between atoms: N_6  and  C_7 
REMARK    3  A    between atoms: N_6  and  C_18 
REMARK       I    between atoms: C_7  and  N_8 
REMARK    4  A    between atoms: N_8  and  C_9 
REMARK    5  A    between atoms: C_10  and  O_11 
REMARK    6  A    between atoms: N_21  and  C_23 
REMARK    7  A    between atoms: C_23  and  C_24 
ROOT
HETATM    1  N   UNL     1       6.961  28.289  56.656  1.00  0.00    -0.323 N 
HETATM    2  C   UNL     1       5.878  29.164  56.914  1.00  0.00     0.323 C 
HETATM    3  N   UNL     1       6.011  30.440  56.416  1.00  0.00    -0.306 N 
HETATM    4  O   UNL     1       4.907  28.738  57.531  1.00  0.00    -0.247 OA
HETATM    5  H   UNL     1       6.778  30.623  55.798  1.00  0.00     0.171 HD
ENDROOT
BRANCH   1   6
HETATM    6  C   UNL     1       8.080  28.622  55.767  1.00  0.00     0.193 C 
BRANCH   6   7
HETATM    7  C   UNL     1       9.140  29.346  56.506  1.00  0.00     0.071 A 
HETATM    8  O   UNL     1       8.723  30.130  57.543  1.00  0.00    -0.318 OA
HETATM    9  C   UNL     1       9.834  30.713  58.076  1.00  0.00     0.049 A 
HETATM   10  C   UNL     1       9.628  31.634  59.213  1.00  0.00     0.076 C 
HETATM   11  C   UNL     1      10.958  30.303  57.394  1.00  0.00     0.035 A 
HETATM   12  C   UNL     1      10.512  29.422  56.380  1.00  0.00     0.037 A 
ENDBRANCH   6   7
ENDBRANCH   1   6
BRANCH   1  13
HETATM   13  C   UNL     1       6.908  26.977  57.369  1.00  0.00     0.092 C 
HETATM   14  C   UNL     1       8.118  26.035  57.288  1.00  0.00     0.053 C 
HETATM   15  C   UNL     1       8.224  25.196  56.022  1.00  0.00     0.237 C 
HETATM   16  N   UNL     1       6.905  24.549  55.667  1.00  0.00    -0.067 N 
HETATM   17  H   UNL     1       6.742  23.810  56.363  1.00  0.00     0.280 HD
HETATM   18  C   UNL     1       5.726  25.493  55.705  1.00  0.00     0.237 C 
HETATM   19  C   UNL     1       5.635  26.182  57.047  1.00  0.00     0.053 C 
BRANCH  16  20
HETATM   20  C   UNL     1       6.938  23.848  54.315  1.00  0.00     0.273 C 
BRANCH  20  21
HETATM   21  C   UNL     1       7.552  22.478  54.322  1.00  0.00    -0.033 A 
HETATM   22  C   UNL     1       7.704  21.761  55.517  1.00  0.00     0.009 A 
HETATM   23  C   UNL     1       8.277  20.488  55.504  1.00  0.00     0.001 A 
HETATM   24  C   UNL     1       8.706  19.924  54.304  1.00  0.00     0.000 A 
HETATM   25  C   UNL     1       8.563  20.628  53.112  1.00  0.00     0.001 A 
HETATM   26  C   UNL     1       7.989  21.897  53.118  1.00  0.00     0.009 A 
ENDBRANCH  20  21
ENDBRANCH  16  20
ENDBRANCH   1  13
BRANCH   3  27
HETATM   27  C   UNL     1       5.130  31.549  56.519  1.00  0.00     0.069 A 
HETATM   28  C   UNL     1       4.055  31.867  55.678  1.00  0.00     0.095 A 
HETATM   29  C   UNL     1       3.313  33.040  55.881  1.00  0.00     0.039 A 
HETATM   30  C   UNL     1       3.591  33.880  56.955  1.00  0.00     0.003 A 
HETATM   31  C   UNL     1       4.617  33.553  57.832  1.00  0.00     0.002 A 
HETATM   32  C   UNL     1       5.376  32.398  57.617  1.00  0.00     0.032 A 
BRANCH  28  33
HETATM   33  O   UNL     1       3.645  31.088  54.633  1.00  0.00    -0.354 OA
HETATM   34  C   UNL     1       3.197  31.902  53.551  1.00  0.00     0.210 C 
ENDBRANCH  28  33
ENDBRANCH   3  27
TORSDOF 7
ENDMDL
MODEL 7
REMARK VINA RESULT:      -9.3      1.195      1.648
REMARK  7 active torsions:
REMARK  status: ('A' for Active; 'I' for Inactive)
REMARK    1  A    between atoms: C_4  and  C_5 
REMARK    2  A    between atoms: C_5  and  N_6 
REMARK       I    between atoms: N_6  and  C_7 
REMARK    3  A    between atoms: N_6  and  C_18 
REMARK       I    between atoms: C_7  and  N_8 
REMARK    4  A    between atoms: N_8  and  C_9 
REMARK    5  A    between atoms: C_10  and  O_11 
REMARK    6  A    between atoms: N_21  and  C_23 
REMARK    7  A    between atoms: C_23  and  C_24 
ROOT
HETATM    1  N   UNL     1       6.059  28.237  57.156  1.00  0.00    -0.323 N 
HETATM    2  C   UNL     1       5.425  29.502  57.162  1.00  0.00     0.323 C 
HETATM    3  N   UNL     1       5.893  30.400  58.094  1.00  0.00    -0.306 N 
HETATM    4  O   UNL     1       4.534  29.722  56.347  1.00  0.00    -0.247 OA
HETATM    5  H   UNL     1       6.725  30.158  58.598  1.00  0.00     0.171 HD
ENDROOT
BRANCH   1   6
HETATM    6  C   UNL     1       7.258  27.926  57.943  1.00  0.00     0.193 C 
BRANCH   6   7
HETATM    7  C   UNL     1       8.369  28.841  57.591  1.00  0.00     0.071 A 
HETATM    8  O   UNL     1       8.639  29.832  58.491  1.00  0.00    -0.318 OA
HETATM    9  C   UNL     1       9.670  30.564  57.982  1.00  0.00     0.049 A 
HETATM   10  C   UNL     1      10.131  31.719  58.780  1.00  0.00     0.076 C 
HETATM   11  C   UNL     1      10.066  30.045  56.769  1.00  0.00     0.035 A 
HETATM   12  C   UNL     1       9.227  28.934  56.516  1.00  0.00     0.037 A 
ENDBRANCH   6   7
ENDBRANCH   1   6
BRANCH   1  13
HETATM   13  C   UNL     1       5.415  27.202  56.292  1.00  0.00     0.092 C 
HETATM   14  C   UNL     1       5.109  25.820  56.886  1.00  0.00     0.053 C 
HETATM   15  C   UNL     1       6.280  24.850  56.952  1.00  0.00     0.237 C 
HETATM   16  N   UNL     1       7.051  24.812  55.652  1.00  0.00    -0.067 N 
HETATM   17  H   UNL     1       6.453  24.330  54.969  1.00  0.00     0.280 HD
HETATM   18  C   UNL     1       7.388  26.176  55.098  1.00  0.00     0.237 C 
HETATM   19  C   UNL     1       6.141  27.018  54.952  1.00  0.00     0.053 C 
BRANCH  16  20
HETATM   20  C   UNL     1       8.326  23.985  55.748  1.00  0.00     0.273 C 
BRANCH  20  21
HETATM   21  C   UNL     1       8.322  22.713  54.949  1.00  0.00    -0.033 A 
HETATM   22  C   UNL     1       7.980  22.716  53.589  1.00  0.00     0.009 A 
HETATM   23  C   UNL     1       7.982  21.525  52.862  1.00  0.00     0.001 A 
HETATM   24  C   UNL     1       8.319  20.324  53.484  1.00  0.00     0.000 A 
HETATM   25  C   UNL     1       8.657  20.308  54.834  1.00  0.00     0.001 A 
HETATM   26  C   UNL     1       8.660  21.495  55.563  1.00  0.00     0.009 A 
ENDBRANCH  20  21
ENDBRANCH  16  20
ENDBRANCH   1  13
BRANCH   3  27
HETATM   27  C   UNL     1       5.464  31.724  58.372  1.00  0.00     0.069 A 
HETATM   28  C   UNL     1       5.480  32.386  59.607  1.00  0.00     0.095 A 
HETATM   29  C   UNL     1       4.960  33.684  59.728  1.00  0.00     0.039 A 
HETATM   30  C   UNL     1       4.472  34.361  58.614  1.00  0.00     0.003 A 
HETATM   31  C   UNL     1       4.499  33.742  57.371  1.00  0.00     0.002 A 
HETATM   32  C   UNL     1       4.992  32.439  57.252  1.00  0.00     0.032 A 
BRANCH  28  33
HETATM   33  O   UNL     1       5.992  31.851  60.755  1.00  0.00    -0.354 OA
HETATM   34  C   UNL     1       7.247  32.454  61.068  1.00  0.00     0.210 C 
ENDBRANCH  28  33
ENDBRANCH   3  27
TORSDOF 7
ENDMDL
MODEL 8
REMARK VINA RESULT:      -9.3      2.228      3.327
REMARK  7 active torsions:
REMARK  status: ('A' for Active; 'I' for Inactive)
REMARK    1  A    between atoms: C_4  and  C_5 
REMARK    2  A    between atoms: C_5  and  N_6 
REMARK       I    between atoms: N_6  and  C_7 
REMARK    3  A    between atoms: N_6  and  C_18 
REMARK       I    between atoms: C_7  and  N_8 
REMARK    4  A    between atoms: N_8  and  C_9 
REMARK    5  A    between atoms: C_10  and  O_11 
REMARK    6  A    between atoms: N_21  and  C_23 
REMARK    7  A    between atoms: C_23  and  C_24 
ROOT
HETATM    1  N   UNL     1       5.789  27.683  53.509  1.00  0.00    -0.323 N 
HETATM    2  C   UNL     1       4.846  28.632  53.972  1.00  0.00     0.323 C 
HETATM    3  N   UNL     1       5.354  29.647  54.749  1.00  0.00    -0.306 N 
HETATM    4  O   UNL     1       3.670  28.505  53.646  1.00  0.00    -0.247 OA
HETATM    5  H   UNL     1       6.350  29.730  54.817  1.00  0.00     0.171 HD
ENDROOT
BRANCH   1   6
HETATM    6  C   UNL     1       7.240  27.837  53.667  1.00  0.00     0.193 C 
BRANCH   6   7
HETATM    7  C   UNL     1       7.625  27.747  55.095  1.00  0.00     0.071 A 
HETATM    8  O   UNL     1       8.176  28.870  55.641  1.00  0.00    -0.318 OA
HETATM    9  C   UNL     1       8.470  28.579  56.940  1.00  0.00     0.049 A 
HETATM   10  C   UNL     1       9.102  29.649  57.741  1.00  0.00     0.076 C 
HETATM   11  C   UNL     1       8.106  27.283  57.230  1.00  0.00     0.035 A 
HETATM   12  C   UNL     1       7.561  26.745  56.041  1.00  0.00     0.037 A 
ENDBRANCH   6   7
ENDBRANCH   1   6
BRANCH   1  13
HETATM   13  C   UNL     1       5.211  26.477  52.844  1.00  0.00     0.092 C 
HETATM   14  C   UNL     1       4.933  25.223  53.687  1.00  0.00     0.053 C 
HETATM   15  C   UNL     1       6.135  24.332  53.969  1.00  0.00     0.237 C 
HETATM   16  N   UNL     1       6.950  24.077  52.721  1.00  0.00    -0.067 N 
HETATM   17  H   UNL     1       6.392  23.449  52.128  1.00  0.00     0.280 HD
HETATM   18  C   UNL     1       7.257  25.322  51.922  1.00  0.00     0.237 C 
HETATM   19  C   UNL     1       5.987  26.068  51.584  1.00  0.00     0.053 C 
BRANCH  16  20
HETATM   20  C   UNL     1       8.249  23.336  53.007  1.00  0.00     0.273 C 
BRANCH  20  21
HETATM   21  C   UNL     1       8.223  22.447  54.216  1.00  0.00    -0.033 A 
HETATM   22  C   UNL     1       7.858  21.097  54.113  1.00  0.00     0.009 A 
HETATM   23  C   UNL     1       7.840  20.285  55.248  1.00  0.00     0.001 A 
HETATM   24  C   UNL     1       8.179  20.812  56.493  1.00  0.00     0.000 A 
HETATM   25  C   UNL     1       8.539  22.151  56.609  1.00  0.00     0.001 A 
HETATM   26  C   UNL     1       8.563  22.966  55.478  1.00  0.00     0.009 A 
ENDBRANCH  20  21
ENDBRANCH  16  20
ENDBRANCH   1  13
BRANCH   3  27
HETATM   27  C   UNL     1       4.682  30.728  55.379  1.00  0.00     0.069 A 
HETATM   28  C   UNL     1       4.202  31.901  54.780  1.00  0.00     0.095 A 
HETATM   29  C   UNL     1       3.610  32.908  55.558  1.00  0.00     0.039 A 
HETATM   30  C   UNL     1       3.434  32.738  56.928  1.00  0.00     0.003 A 
HETATM   31  C   UNL     1       3.853  31.558  57.530  1.00  0.00     0.002 A 
HETATM   32  C   UNL     1       4.468  30.564  56.762  1.00  0.00     0.032 A 
BRANCH  28  33
HETATM   33  O   UNL     1       4.258  32.153  53.439  1.00  0.00    -0.354 OA
HETATM   34  C   UNL     1       2.997  31.882  52.829  1.00  0.00     0.210 C 
ENDBRANCH  28  33
ENDBRANCH   3  27
TORSDOF 7
ENDMDL
MODEL 9
REMARK VINA RESULT:      -9.1      2.864      9.130
REMARK  7 active torsions:
REMARK  status: ('A' for Active; 'I' for Inactive)
REMARK    1  A    between atoms: C_4  and  C_5 
REMARK    2  A    between atoms: C_5  and  N_6 
REMARK       I    between atoms: N_6  and  C_7 
REMARK    3  A    between atoms: N_6  and  C_18 
REMARK       I    between atoms: C_7  and  N_8 
REMARK    4  A    between atoms: N_8  and  C_9 
REMARK    5  A    between atoms: C_10  and  O_11 
REMARK    6  A    between atoms: N_21  and  C_23 
REMARK    7  A    between atoms: C_23  and  C_24 
ROOT
HETATM    1  N   UNL     1       6.881  26.438  55.070  1.00  0.00    -0.323 N 
HETATM    2  C   UNL     1       7.016  25.048  55.303  1.00  0.00     0.323 C 
HETATM    3  N   UNL     1       7.691  24.344  54.333  1.00  0.00    -0.306 N 
HETATM    4  O   UNL     1       6.553  24.574  56.335  1.00  0.00    -0.247 OA
HETATM    5  H   UNL     1       8.156  24.865  53.615  1.00  0.00     0.171 HD
ENDROOT
BRANCH   1   6
HETATM    6  C   UNL     1       7.559  27.147  53.978  1.00  0.00     0.193 C 
BRANCH   6   7
HETATM    7  C   UNL     1       6.640  27.349  52.833  1.00  0.00     0.071 A 
HETATM    8  O   UNL     1       6.410  28.645  52.468  1.00  0.00    -0.318 OA
HETATM    9  C   UNL     1       5.539  28.616  51.420  1.00  0.00     0.049 A 
HETATM   10  C   UNL     1       5.121  29.918  50.860  1.00  0.00     0.076 C 
HETATM   11  C   UNL     1       5.217  27.314  51.107  1.00  0.00     0.035 A 
HETATM   12  C   UNL     1       5.926  26.496  52.018  1.00  0.00     0.037 A 
ENDBRANCH   6   7
ENDBRANCH   1   6
BRANCH   1  13
HETATM   13  C   UNL     1       5.975  27.161  56.013  1.00  0.00     0.092 C 
HETATM   14  C   UNL     1       5.622  28.628  55.730  1.00  0.00     0.053 C 
HETATM   15  C   UNL     1       6.665  29.655  56.148  1.00  0.00     0.237 C 
HETATM   16  N   UNL     1       7.179  29.396  57.546  1.00  0.00    -0.067 N 
HETATM   17  H   UNL     1       6.415  29.638  58.190  1.00  0.00     0.280 HD
HETATM   18  C   UNL     1       7.567  27.958  57.802  1.00  0.00     0.237 C 
HETATM   19  C   UNL     1       6.421  27.028  57.476  1.00  0.00     0.053 C 
BRANCH  16  20
HETATM   20  C   UNL     1       8.345  30.301  57.923  1.00  0.00     0.273 C 
BRANCH  20  21
HETATM   21  C   UNL     1       8.166  31.073  59.198  1.00  0.00    -0.033 A 
HETATM   22  C   UNL     1       6.969  31.751  59.470  1.00  0.00     0.009 A 
HETATM   23  C   UNL     1       6.820  32.463  60.661  1.00  0.00     0.001 A 
HETATM   24  C   UNL     1       7.863  32.511  61.585  1.00  0.00     0.000 A 
HETATM   25  C   UNL     1       9.057  31.845  61.324  1.00  0.00     0.001 A 
HETATM   26  C   UNL     1       9.210  31.129  60.138  1.00  0.00     0.009 A 
ENDBRANCH  20  21
ENDBRANCH  16  20
ENDBRANCH   1  13
BRANCH   3  27
HETATM   27  C   UNL     1       7.974  22.954  54.254  1.00  0.00     0.069 A 
HETATM   28  C   UNL     1       8.462  22.123  55.272  1.00  0.00     0.095 A 
HETATM   29  C   UNL     1       8.748  20.773  55.015  1.00  0.00     0.039 A 
HETATM   30  C   UNL     1       8.499  20.220  53.762  1.00  0.00     0.003 A 
HETATM   31  C   UNL     1       7.964  21.015  52.757  1.00  0.00     0.002 A 
HETATM   32  C   UNL     1       7.702  22.366  53.003  1.00  0.00     0.032 A 
BRANCH  28  33
HETATM   33  O   UNL     1       8.683  22.534  56.555  1.00  0.00    -0.354 OA
HETATM   34  C   UNL     1       8.350  21.495  57.475  1.00  0.00     0.210 C 
ENDBRANCH  28  33
ENDBRANCH   3  27
TORSDOF 7
ENDMDL
MODEL 10
REMARK VINA RESULT:      -8.9      1.637      4.033
REMARK  7 active torsions:
REMARK  status: ('A' for Active; 'I' for Inactive)
REMARK    1  A    between atoms: C_4  and  C_5 
REMARK    2  A    between atoms: C_5  and  N_6 
REMARK       I    between atoms: N_6  and  C_7 
REMARK    3  A    between atoms: N_6  and  C_18 
REMARK       I    between atoms: C_7  and  N_8 
REMARK    4  A    between atoms: N_8  and  C_9 
REMARK    5  A    between atoms: C_10  and  O_11 
REMARK    6  A    between atoms: N_21  and  C_23 
REMARK    7  A    between atoms: C_23  and  C_24 
ROOT
HETATM    1  N   UNL     1       6.801  29.202  57.396  1.00  0.00    -0.323 N 
HETATM    2  C   UNL     1       7.242  30.161  58.340  1.00  0.00     0.323 C 
HETATM    3  N   UNL     1       6.249  30.831  59.017  1.00  0.00    -0.306 N 
HETATM    4  O   UNL     1       8.447  30.318  58.505  1.00  0.00    -0.247 OA
HETATM    5  H   UNL     1       5.307  30.507  58.908  1.00  0.00     0.171 HD
ENDROOT
BRANCH   1   6
HETATM    6  C   UNL     1       5.400  28.788  57.254  1.00  0.00     0.193 C 
BRANCH   6   7
HETATM    7  C   UNL     1       4.656  29.740  56.397  1.00  0.00     0.071 A 
HETATM    8  O   UNL     1       4.315  30.930  56.974  1.00  0.00    -0.318 OA
HETATM    9  C   UNL     1       3.633  31.648  56.038  1.00  0.00     0.049 A 
HETATM   10  C   UNL     1       3.139  32.980  56.444  1.00  0.00     0.076 C 
HETATM   11  C   UNL     1       3.541  30.932  54.865  1.00  0.00     0.035 A 
HETATM   12  C   UNL     1       4.199  29.700  55.095  1.00  0.00     0.037 A 
ENDBRANCH   6   7
ENDBRANCH   1   6
BRANCH   1  13
HETATM   13  C   UNL     1       7.866  28.628  56.520  1.00  0.00     0.092 C 
HETATM   14  C   UNL     1       7.596  28.481  55.016  1.00  0.00     0.053 C 
HETATM   15  C   UNL     1       6.781  27.263  54.603  1.00  0.00     0.237 C 
HETATM   16  N   UNL     1       7.278  26.002  55.274  1.00  0.00    -0.067 N 
HETATM   17  H   UNL     1       8.182  25.774  54.839  1.00  0.00     0.280 HD
HETATM   18  C   UNL     1       7.499  26.143  56.762  1.00  0.00     0.237 C 
HETATM   19  C   UNL     1       8.422  27.302  57.059  1.00  0.00     0.053 C 
BRANCH  16  20
HETATM   20  C   UNL     1       6.377  24.803  55.016  1.00  0.00     0.273 C 
BRANCH  20  21
HETATM   21  C   UNL     1       7.091  23.539  54.632  1.00  0.00    -0.033 A 
HETATM   22  C   UNL     1       7.453  22.591  55.601  1.00  0.00     0.009 A 
HETATM   23  C   UNL     1       8.116  21.422  55.226  1.00  0.00     0.001 A 
HETATM   24  C   UNL     1       8.428  21.190  53.888  1.00  0.00     0.000 A 
HETATM   25  C   UNL     1       8.076  22.125  52.918  1.00  0.00     0.001 A 
HETATM   26  C   UNL     1       7.411  23.293  53.286  1.00  0.00     0.009 A 
ENDBRANCH  20  21
ENDBRANCH  16  20
ENDBRANCH   1  13
BRANCH   3  27
HETATM   27  C   UNL     1       6.353  31.854  59.997  1.00  0.00     0.069 A 
HETATM   28  C   UNL     1       7.249  31.919  61.073  1.00  0.00     0.095 A 
HETATM   29  C   UNL     1       7.182  32.976  61.994  1.00  0.00     0.039 A 
HETATM   30  C   UNL     1       6.265  34.009  61.825  1.00  0.00     0.003 A 
HETATM   31  C   UNL     1       5.406  33.991  60.734  1.00  0.00     0.002 A 
HETATM   32  C   UNL     1       5.452  32.926  59.829  1.00  0.00     0.032 A 
BRANCH  28  33
HETATM   33  O   UNL     1       8.233  31.001  61.305  1.00  0.00    -0.354 OA
HETATM   34  C   UNL     1       9.458  31.656  61.629  1.00  0.00     0.210 C 
ENDBRANCH  28  33
ENDBRANCH   3  27
TORSDOF 7
ENDMDL
