MODEL 1
REMARK VINA RESULT:     -10.5      0.000      0.000
REMARK  8 active torsions:
REMARK  status: ('A' for Active; 'I' for Inactive)
REMARK    1  A    between atoms: O_2  and  C_3 
REMARK    2  A    between atoms: C_7  and  C_8 
REMARK       I    between atoms: C_8  and  N_9 
REMARK    3  A    between atoms: N_9  and  C_10 
REMARK    4  A    between atoms: C_10  and  N_11 
REMARK    5  A    between atoms: N_11  and  C_12 
REMARK    6  A    between atoms: C_15  and  N_16 
REMARK    7  A    between atoms: N_19  and  C_21 
REMARK    8  A    between atoms: C_21  and  C_22 
ROOT
HETATM    1  C   UNL     1       6.177  31.108  58.329  1.00  0.00     0.034 A 
HETATM    2  C   UNL     1       7.398  30.496  58.610  1.00  0.00     0.032 A 
HETATM    3  C   UNL     1       7.618  29.164  58.249  1.00  0.00     0.031 A 
HETATM    4  C   UNL     1       6.631  28.406  57.600  1.00  0.00     0.030 A 
HETATM    5  C   UNL     1       5.414  29.036  57.311  1.00  0.00     0.031 A 
HETATM    6  C   UNL     1       5.191  30.380  57.662  1.00  0.00     0.032 A 
ENDROOT
BRANCH   1   7
HETATM    7  N   UNL     1       6.006  32.450  58.745  1.00  0.00    -0.333 N 
HETATM    8  H   UNL     1       6.871  32.979  58.752  1.00  0.00     0.168 HD
BRANCH   7   9
HETATM    9  C   UNL     1       5.120  32.845  59.701  1.00  0.00     0.179 C 
HETATM   10  S   UNL     1       3.493  32.472  59.604  1.00  0.00    -0.040 SA
BRANCH   9  11
HETATM   11  N   UNL     1       5.611  33.344  60.882  1.00  0.00    -0.299 N 
HETATM   12  C   UNL     1       6.204  32.645  61.927  1.00  0.00     0.257 C 
HETATM   13  O   UNL     1       6.859  31.618  61.778  1.00  0.00    -0.267 OA
HETATM   14  H   UNL     1       5.292  34.285  61.041  1.00  0.00     0.171 HD
BRANCH  12  15
HETATM   15  C   UNL     1       6.074  33.221  63.307  1.00  0.00     0.034 A 
HETATM   16  C   UNL     1       4.908  33.805  63.818  1.00  0.00     0.044 A 
HETATM   17  C   UNL     1       4.852  34.284  65.145  1.00  0.00     0.068 A 
HETATM   18  C   UNL     1       5.968  34.178  65.985  1.00  0.00     0.089 A 
HETATM   19 CL   UNL     1       3.346  35.011  65.587  1.00  0.00    -0.081 Cl
HETATM   20  C   UNL     1       7.135  33.608  65.458  1.00  0.00     0.039 A 
HETATM   21  C   UNL     1       7.191  33.137  64.143  1.00  0.00     0.020 A 
BRANCH  18  22
HETATM   22  O   UNL     1       6.150  34.568  67.280  1.00  0.00    -0.354 OA
HETATM   23  C   UNL     1       5.310  34.080  68.311  1.00  0.00     0.210 C 
ENDBRANCH  18  22
ENDBRANCH  12  15
ENDBRANCH   9  11
ENDBRANCH   7   9
ENDBRANCH   1   7
BRANCH   4  24
HETATM   24  N   UNL     1       6.923  27.075  57.281  1.00  0.00    -0.378 N 
HETATM   25  C   UNL     1       6.112  26.406  56.253  1.00  0.00     0.150 C 
HETATM   26  C   UNL     1       6.300  24.875  56.385  1.00  0.00     0.255 C 
HETATM   27  N   UNL     1       7.781  24.485  56.313  1.00  0.00    -0.064 N 
HETATM   28  H   UNL     1       8.108  24.700  55.361  1.00  0.00     0.280 HD
HETATM   29  C   UNL     1       8.629  25.302  57.293  1.00  0.00     0.255 C 
HETATM   30  C   UNL     1       8.370  26.816  57.158  1.00  0.00     0.150 C 
BRANCH  27  31
HETATM   31  C   UNL     1       8.014  23.009  56.539  1.00  0.00     0.276 C 
BRANCH  31  32
HETATM   32  C   UNL     1       8.161  22.186  55.295  1.00  0.00     0.006 A 
HETATM   33  C   UNL     1       8.643  20.876  55.377  1.00  0.00     0.124 A 
HETATM   34  F   UNL     1       9.028  20.401  56.571  1.00  0.00    -0.206 F 
HETATM   35  C   UNL     1       8.747  20.068  54.251  1.00  0.00     0.043 A 
HETATM   36  C   UNL     1       8.365  20.573  53.009  1.00  0.00     0.003 A 
HETATM   37  C   UNL     1       7.887  21.879  52.904  1.00  0.00     0.001 A 
HETATM   38  C   UNL     1       7.782  22.684  54.041  1.00  0.00     0.012 A 
ENDBRANCH  31  32
ENDBRANCH  27  31
ENDBRANCH   4  24
TORSDOF 8
ENDMDL
MODEL 2
REMARK VINA RESULT:     -10.1      1.854      2.161
REMARK  8 active torsions:
REMARK  status: ('A' for Active; 'I' for Inactive)
REMARK    1  A    between atoms: O_2  and  C_3 
REMARK    2  A    between atoms: C_7  and  C_8 
REMARK       I    between atoms: C_8  and  N_9 
REMARK    3  A    between atoms: N_9  and  C_10 
REMARK    4  A    between atoms: C_10  and  N_11 
REMARK    5  A    between atoms: N_11  and  C_12 
REMARK    6  A    between atoms: C_15  and  N_16 
REMARK    7  A    between atoms: N_19  and  C_21 
REMARK    8  A    between atoms: C_21  and  C_22 
ROOT
HETATM    1  C   UNL     1       7.354  31.069  58.984  1.00  0.00     0.034 A 
HETATM    2  C   UNL     1       8.437  30.218  58.769  1.00  0.00     0.032 A 
HETATM    3  C   UNL     1       8.296  29.090  57.957  1.00  0.00     0.031 A 
HETATM    4  C   UNL     1       7.074  28.778  57.339  1.00  0.00     0.030 A 
HETATM    5  C   UNL     1       5.999  29.648  57.552  1.00  0.00     0.031 A 
HETATM    6  C   UNL     1       6.138  30.791  58.360  1.00  0.00     0.032 A 
ENDROOT
BRANCH   1   7
HETATM    7  N   UNL     1       7.554  32.180  59.838  1.00  0.00    -0.333 N 
HETATM    8  H   UNL     1       7.846  33.016  59.345  1.00  0.00     0.168 HD
BRANCH   7   9
HETATM    9  C   UNL     1       8.059  32.090  61.101  1.00  0.00     0.179 C 
HETATM   10  S   UNL     1       9.701  31.969  61.387  1.00  0.00    -0.040 SA
BRANCH   9  11
HETATM   11  N   UNL     1       7.224  32.349  62.159  1.00  0.00    -0.299 N 
HETATM   12  C   UNL     1       6.478  33.496  62.402  1.00  0.00     0.257 C 
HETATM   13  O   UNL     1       6.018  34.213  61.517  1.00  0.00    -0.267 OA
HETATM   14  H   UNL     1       7.369  31.692  62.908  1.00  0.00     0.171 HD
BRANCH  12  15
HETATM   15  C   UNL     1       6.177  33.838  63.832  1.00  0.00     0.034 A 
HETATM   16  C   UNL     1       4.924  34.247  64.304  1.00  0.00     0.044 A 
HETATM   17  C   UNL     1       4.710  34.509  65.676  1.00  0.00     0.068 A 
HETATM   18  C   UNL     1       5.753  34.355  66.599  1.00  0.00     0.089 A 
HETATM   19 CL   UNL     1       3.113  35.045  66.068  1.00  0.00    -0.081 Cl
HETATM   20  C   UNL     1       7.008  33.962  66.112  1.00  0.00     0.039 A 
HETATM   21  C   UNL     1       7.220  33.707  64.754  1.00  0.00     0.020 A 
BRANCH  18  22
HETATM   22  O   UNL     1       5.786  34.551  67.949  1.00  0.00    -0.354 OA
HETATM   23  C   UNL     1       6.995  34.412  68.674  1.00  0.00     0.210 C 
ENDBRANCH  18  22
ENDBRANCH  12  15
ENDBRANCH   9  11
ENDBRANCH   7   9
ENDBRANCH   1   7
BRANCH   4  24
HETATM   24  N   UNL     1       7.009  27.624  56.550  1.00  0.00    -0.378 N 
HETATM   25  C   UNL     1       7.610  27.656  55.209  1.00  0.00     0.150 C 
HETATM   26  C   UNL     1       7.044  26.480  54.377  1.00  0.00     0.255 C 
HETATM   27  N   UNL     1       7.259  25.138  55.088  1.00  0.00    -0.064 N 
HETATM   28  H   UNL     1       8.273  24.966  55.113  1.00  0.00     0.280 HD
HETATM   29  C   UNL     1       6.756  25.177  56.533  1.00  0.00     0.255 C 
HETATM   30  C   UNL     1       7.307  26.392  57.305  1.00  0.00     0.150 C 
BRANCH  27  31
HETATM   31  C   UNL     1       6.631  23.975  54.354  1.00  0.00     0.276 C 
BRANCH  31  32
HETATM   32  C   UNL     1       7.383  22.682  54.438  1.00  0.00     0.006 A 
HETATM   33  C   UNL     1       8.056  22.191  53.316  1.00  0.00     0.124 A 
HETATM   34  F   UNL     1       7.960  22.862  52.158  1.00  0.00    -0.206 F 
HETATM   35  C   UNL     1       8.804  21.020  53.371  1.00  0.00     0.043 A 
HETATM   36  C   UNL     1       8.883  20.316  54.570  1.00  0.00     0.003 A 
HETATM   37  C   UNL     1       8.214  20.785  55.701  1.00  0.00     0.001 A 
HETATM   38  C   UNL     1       7.469  21.964  55.639  1.00  0.00     0.012 A 
ENDBRANCH  31  32
ENDBRANCH  27  31
ENDBRANCH   4  24
TORSDOF 8
ENDMDL
MODEL 3
REMARK VINA RESULT:     -10.1      5.707     11.931
REMARK  8 active torsions:
REMARK  status: ('A' for Active; 'I' for Inactive)
REMARK    1  A    between atoms: O_2  and  C_3 
REMARK    2  A    between atoms: C_7  and  C_8 
REMARK       I    between atoms: C_8  and  N_9 
REMARK    3  A    between atoms: N_9  and  C_10 
REMARK    4  A    between atoms: C_10  and  N_11 
REMARK    5  A    between atoms: N_11  and  C_12 
REMARK    6  A    between atoms: C_15  and  N_16 
REMARK    7  A    between atoms: N_19  and  C_21 
REMARK    8  A    between atoms: C_21  and  C_22 
ROOT
HETATM    1  C   UNL     1       4.223  28.408  53.894  1.00  0.00     0.034 A 
HETATM    2  C   UNL     1       3.928  29.770  53.894  1.00  0.00     0.032 A 
HETATM    3  C   UNL     1       4.109  30.530  55.053  1.00  0.00     0.031 A 
HETATM    4  C   UNL     1       4.589  29.955  56.240  1.00  0.00     0.030 A 
HETATM    5  C   UNL     1       4.894  28.589  56.222  1.00  0.00     0.031 A 
HETATM    6  C   UNL     1       4.724  27.821  55.056  1.00  0.00     0.032 A 
ENDROOT
BRANCH   1   7
HETATM    7  N   UNL     1       3.992  27.688  52.696  1.00  0.00    -0.333 N 
HETATM    8  H   UNL     1       3.269  26.984  52.787  1.00  0.00     0.168 HD
BRANCH   7   9
HETATM    9  C   UNL     1       4.968  27.353  51.808  1.00  0.00     0.179 C 
HETATM   10  S   UNL     1       5.448  28.393  50.590  1.00  0.00    -0.040 SA
BRANCH   9  11
HETATM   11  N   UNL     1       5.737  26.246  52.069  1.00  0.00    -0.299 N 
HETATM   12  C   UNL     1       5.392  25.115  52.799  1.00  0.00     0.257 C 
HETATM   13  O   UNL     1       4.250  24.670  52.871  1.00  0.00    -0.267 OA
HETATM   14  H   UNL     1       6.708  26.419  51.864  1.00  0.00     0.171 HD
BRANCH  12  15
HETATM   15  C   UNL     1       6.498  24.372  53.490  1.00  0.00     0.034 A 
HETATM   16  C   UNL     1       6.821  24.510  54.846  1.00  0.00     0.044 A 
HETATM   17  C   UNL     1       7.850  23.740  55.434  1.00  0.00     0.068 A 
HETATM   18  C   UNL     1       8.567  22.812  54.668  1.00  0.00     0.089 A 
HETATM   19 CL   UNL     1       8.136  24.075  57.106  1.00  0.00    -0.081 Cl
HETATM   20  C   UNL     1       8.247  22.696  53.308  1.00  0.00     0.039 A 
HETATM   21  C   UNL     1       7.232  23.460  52.726  1.00  0.00     0.020 A 
BRANCH  18  22
HETATM   22  O   UNL     1       9.589  21.974  55.008  1.00  0.00    -0.354 OA
HETATM   23  C   UNL     1       9.341  20.782  55.733  1.00  0.00     0.210 C 
ENDBRANCH  18  22
ENDBRANCH  12  15
ENDBRANCH   9  11
ENDBRANCH   7   9
ENDBRANCH   1   7
BRANCH   4  24
HETATM   24  N   UNL     1       4.732  30.779  57.362  1.00  0.00    -0.378 N 
HETATM   25  C   UNL     1       3.672  30.769  58.380  1.00  0.00     0.150 C 
HETATM   26  C   UNL     1       3.809  32.034  59.261  1.00  0.00     0.255 C 
HETATM   27  N   UNL     1       5.212  32.141  59.871  1.00  0.00    -0.064 N 
HETATM   28  H   UNL     1       5.317  31.359  60.533  1.00  0.00     0.280 HD
HETATM   29  C   UNL     1       6.304  32.001  58.807  1.00  0.00     0.255 C 
HETATM   30  C   UNL     1       6.096  30.755  57.925  1.00  0.00     0.150 C 
BRANCH  27  31
HETATM   31  C   UNL     1       5.418  33.416  60.657  1.00  0.00     0.276 C 
BRANCH  31  32
HETATM   32  C   UNL     1       6.131  33.256  61.965  1.00  0.00     0.006 A 
HETATM   33  C   UNL     1       5.452  33.487  63.164  1.00  0.00     0.124 A 
HETATM   34  F   UNL     1       4.181  33.916  63.117  1.00  0.00    -0.206 F 
HETATM   35  C   UNL     1       6.067  33.301  64.397  1.00  0.00     0.043 A 
HETATM   36  C   UNL     1       7.393  32.876  64.441  1.00  0.00     0.003 A 
HETATM   37  C   UNL     1       8.092  32.645  63.256  1.00  0.00     0.001 A 
HETATM   38  C   UNL     1       7.466  32.830  62.022  1.00  0.00     0.012 A 
ENDBRANCH  31  32
ENDBRANCH  27  31
ENDBRANCH   4  24
TORSDOF 8
ENDMDL
MODEL 4
REMARK VINA RESULT:     -10.1      4.864     12.786
REMARK  8 active torsions:
REMARK  status: ('A' for Active; 'I' for Inactive)
REMARK    1  A    between atoms: O_2  and  C_3 
REMARK    2  A    between atoms: C_7  and  C_8 
REMARK       I    between atoms: C_8  and  N_9 
REMARK    3  A    between atoms: N_9  and  C_10 
REMARK    4  A    between atoms: C_10  and  N_11 
REMARK    5  A    between atoms: N_11  and  C_12 
REMARK    6  A    between atoms: C_15  and  N_16 
REMARK    7  A    between atoms: N_19  and  C_21 
REMARK    8  A    between atoms: C_21  and  C_22 
ROOT
HETATM    1  C   UNL     1       6.878  31.853  59.700  1.00  0.00     0.034 A 
HETATM    2  C   UNL     1       5.799  32.675  60.022  1.00  0.00     0.032 A 
HETATM    3  C   UNL     1       5.616  33.114  61.336  1.00  0.00     0.031 A 
HETATM    4  C   UNL     1       6.501  32.749  62.363  1.00  0.00     0.030 A 
HETATM    5  C   UNL     1       7.588  31.935  62.022  1.00  0.00     0.031 A 
HETATM    6  C   UNL     1       7.784  31.498  60.700  1.00  0.00     0.032 A 
ENDROOT
BRANCH   1   7
HETATM    7  N   UNL     1       6.992  31.420  58.357  1.00  0.00    -0.333 N 
HETATM    8  H   UNL     1       7.495  32.073  57.767  1.00  0.00     0.168 HD
BRANCH   7   9
HETATM    9  C   UNL     1       6.025  30.725  57.696  1.00  0.00     0.179 C 
HETATM   10  S   UNL     1       4.975  31.471  56.629  1.00  0.00    -0.040 SA
BRANCH   9  11
HETATM   11  N   UNL     1       6.072  29.353  57.721  1.00  0.00    -0.299 N 
HETATM   12  C   UNL     1       7.195  28.535  57.761  1.00  0.00     0.257 C 
HETATM   13  O   UNL     1       8.250  28.848  58.305  1.00  0.00    -0.267 OA
HETATM   14  H   UNL     1       5.184  28.952  57.470  1.00  0.00     0.171 HD
BRANCH  12  15
HETATM   15  C   UNL     1       7.080  27.169  57.150  1.00  0.00     0.034 A 
HETATM   16  C   UNL     1       6.339  26.874  55.999  1.00  0.00     0.044 A 
HETATM   17  C   UNL     1       6.317  25.568  55.459  1.00  0.00     0.068 A 
HETATM   18  C   UNL     1       7.047  24.538  56.065  1.00  0.00     0.089 A 
HETATM   19 CL   UNL     1       5.315  25.383  54.061  1.00  0.00    -0.081 Cl
HETATM   20  C   UNL     1       7.770  24.841  57.227  1.00  0.00     0.039 A 
HETATM   21  C   UNL     1       7.789  26.132  57.763  1.00  0.00     0.020 A 
BRANCH  18  22
HETATM   22  O   UNL     1       7.172  23.219  55.735  1.00  0.00    -0.354 OA
HETATM   23  C   UNL     1       8.446  22.651  55.486  1.00  0.00     0.210 C 
ENDBRANCH  18  22
ENDBRANCH  12  15
ENDBRANCH   9  11
ENDBRANCH   7   9
ENDBRANCH   1   7
BRANCH   4  24
HETATM   24  N   UNL     1       6.244  33.220  63.655  1.00  0.00    -0.378 N 
HETATM   25  C   UNL     1       4.922  32.965  64.244  1.00  0.00     0.150 C 
HETATM   26  C   UNL     1       4.710  33.927  65.438  1.00  0.00     0.255 C 
HETATM   27  N   UNL     1       5.845  33.805  66.462  1.00  0.00    -0.064 N 
HETATM   28  H   UNL     1       5.781  32.866  66.878  1.00  0.00     0.280 HD
HETATM   29  C   UNL     1       7.220  33.928  65.800  1.00  0.00     0.255 C 
HETATM   30  C   UNL     1       7.364  32.987  64.587  1.00  0.00     0.150 C 
BRANCH  27  31
HETATM   31  C   UNL     1       5.728  34.800  67.594  1.00  0.00     0.276 C 
BRANCH  31  32
HETATM   32  C   UNL     1       6.518  34.470  68.823  1.00  0.00     0.006 A 
HETATM   33  C   UNL     1       6.088  33.452  69.678  1.00  0.00     0.124 A 
HETATM   34  F   UNL     1       4.930  32.829  69.412  1.00  0.00    -0.206 F 
HETATM   35  C   UNL     1       6.822  33.086  70.801  1.00  0.00     0.043 A 
HETATM   36  C   UNL     1       8.014  33.750  71.085  1.00  0.00     0.003 A 
HETATM   37  C   UNL     1       8.458  34.773  70.248  1.00  0.00     0.001 A 
HETATM   38  C   UNL     1       7.718  35.133  69.119  1.00  0.00     0.012 A 
ENDBRANCH  31  32
ENDBRANCH  27  31
ENDBRANCH   4  24
TORSDOF 8
ENDMDL
MODEL 5
REMARK VINA RESULT:      -9.9      5.092     12.556
REMARK  8 active torsions:
REMARK  status: ('A' for Active; 'I' for Inactive)
REMARK    1  A    between atoms: O_2  and  C_3 
REMARK    2  A    between atoms: C_7  and  C_8 
REMARK       I    between atoms: C_8  and  N_9 
REMARK    3  A    between atoms: N_9  and  C_10 
REMARK    4  A    between atoms: C_10  and  N_11 
REMARK    5  A    between atoms: N_11  and  C_12 
REMARK    6  A    between atoms: C_15  and  N_16 
REMARK    7  A    between atoms: N_19  and  C_21 
REMARK    8  A    between atoms: C_21  and  C_22 
ROOT
HETATM    1  C   UNL     1       6.430  29.748  55.971  1.00  0.00     0.034 A 
HETATM    2  C   UNL     1       5.502  30.781  56.096  1.00  0.00     0.032 A 
HETATM    3  C   UNL     1       5.456  31.550  57.261  1.00  0.00     0.031 A 
HETATM    4  C   UNL     1       6.331  31.313  58.332  1.00  0.00     0.030 A 
HETATM    5  C   UNL     1       7.268  30.282  58.189  1.00  0.00     0.031 A 
HETATM    6  C   UNL     1       7.326  29.512  57.014  1.00  0.00     0.032 A 
ENDROOT
BRANCH   1   7
HETATM    7  N   UNL     1       6.407  28.988  54.777  1.00  0.00    -0.333 N 
HETATM    8  H   UNL     1       6.808  29.476  53.984  1.00  0.00     0.168 HD
BRANCH   7   9
HETATM    9  C   UNL     1       5.402  28.134  54.437  1.00  0.00     0.179 C 
HETATM   10  S   UNL     1       3.980  28.675  53.745  1.00  0.00    -0.040 SA
BRANCH   9  11
HETATM   11  N   UNL     1       5.662  26.785  54.436  1.00  0.00    -0.299 N 
HETATM   12  C   UNL     1       6.240  26.024  55.445  1.00  0.00     0.257 C 
HETATM   13  O   UNL     1       6.126  26.273  56.641  1.00  0.00    -0.267 OA
HETATM   14  H   UNL     1       5.601  26.402  53.507  1.00  0.00     0.171 HD
BRANCH  12  15
HETATM   15  C   UNL     1       7.001  24.796  55.036  1.00  0.00     0.034 A 
HETATM   16  C   UNL     1       7.293  23.723  55.887  1.00  0.00     0.044 A 
HETATM   17  C   UNL     1       7.976  22.580  55.415  1.00  0.00     0.068 A 
HETATM   18  C   UNL     1       8.372  22.495  54.074  1.00  0.00     0.089 A 
HETATM   19 CL   UNL     1       8.286  21.376  56.617  1.00  0.00    -0.081 Cl
HETATM   20  C   UNL     1       8.090  23.583  53.236  1.00  0.00     0.039 A 
HETATM   21  C   UNL     1       7.417  24.714  53.704  1.00  0.00     0.020 A 
BRANCH  18  22
HETATM   22  O   UNL     1       9.037  21.511  53.401  1.00  0.00    -0.354 OA
HETATM   23  C   UNL     1       8.348  20.378  52.903  1.00  0.00     0.210 C 
ENDBRANCH  18  22
ENDBRANCH  12  15
ENDBRANCH   9  11
ENDBRANCH   7   9
ENDBRANCH   1   7
BRANCH   4  24
HETATM   24  N   UNL     1       6.216  32.119  59.471  1.00  0.00    -0.378 N 
HETATM   25  C   UNL     1       4.871  32.424  59.980  1.00  0.00     0.150 C 
HETATM   26  C   UNL     1       4.957  33.648  60.924  1.00  0.00     0.255 C 
HETATM   27  N   UNL     1       5.975  33.416  62.048  1.00  0.00    -0.064 N 
HETATM   28  H   UNL     1       5.605  32.662  62.643  1.00  0.00     0.280 HD
HETATM   29  C   UNL     1       7.328  32.956  61.499  1.00  0.00     0.255 C 
HETATM   30  C   UNL     1       7.185  31.769  60.527  1.00  0.00     0.150 C 
BRANCH  27  31
HETATM   31  C   UNL     1       6.162  34.627  62.933  1.00  0.00     0.276 C 
BRANCH  31  32
HETATM   32  C   UNL     1       5.521  34.539  64.284  1.00  0.00     0.006 A 
HETATM   33  C   UNL     1       6.274  34.136  65.390  1.00  0.00     0.124 A 
HETATM   34  F   UNL     1       7.551  33.770  65.206  1.00  0.00    -0.206 F 
HETATM   35  C   UNL     1       5.724  34.090  66.666  1.00  0.00     0.043 A 
HETATM   36  C   UNL     1       4.391  34.451  66.850  1.00  0.00     0.003 A 
HETATM   37  C   UNL     1       3.620  34.851  65.759  1.00  0.00     0.001 A 
HETATM   38  C   UNL     1       4.180  34.899  64.480  1.00  0.00     0.012 A 
ENDBRANCH  31  32
ENDBRANCH  27  31
ENDBRANCH   4  24
TORSDOF 8
ENDMDL
MODEL 6
REMARK VINA RESULT:      -9.9      2.027      2.432
REMARK  8 active torsions:
REMARK  status: ('A' for Active; 'I' for Inactive)
REMARK    1  A    between atoms: O_2  and  C_3 
REMARK    2  A    between atoms: C_7  and  C_8 
REMARK       I    between atoms: C_8  and  N_9 
REMARK    3  A    between atoms: N_9  and  C_10 
REMARK    4  A    between atoms: C_10  and  N_11 
REMARK    5  A    between atoms: N_11  and  C_12 
REMARK    6  A    between atoms: C_15  and  N_16 
REMARK    7  A    between atoms: N_19  and  C_21 
REMARK    8  A    between atoms: C_21  and  C_22 
ROOT
HETATM    1  C   UNL     1       7.069  30.175  57.812  1.00  0.00     0.034 A 
HETATM    2  C   UNL     1       7.753  29.017  58.181  1.00  0.00     0.032 A 
HETATM    3  C   UNL     1       7.728  27.891  57.355  1.00  0.00     0.031 A 
HETATM    4  C   UNL     1       7.024  27.886  56.141  1.00  0.00     0.030 A 
HETATM    5  C   UNL     1       6.353  29.059  55.776  1.00  0.00     0.031 A 
HETATM    6  C   UNL     1       6.383  30.200  56.598  1.00  0.00     0.032 A 
ENDROOT
BRANCH   1   7
HETATM    7  N   UNL     1       7.110  31.272  58.706  1.00  0.00    -0.333 N 
HETATM    8  H   UNL     1       6.526  32.047  58.414  1.00  0.00     0.168 HD
BRANCH   7   9
HETATM    9  C   UNL     1       8.225  31.659  59.388  1.00  0.00     0.179 C 
HETATM   10  S   UNL     1       9.750  31.570  58.708  1.00  0.00    -0.040 SA
BRANCH   9  11
HETATM   11  N   UNL     1       8.066  32.359  60.558  1.00  0.00    -0.299 N 
HETATM   12  C   UNL     1       8.068  31.868  61.858  1.00  0.00     0.257 C 
HETATM   13  O   UNL     1       8.716  30.890  62.219  1.00  0.00    -0.267 OA
HETATM   14  H   UNL     1       7.706  33.283  60.384  1.00  0.00     0.171 HD
BRANCH  12  15
HETATM   15  C   UNL     1       7.270  32.619  62.883  1.00  0.00     0.034 A 
HETATM   16  C   UNL     1       5.910  32.929  62.761  1.00  0.00     0.044 A 
HETATM   17  C   UNL     1       5.217  33.602  63.793  1.00  0.00     0.068 A 
HETATM   18  C   UNL     1       5.882  33.969  64.970  1.00  0.00     0.089 A 
HETATM   19 CL   UNL     1       3.556  33.936  63.448  1.00  0.00    -0.081 Cl
HETATM   20  C   UNL     1       7.248  33.670  65.074  1.00  0.00     0.039 A 
HETATM   21  C   UNL     1       7.933  33.007  64.052  1.00  0.00     0.020 A 
BRANCH  18  22
HETATM   22  O   UNL     1       5.432  34.619  66.083  1.00  0.00    -0.354 OA
HETATM   23  C   UNL     1       4.311  34.137  66.802  1.00  0.00     0.210 C 
ENDBRANCH  18  22
ENDBRANCH  12  15
ENDBRANCH   9  11
ENDBRANCH   7   9
ENDBRANCH   1   7
BRANCH   4  24
HETATM   24  N   UNL     1       7.037  26.716  55.374  1.00  0.00    -0.378 N 
HETATM   25  C   UNL     1       5.955  25.739  55.566  1.00  0.00     0.150 C 
HETATM   26  C   UNL     1       6.398  24.377  54.978  1.00  0.00     0.255 C 
HETATM   27  N   UNL     1       6.816  24.512  53.509  1.00  0.00    -0.064 N 
HETATM   28  H   UNL     1       5.973  24.758  52.973  1.00  0.00     0.280 HD
HETATM   29  C   UNL     1       7.837  25.637  53.312  1.00  0.00     0.255 C 
HETATM   30  C   UNL     1       7.374  26.957  53.958  1.00  0.00     0.150 C 
BRANCH  27  31
HETATM   31  C   UNL     1       7.351  23.223  52.927  1.00  0.00     0.276 C 
BRANCH  31  32
HETATM   32  C   UNL     1       7.986  22.290  53.913  1.00  0.00     0.006 A 
HETATM   33  C   UNL     1       7.895  20.908  53.725  1.00  0.00     0.124 A 
HETATM   34  F   UNL     1       7.179  20.441  52.691  1.00  0.00    -0.206 F 
HETATM   35  C   UNL     1       8.512  20.014  54.592  1.00  0.00     0.043 A 
HETATM   36  C   UNL     1       9.237  20.503  55.676  1.00  0.00     0.003 A 
HETATM   37  C   UNL     1       9.336  21.878  55.886  1.00  0.00     0.001 A 
HETATM   38  C   UNL     1       8.717  22.771  55.008  1.00  0.00     0.012 A 
ENDBRANCH  31  32
ENDBRANCH  27  31
ENDBRANCH   4  24
TORSDOF 8
ENDMDL
MODEL 7
REMARK VINA RESULT:      -9.8      6.021     12.781
REMARK  8 active torsions:
REMARK  status: ('A' for Active; 'I' for Inactive)
REMARK    1  A    between atoms: O_2  and  C_3 
REMARK    2  A    between atoms: C_7  and  C_8 
REMARK       I    between atoms: C_8  and  N_9 
REMARK    3  A    between atoms: N_9  and  C_10 
REMARK    4  A    between atoms: C_10  and  N_11 
REMARK    5  A    between atoms: N_11  and  C_12 
REMARK    6  A    between atoms: C_15  and  N_16 
REMARK    7  A    between atoms: N_19  and  C_21 
REMARK    8  A    between atoms: C_21  and  C_22 
ROOT
HETATM    1  C   UNL     1       7.809  29.453  55.979  1.00  0.00     0.034 A 
HETATM    2  C   UNL     1       6.561  29.899  56.411  1.00  0.00     0.032 A 
HETATM    3  C   UNL     1       6.414  30.461  57.682  1.00  0.00     0.031 A 
HETATM    4  C   UNL     1       7.505  30.593  58.556  1.00  0.00     0.030 A 
HETATM    5  C   UNL     1       8.755  30.154  58.105  1.00  0.00     0.031 A 
HETATM    6  C   UNL     1       8.910  29.597  56.823  1.00  0.00     0.032 A 
ENDROOT
BRANCH   1   7
HETATM    7  N   UNL     1       7.886  28.868  54.692  1.00  0.00    -0.333 N 
HETATM    8  H   UNL     1       8.064  29.542  53.957  1.00  0.00     0.168 HD
BRANCH   7   9
HETATM    9  C   UNL     1       7.125  27.813  54.288  1.00  0.00     0.179 C 
HETATM   10  S   UNL     1       5.732  28.022  53.388  1.00  0.00    -0.040 SA
BRANCH   9  11
HETATM   11  N   UNL     1       7.642  26.547  54.414  1.00  0.00    -0.299 N 
HETATM   12  C   UNL     1       7.690  25.542  53.456  1.00  0.00     0.257 C 
HETATM   13  O   UNL     1       7.784  25.750  52.249  1.00  0.00    -0.267 OA
HETATM   14  H   UNL     1       7.798  26.310  55.380  1.00  0.00     0.171 HD
BRANCH  12  15
HETATM   15  C   UNL     1       7.681  24.121  53.941  1.00  0.00     0.034 A 
HETATM   16  C   UNL     1       7.970  23.008  53.143  1.00  0.00     0.044 A 
HETATM   17  C   UNL     1       7.984  21.703  53.686  1.00  0.00     0.068 A 
HETATM   18  C   UNL     1       7.713  21.498  55.044  1.00  0.00     0.089 A 
HETATM   19 CL   UNL     1       8.320  20.449  52.542  1.00  0.00    -0.081 Cl
HETATM   20  C   UNL     1       7.407  22.618  55.829  1.00  0.00     0.039 A 
HETATM   21  C   UNL     1       7.390  23.908  55.291  1.00  0.00     0.020 A 
BRANCH  18  22
HETATM   22  O   UNL     1       7.663  20.350  55.781  1.00  0.00    -0.354 OA
HETATM   23  C   UNL     1       8.850  19.747  56.267  1.00  0.00     0.210 C 
ENDBRANCH  18  22
ENDBRANCH  12  15
ENDBRANCH   9  11
ENDBRANCH   7   9
ENDBRANCH   1   7
BRANCH   4  24
HETATM   24  N   UNL     1       7.275  31.155  59.818  1.00  0.00    -0.378 N 
HETATM   25  C   UNL     1       8.426  31.379  60.705  1.00  0.00     0.150 C 
HETATM   26  C   UNL     1       7.913  31.570  62.153  1.00  0.00     0.255 C 
HETATM   27  N   UNL     1       6.877  32.698  62.234  1.00  0.00    -0.064 N 
HETATM   28  H   UNL     1       7.366  33.578  62.020  1.00  0.00     0.280 HD
HETATM   29  C   UNL     1       5.764  32.520  61.198  1.00  0.00     0.255 C 
HETATM   30  C   UNL     1       6.325  32.283  59.782  1.00  0.00     0.150 C 
BRANCH  27  31
HETATM   31  C   UNL     1       6.277  32.849  63.614  1.00  0.00     0.276 C 
BRANCH  31  32
HETATM   32  C   UNL     1       5.738  34.210  63.933  1.00  0.00     0.006 A 
HETATM   33  C   UNL     1       4.884  34.385  65.026  1.00  0.00     0.124 A 
HETATM   34  F   UNL     1       4.510  33.309  65.735  1.00  0.00    -0.206 F 
HETATM   35  C   UNL     1       4.404  35.640  65.380  1.00  0.00     0.043 A 
HETATM   36  C   UNL     1       4.778  36.753  64.629  1.00  0.00     0.003 A 
HETATM   37  C   UNL     1       5.625  36.600  63.531  1.00  0.00     0.001 A 
HETATM   38  C   UNL     1       6.107  35.336  63.183  1.00  0.00     0.012 A 
ENDBRANCH  31  32
ENDBRANCH  27  31
ENDBRANCH   4  24
TORSDOF 8
ENDMDL
MODEL 8
REMARK VINA RESULT:      -9.8      1.391      1.876
REMARK  8 active torsions:
REMARK  status: ('A' for Active; 'I' for Inactive)
REMARK    1  A    between atoms: O_2  and  C_3 
REMARK    2  A    between atoms: C_7  and  C_8 
REMARK       I    between atoms: C_8  and  N_9 
REMARK    3  A    between atoms: N_9  and  C_10 
REMARK    4  A    between atoms: C_10  and  N_11 
REMARK    5  A    between atoms: N_11  and  C_12 
REMARK    6  A    between atoms: C_15  and  N_16 
REMARK    7  A    between atoms: N_19  and  C_21 
REMARK    8  A    between atoms: C_21  and  C_22 
ROOT
HETATM    1  C   UNL     1       5.750  31.909  57.880  1.00  0.00     0.034 A 
HETATM    2  C   UNL     1       4.862  31.103  57.170  1.00  0.00     0.032 A 
HETATM    3  C   UNL     1       5.146  29.750  56.967  1.00  0.00     0.031 A 
HETATM    4  C   UNL     1       6.320  29.164  57.465  1.00  0.00     0.030 A 
HETATM    5  C   UNL     1       7.197  29.981  58.188  1.00  0.00     0.031 A 
HETATM    6  C   UNL     1       6.911  31.341  58.404  1.00  0.00     0.032 A 
ENDROOT
BRANCH   1   7
HETATM    7  N   UNL     1       5.417  33.278  58.027  1.00  0.00    -0.333 N 
HETATM    8  H   UNL     1       6.187  33.901  57.813  1.00  0.00     0.168 HD
BRANCH   7   9
HETATM    9  C   UNL     1       4.579  33.759  58.987  1.00  0.00     0.179 C 
HETATM   10  S   UNL     1       3.024  34.257  58.631  1.00  0.00    -0.040 SA
BRANCH   9  11
HETATM   11  N   UNL     1       4.935  33.602  60.304  1.00  0.00    -0.299 N 
HETATM   12  C   UNL     1       4.286  32.862  61.285  1.00  0.00     0.257 C 
HETATM   13  O   UNL     1       3.644  31.840  61.058  1.00  0.00    -0.267 OA
HETATM   14  H   UNL     1       5.623  34.283  60.580  1.00  0.00     0.171 HD
BRANCH  12  15
HETATM   15  C   UNL     1       4.430  33.318  62.707  1.00  0.00     0.034 A 
HETATM   16  C   UNL     1       5.619  33.254  63.445  1.00  0.00     0.044 A 
HETATM   17  C   UNL     1       5.686  33.746  64.768  1.00  0.00     0.068 A 
HETATM   18  C   UNL     1       4.557  34.318  65.369  1.00  0.00     0.089 A 
HETATM   19 CL   UNL     1       7.222  33.544  65.536  1.00  0.00    -0.081 Cl
HETATM   20  C   UNL     1       3.368  34.360  64.627  1.00  0.00     0.039 A 
HETATM   21  C   UNL     1       3.302  33.870  63.320  1.00  0.00     0.020 A 
BRANCH  18  22
HETATM   22  O   UNL     1       4.382  34.847  66.615  1.00  0.00    -0.354 OA
HETATM   23  C   UNL     1       4.374  34.015  67.762  1.00  0.00     0.210 C 
ENDBRANCH  18  22
ENDBRANCH  12  15
ENDBRANCH   9  11
ENDBRANCH   7   9
ENDBRANCH   1   7
BRANCH   4  24
HETATM   24  N   UNL     1       6.539  27.805  57.210  1.00  0.00    -0.378 N 
HETATM   25  C   UNL     1       5.611  27.101  56.314  1.00  0.00     0.150 C 
HETATM   26  C   UNL     1       5.764  25.576  56.530  1.00  0.00     0.255 C 
HETATM   27  N   UNL     1       7.219  25.129  56.341  1.00  0.00    -0.064 N 
HETATM   28  H   UNL     1       7.456  25.270  55.350  1.00  0.00     0.280 HD
HETATM   29  C   UNL     1       8.184  25.976  57.176  1.00  0.00     0.255 C 
HETATM   30  C   UNL     1       7.959  27.486  56.965  1.00  0.00     0.150 C 
BRANCH  27  31
HETATM   31  C   UNL     1       7.429  23.662  56.642  1.00  0.00     0.276 C 
BRANCH  31  32
HETATM   32  C   UNL     1       7.641  22.786  55.446  1.00  0.00     0.006 A 
HETATM   33  C   UNL     1       7.840  21.413  55.612  1.00  0.00     0.124 A 
HETATM   34  F   UNL     1       7.902  20.912  56.855  1.00  0.00    -0.206 F 
HETATM   35  C   UNL     1       7.991  20.562  54.522  1.00  0.00     0.043 A 
HETATM   36  C   UNL     1       7.947  21.089  53.233  1.00  0.00     0.003 A 
HETATM   37  C   UNL     1       7.755  22.458  53.045  1.00  0.00     0.001 A 
HETATM   38  C   UNL     1       7.599  23.305  54.144  1.00  0.00     0.012 A 
ENDBRANCH  31  32
ENDBRANCH  27  31
ENDBRANCH   4  24
TORSDOF 8
ENDMDL
MODEL 9
REMARK VINA RESULT:      -9.7      5.112      6.054
REMARK  8 active torsions:
REMARK  status: ('A' for Active; 'I' for Inactive)
REMARK    1  A    between atoms: O_2  and  C_3 
REMARK    2  A    between atoms: C_7  and  C_8 
REMARK       I    between atoms: C_8  and  N_9 
REMARK    3  A    between atoms: N_9  and  C_10 
REMARK    4  A    between atoms: C_10  and  N_11 
REMARK    5  A    between atoms: N_11  and  C_12 
REMARK    6  A    between atoms: C_15  and  N_16 
REMARK    7  A    between atoms: N_19  and  C_21 
REMARK    8  A    between atoms: C_21  and  C_22 
ROOT
HETATM    1  C   UNL     1       7.261  28.603  57.510  1.00  0.00     0.034 A 
HETATM    2  C   UNL     1       6.417  29.439  56.780  1.00  0.00     0.032 A 
HETATM    3  C   UNL     1       5.991  29.067  55.502  1.00  0.00     0.031 A 
HETATM    4  C   UNL     1       6.393  27.856  54.918  1.00  0.00     0.030 A 
HETATM    5  C   UNL     1       7.229  27.020  55.667  1.00  0.00     0.031 A 
HETATM    6  C   UNL     1       7.653  27.384  56.958  1.00  0.00     0.032 A 
ENDROOT
BRANCH   1   7
HETATM    7  N   UNL     1       7.679  29.049  58.787  1.00  0.00    -0.333 N 
HETATM    8  H   UNL     1       6.956  28.972  59.494  1.00  0.00     0.168 HD
BRANCH   7   9
HETATM    9  C   UNL     1       8.526  30.098  58.989  1.00  0.00     0.179 C 
HETATM   10  S   UNL     1       9.823  30.392  57.976  1.00  0.00    -0.040 SA
BRANCH   9  11
HETATM   11  N   UNL     1       8.164  31.066  59.892  1.00  0.00    -0.299 N 
HETATM   12  C   UNL     1       8.506  31.156  61.236  1.00  0.00     0.257 C 
HETATM   13  O   UNL     1       9.562  30.737  61.702  1.00  0.00    -0.267 OA
HETATM   14  H   UNL     1       7.403  31.626  59.543  1.00  0.00     0.171 HD
BRANCH  12  15
HETATM   15  C   UNL     1       7.545  31.856  62.151  1.00  0.00     0.034 A 
HETATM   16  C   UNL     1       6.168  31.971  61.920  1.00  0.00     0.044 A 
HETATM   17  C   UNL     1       5.321  32.609  62.854  1.00  0.00     0.068 A 
HETATM   18  C   UNL     1       5.844  33.137  64.041  1.00  0.00     0.089 A 
HETATM   19 CL   UNL     1       3.659  32.692  62.381  1.00  0.00    -0.081 Cl
HETATM   20  C   UNL     1       7.226  33.033  64.253  1.00  0.00     0.039 A 
HETATM   21  C   UNL     1       8.064  32.405  63.327  1.00  0.00     0.020 A 
BRANCH  18  22
HETATM   22  O   UNL     1       5.234  33.791  65.072  1.00  0.00    -0.354 OA
HETATM   23  C   UNL     1       5.214  35.206  65.124  1.00  0.00     0.210 C 
ENDBRANCH  18  22
ENDBRANCH  12  15
ENDBRANCH   9  11
ENDBRANCH   7   9
ENDBRANCH   1   7
BRANCH   4  24
HETATM   24  N   UNL     1       5.934  27.560  53.629  1.00  0.00    -0.378 N 
HETATM   25  C   UNL     1       5.183  26.313  53.422  1.00  0.00     0.150 C 
HETATM   26  C   UNL     1       5.173  25.979  51.910  1.00  0.00     0.255 C 
HETATM   27  N   UNL     1       4.619  27.146  51.084  1.00  0.00    -0.064 N 
HETATM   28  H   UNL     1       3.624  27.247  51.328  1.00  0.00     0.280 HD
HETATM   29  C   UNL     1       5.319  28.464  51.425  1.00  0.00     0.255 C 
HETATM   30  C   UNL     1       5.347  28.727  52.943  1.00  0.00     0.150 C 
BRANCH  27  31
HETATM   31  C   UNL     1       4.686  26.897  49.594  1.00  0.00     0.276 C 
BRANCH  31  32
HETATM   32  C   UNL     1       3.416  27.157  48.842  1.00  0.00     0.006 A 
HETATM   33  C   UNL     1       3.041  26.315  47.792  1.00  0.00     0.124 A 
HETATM   34  F   UNL     1       3.866  25.319  47.433  1.00  0.00    -0.206 F 
HETATM   35  C   UNL     1       1.846  26.496  47.105  1.00  0.00     0.043 A 
HETATM   36  C   UNL     1       1.001  27.544  47.468  1.00  0.00     0.003 A 
HETATM   37  C   UNL     1       1.359  28.400  48.509  1.00  0.00     0.001 A 
HETATM   38  C   UNL     1       2.559  28.208  49.198  1.00  0.00     0.012 A 
ENDBRANCH  31  32
ENDBRANCH  27  31
ENDBRANCH   4  24
TORSDOF 8
ENDMDL
MODEL 10
REMARK VINA RESULT:      -9.7      2.461      3.307
REMARK  8 active torsions:
REMARK  status: ('A' for Active; 'I' for Inactive)
REMARK    1  A    between atoms: O_2  and  C_3 
REMARK    2  A    between atoms: C_7  and  C_8 
REMARK       I    between atoms: C_8  and  N_9 
REMARK    3  A    between atoms: N_9  and  C_10 
REMARK    4  A    between atoms: C_10  and  N_11 
REMARK    5  A    between atoms: N_11  and  C_12 
REMARK    6  A    between atoms: C_15  and  N_16 
REMARK    7  A    between atoms: N_19  and  C_21 
REMARK    8  A    between atoms: C_21  and  C_22 
ROOT
HETATM    1  C   UNL     1       4.107  30.200  56.202  1.00  0.00     0.034 A 
HETATM    2  C   UNL     1       4.936  29.337  56.917  1.00  0.00     0.032 A 
HETATM    3  C   UNL     1       5.515  28.232  56.286  1.00  0.00     0.031 A 
HETATM    4  C   UNL     1       5.284  27.957  54.929  1.00  0.00     0.030 A 
HETATM    5  C   UNL     1       4.461  28.839  54.220  1.00  0.00     0.031 A 
HETATM    6  C   UNL     1       3.884  29.959  54.846  1.00  0.00     0.032 A 
ENDROOT
BRANCH   1   7
HETATM    7  N   UNL     1       3.530  31.285  56.904  1.00  0.00    -0.333 N 
HETATM    8  H   UNL     1       2.522  31.334  56.806  1.00  0.00     0.168 HD
BRANCH   7   9
HETATM    9  C   UNL     1       4.121  32.504  57.044  1.00  0.00     0.179 C 
HETATM   10  S   UNL     1       4.144  33.621  55.801  1.00  0.00    -0.040 SA
BRANCH   9  11
HETATM   11  N   UNL     1       4.488  32.913  58.302  1.00  0.00    -0.299 N 
HETATM   12  C   UNL     1       5.640  32.586  59.008  1.00  0.00     0.257 C 
HETATM   13  O   UNL     1       6.722  32.348  58.479  1.00  0.00    -0.267 OA
HETATM   14  H   UNL     1       3.710  33.317  58.797  1.00  0.00     0.171 HD
BRANCH  12  15
HETATM   15  C   UNL     1       5.557  32.581  60.506  1.00  0.00     0.034 A 
HETATM   16  C   UNL     1       6.662  32.639  61.364  1.00  0.00     0.044 A 
HETATM   17  C   UNL     1       6.499  32.675  62.767  1.00  0.00     0.068 A 
HETATM   18  C   UNL     1       5.217  32.660  63.332  1.00  0.00     0.089 A 
HETATM   19 CL   UNL     1       7.977  32.704  63.665  1.00  0.00    -0.081 Cl
HETATM   20  C   UNL     1       4.118  32.582  62.464  1.00  0.00     0.039 A 
HETATM   21  C   UNL     1       4.281  32.543  61.077  1.00  0.00     0.020 A 
BRANCH  18  22
HETATM   22  O   UNL     1       4.817  32.681  64.636  1.00  0.00    -0.354 OA
HETATM   23  C   UNL     1       5.068  33.810  65.455  1.00  0.00     0.210 C 
ENDBRANCH  18  22
ENDBRANCH  12  15
ENDBRANCH   9  11
ENDBRANCH   7   9
ENDBRANCH   1   7
BRANCH   4  24
HETATM   24  N   UNL     1       5.890  26.825  54.373  1.00  0.00    -0.378 N 
HETATM   25  C   UNL     1       5.031  25.784  53.791  1.00  0.00     0.150 C 
HETATM   26  C   UNL     1       5.848  24.476  53.656  1.00  0.00     0.255 C 
HETATM   27  N   UNL     1       7.132  24.700  52.848  1.00  0.00    -0.064 N 
HETATM   28  H   UNL     1       6.851  24.924  51.884  1.00  0.00     0.280 HD
HETATM   29  C   UNL     1       7.939  25.885  53.386  1.00  0.00     0.255 C 
HETATM   30  C   UNL     1       7.071  27.149  53.550  1.00  0.00     0.150 C 
BRANCH  27  31
HETATM   31  C   UNL     1       8.007  23.470  52.779  1.00  0.00     0.276 C 
BRANCH  31  32
HETATM   32  C   UNL     1       8.068  22.655  54.035  1.00  0.00     0.006 A 
HETATM   33  C   UNL     1       7.781  21.288  53.996  1.00  0.00     0.124 A 
HETATM   34  F   UNL     1       7.390  20.741  52.834  1.00  0.00    -0.206 F 
HETATM   35  C   UNL     1       7.874  20.492  55.132  1.00  0.00     0.043 A 
HETATM   36  C   UNL     1       8.260  21.068  56.340  1.00  0.00     0.003 A 
HETATM   37  C   UNL     1       8.546  22.432  56.403  1.00  0.00     0.001 A 
HETATM   38  C   UNL     1       8.454  23.224  55.257  1.00  0.00     0.012 A 
ENDBRANCH  31  32
ENDBRANCH  27  31
ENDBRANCH   4  24
TORSDOF 8
ENDMDL
