MODEL 1
REMARK VINA RESULT:      -9.5      0.000      0.000
REMARK  14 active torsions:
REMARK  status: ('A' for Active; 'I' for Inactive)
REMARK    1  A    between atoms: C_2  and  N_3 
REMARK    2  A    between atoms: N_3  and  C_5 
REMARK    3  A    between atoms: N_3  and  C_39 
REMARK    4  A    between atoms: C_5  and  C_6 
REMARK    5  A    between atoms: C_6  and  C_7 
REMARK    6  A    between atoms: C_7  and  N_8 
REMARK    7  A    between atoms: C_11  and  O_12 
REMARK    8  A    between atoms: C_13  and  C_14 
REMARK    9  A    between atoms: C_14  and  C_15 
REMARK   10  A    between atoms: C_18  and  O_19 
REMARK   11  A    between atoms: O_19  and  C_20 
REMARK   12  A    between atoms: C_20  and  C_21 
REMARK   13  A    between atoms: C_31  and  C_32 
REMARK   14  A    between atoms: C_35  and  O_36 
ROOT
HETATM    1  N   UNL     1       5.555  26.541  53.397  1.00  0.00    -0.333 N 
HETATM    2  C   UNL     1       4.815  27.637  53.779  1.00  0.00     0.278 A 
HETATM    3  O   UNL     1       3.640  27.880  53.557  1.00  0.00    -0.265 OA
HETATM    4  C   UNL     1       5.737  28.597  54.423  1.00  0.00     0.146 A 
HETATM    5  C   UNL     1       6.942  28.021  54.463  1.00  0.00     0.059 A 
HETATM    6  C   UNL     1       6.931  26.639  53.881  1.00  0.00     0.161 A 
ENDROOT
BRANCH   5   7
HETATM    7  C   UNL     1       8.244  28.616  54.824  1.00  0.00     0.193 C 
HETATM    8  O   UNL     1       9.097  28.736  53.945  1.00  0.00    -0.287 OA
BRANCH   7   9
HETATM    9  C   UNL     1       8.520  29.114  56.194  1.00  0.00     0.015 A 
HETATM   10  C   UNL     1       7.602  28.988  57.242  1.00  0.00     0.018 A 
HETATM   11  C   UNL     1       7.903  29.503  58.510  1.00  0.00     0.038 A 
HETATM   12  C   UNL     1       9.132  30.123  58.743  1.00  0.00     0.069 A 
HETATM   13  C   UNL     1      10.070  30.192  57.711  1.00  0.00     0.038 A 
HETATM   14  C   UNL     1       9.769  29.693  56.443  1.00  0.00     0.018 A 
BRANCH  12  15
HETATM   15  O   UNL     1       9.544  30.665  59.927  1.00  0.00    -0.347 OA
BRANCH  15  16
HETATM   16  C   UNL     1       9.403  32.078  60.074  1.00  0.00     0.214 C 
BRANCH  16  17
HETATM   17  C   UNL     1       8.365  32.358  61.135  1.00  0.00    -0.034 A 
HETATM   18  C   UNL     1       7.047  32.681  60.787  1.00  0.00     0.010 A 
HETATM   19  C   UNL     1       6.084  32.901  61.777  1.00  0.00     0.007 A 
HETATM   20  C   UNL     1       6.423  32.804  63.131  1.00  0.00    -0.062 A 
HETATM   21  C   UNL     1       5.396  33.021  64.203  1.00  0.00     0.048 C 
HETATM   22  C   UNL     1       7.738  32.478  63.481  1.00  0.00     0.007 A 
HETATM   23  C   UNL     1       8.699  32.257  62.492  1.00  0.00     0.010 A 
ENDBRANCH  16  17
ENDBRANCH  15  16
ENDBRANCH  12  15
ENDBRANCH   7   9
ENDBRANCH   5   7
BRANCH   4  24
HETATM   24  O   UNL     1       5.367  29.865  54.757  1.00  0.00    -0.355 OA
HETATM   25  H   UNL     1       4.616  29.785  55.378  1.00  0.00     0.218 HD
ENDBRANCH   4  24
BRANCH   6  26
HETATM   26  C   UNL     1       7.293  25.542  54.864  1.00  0.00    -0.030 A 
HETATM   27  C   UNL     1       8.008  24.392  54.481  1.00  0.00     0.012 A 
HETATM   28  C   UNL     1       8.326  23.404  55.418  1.00  0.00     0.037 A 
HETATM   29  C   UNL     1       7.933  23.562  56.742  1.00  0.00     0.065 A 
HETATM   30  C   UNL     1       7.224  24.686  57.142  1.00  0.00     0.037 A 
HETATM   31  C   UNL     1       6.899  25.670  56.207  1.00  0.00     0.012 A 
BRANCH  29  32
HETATM   32  O   UNL     1       8.222  22.628  57.690  1.00  0.00    -0.361 OA
HETATM   33  H   UNL     1       8.012  22.986  58.568  1.00  0.00     0.217 HD
ENDBRANCH  29  32
ENDBRANCH   6  26
BRANCH   1  34
HETATM   34  C   UNL     1       5.046  25.314  52.791  1.00  0.00     0.129 C 
BRANCH  34  35
HETATM   35  C   UNL     1       4.995  25.315  51.259  1.00  0.00     0.048 C 
BRANCH  35  36
HETATM   36  C   UNL     1       5.078  26.727  50.683  1.00  0.00     0.236 C 
BRANCH  36  37
HETATM   37  N   UNL     1       3.957  26.982  49.677  1.00  0.00    -0.072 N 
HETATM   38  H   UNL     1       3.099  26.553  50.046  1.00  0.00     0.279 HD
BRANCH  37  39
HETATM   39  C   UNL     1       4.259  26.339  48.332  1.00  0.00     0.230 C 
HETATM   40  C   UNL     1       3.115  25.445  47.887  1.00  0.00     0.034 C 
ENDBRANCH  37  39
BRANCH  37  41
HETATM   41  C   UNL     1       3.690  28.481  49.537  1.00  0.00     0.230 C 
HETATM   42  C   UNL     1       2.440  28.885  50.300  1.00  0.00     0.034 C 
ENDBRANCH  37  41
ENDBRANCH  36  37
ENDBRANCH  35  36
ENDBRANCH  34  35
ENDBRANCH   1  34
TORSDOF 14
ENDMDL
MODEL 2
REMARK VINA RESULT:      -9.5      4.049     11.032
REMARK  14 active torsions:
REMARK  status: ('A' for Active; 'I' for Inactive)
REMARK    1  A    between atoms: C_2  and  N_3 
REMARK    2  A    between atoms: N_3  and  C_5 
REMARK    3  A    between atoms: N_3  and  C_39 
REMARK    4  A    between atoms: C_5  and  C_6 
REMARK    5  A    between atoms: C_6  and  C_7 
REMARK    6  A    between atoms: C_7  and  N_8 
REMARK    7  A    between atoms: C_11  and  O_12 
REMARK    8  A    between atoms: C_13  and  C_14 
REMARK    9  A    between atoms: C_14  and  C_15 
REMARK   10  A    between atoms: C_18  and  O_19 
REMARK   11  A    between atoms: O_19  and  C_20 
REMARK   12  A    between atoms: C_20  and  C_21 
REMARK   13  A    between atoms: C_31  and  C_32 
REMARK   14  A    between atoms: C_35  and  O_36 
ROOT
HETATM    1  N   UNL     1       5.180  32.958  61.554  1.00  0.00    -0.333 N 
HETATM    2  C   UNL     1       5.642  31.952  62.372  1.00  0.00     0.278 A 
HETATM    3  O   UNL     1       5.265  31.645  63.491  1.00  0.00    -0.265 OA
HETATM    4  C   UNL     1       6.820  31.346  61.715  1.00  0.00     0.146 A 
HETATM    5  C   UNL     1       6.966  31.950  60.532  1.00  0.00     0.059 A 
HETATM    6  C   UNL     1       5.905  32.979  60.284  1.00  0.00     0.161 A 
ENDROOT
BRANCH   5   7
HETATM    7  C   UNL     1       8.087  31.858  59.575  1.00  0.00     0.193 C 
HETATM    8  O   UNL     1       8.948  32.736  59.596  1.00  0.00    -0.287 OA
BRANCH   7   9
HETATM    9  C   UNL     1       8.219  30.716  58.638  1.00  0.00     0.015 A 
HETATM   10  C   UNL     1       9.454  30.288  58.138  1.00  0.00     0.018 A 
HETATM   11  C   UNL     1       9.518  29.223  57.231  1.00  0.00     0.038 A 
HETATM   12  C   UNL     1       8.352  28.562  56.839  1.00  0.00     0.069 A 
HETATM   13  C   UNL     1       7.128  28.951  57.387  1.00  0.00     0.038 A 
HETATM   14  C   UNL     1       7.058  30.022  58.280  1.00  0.00     0.018 A 
BRANCH  12  15
HETATM   15  O   UNL     1       8.279  27.515  55.965  1.00  0.00    -0.347 OA
BRANCH  15  16
HETATM   16  C   UNL     1       7.043  26.805  55.909  1.00  0.00     0.214 C 
BRANCH  16  17
HETATM   17  C   UNL     1       7.250  25.522  55.139  1.00  0.00    -0.034 A 
HETATM   18  C   UNL     1       7.608  25.543  53.785  1.00  0.00     0.010 A 
HETATM   19  C   UNL     1       7.835  24.352  53.091  1.00  0.00     0.007 A 
HETATM   20  C   UNL     1       7.705  23.118  53.738  1.00  0.00    -0.062 A 
HETATM   21  C   UNL     1       7.963  21.831  53.010  1.00  0.00     0.048 C 
HETATM   22  C   UNL     1       7.351  23.093  55.092  1.00  0.00     0.007 A 
HETATM   23  C   UNL     1       7.126  24.284  55.785  1.00  0.00     0.010 A 
ENDBRANCH  16  17
ENDBRANCH  15  16
ENDBRANCH  12  15
ENDBRANCH   7   9
ENDBRANCH   5   7
BRANCH   4  24
HETATM   24  O   UNL     1       7.628  30.443  62.336  1.00  0.00    -0.355 OA
HETATM   25  H   UNL     1       7.399  29.564  61.974  1.00  0.00     0.218 HD
ENDBRANCH   4  24
BRANCH   6  26
HETATM   26  C   UNL     1       5.015  32.688  59.090  1.00  0.00    -0.030 A 
HETATM   27  C   UNL     1       4.969  33.527  57.962  1.00  0.00     0.012 A 
HETATM   28  C   UNL     1       4.138  33.223  56.879  1.00  0.00     0.037 A 
HETATM   29  C   UNL     1       3.353  32.076  56.918  1.00  0.00     0.065 A 
HETATM   30  C   UNL     1       3.380  31.236  58.022  1.00  0.00     0.037 A 
HETATM   31  C   UNL     1       4.202  31.541  59.106  1.00  0.00     0.012 A 
BRANCH  29  32
HETATM   32  O   UNL     1       2.531  31.737  55.887  1.00  0.00    -0.361 OA
HETATM   33  H   UNL     1       3.067  31.443  55.133  1.00  0.00     0.217 HD
ENDBRANCH  29  32
ENDBRANCH   6  26
BRANCH   1  34
HETATM   34  C   UNL     1       3.991  33.777  61.767  1.00  0.00     0.129 C 
BRANCH  34  35
HETATM   35  C   UNL     1       4.181  34.976  62.704  1.00  0.00     0.048 C 
BRANCH  35  36
HETATM   36  C   UNL     1       3.596  34.717  64.091  1.00  0.00     0.236 C 
BRANCH  36  37
HETATM   37  N   UNL     1       4.646  34.139  65.036  1.00  0.00    -0.072 N 
HETATM   38  H   UNL     1       4.715  33.129  64.852  1.00  0.00     0.279 HD
BRANCH  37  39
HETATM   39  C   UNL     1       4.246  34.321  66.493  1.00  0.00     0.230 C 
HETATM   40  C   UNL     1       3.195  35.407  66.636  1.00  0.00     0.034 C 
ENDBRANCH  37  39
BRANCH  37  41
HETATM   41  C   UNL     1       6.021  34.745  64.750  1.00  0.00     0.230 C 
HETATM   42  C   UNL     1       7.131  33.849  65.273  1.00  0.00     0.034 C 
ENDBRANCH  37  41
ENDBRANCH  36  37
ENDBRANCH  35  36
ENDBRANCH  34  35
ENDBRANCH   1  34
TORSDOF 14
ENDMDL
MODEL 3
REMARK VINA RESULT:      -9.4      3.991     10.688
REMARK  14 active torsions:
REMARK  status: ('A' for Active; 'I' for Inactive)
REMARK    1  A    between atoms: C_2  and  N_3 
REMARK    2  A    between atoms: N_3  and  C_5 
REMARK    3  A    between atoms: N_3  and  C_39 
REMARK    4  A    between atoms: C_5  and  C_6 
REMARK    5  A    between atoms: C_6  and  C_7 
REMARK    6  A    between atoms: C_7  and  N_8 
REMARK    7  A    between atoms: C_11  and  O_12 
REMARK    8  A    between atoms: C_13  and  C_14 
REMARK    9  A    between atoms: C_14  and  C_15 
REMARK   10  A    between atoms: C_18  and  O_19 
REMARK   11  A    between atoms: O_19  and  C_20 
REMARK   12  A    between atoms: C_20  and  C_21 
REMARK   13  A    between atoms: C_31  and  C_32 
REMARK   14  A    between atoms: C_35  and  O_36 
ROOT
HETATM    1  N   UNL     1       6.631  32.622  60.741  1.00  0.00    -0.333 N 
HETATM    2  C   UNL     1       7.170  31.669  61.576  1.00  0.00     0.278 A 
HETATM    3  O   UNL     1       7.075  31.575  62.789  1.00  0.00    -0.265 OA
HETATM    4  C   UNL     1       8.042  30.799  60.758  1.00  0.00     0.146 A 
HETATM    5  C   UNL     1       7.935  31.212  59.491  1.00  0.00     0.059 A 
HETATM    6  C   UNL     1       6.982  32.360  59.347  1.00  0.00     0.161 A 
ENDROOT
BRANCH   5   7
HETATM    7  C   UNL     1       8.735  30.815  58.315  1.00  0.00     0.193 C 
HETATM    8  O   UNL     1       9.772  31.432  58.077  1.00  0.00    -0.287 OA
BRANCH   7   9
HETATM    9  C   UNL     1       8.343  29.670  57.458  1.00  0.00     0.015 A 
HETATM   10  C   UNL     1       8.641  29.613  56.092  1.00  0.00     0.018 A 
HETATM   11  C   UNL     1       8.219  28.521  55.322  1.00  0.00     0.038 A 
HETATM   12  C   UNL     1       7.523  27.468  55.918  1.00  0.00     0.069 A 
HETATM   13  C   UNL     1       7.281  27.499  57.292  1.00  0.00     0.038 A 
HETATM   14  C   UNL     1       7.686  28.593  58.061  1.00  0.00     0.018 A 
BRANCH  12  15
HETATM   15  O   UNL     1       7.057  26.353  55.281  1.00  0.00    -0.347 OA
BRANCH  15  16
HETATM   16  C   UNL     1       6.926  25.168  56.067  1.00  0.00     0.214 C 
BRANCH  16  17
HETATM   17  C   UNL     1       7.241  23.971  55.202  1.00  0.00    -0.034 A 
HETATM   18  C   UNL     1       7.264  24.076  53.805  1.00  0.00     0.010 A 
HETATM   19  C   UNL     1       7.593  22.972  53.014  1.00  0.00     0.007 A 
HETATM   20  C   UNL     1       7.904  21.742  53.606  1.00  0.00    -0.062 A 
HETATM   21  C   UNL     1       8.277  20.554  52.770  1.00  0.00     0.048 C 
HETATM   22  C   UNL     1       7.886  21.635  55.001  1.00  0.00     0.007 A 
HETATM   23  C   UNL     1       7.557  22.739  55.791  1.00  0.00     0.010 A 
ENDBRANCH  16  17
ENDBRANCH  15  16
ENDBRANCH  12  15
ENDBRANCH   7   9
ENDBRANCH   5   7
BRANCH   4  24
HETATM   24  O   UNL     1       8.870  29.864  61.301  1.00  0.00    -0.355 OA
HETATM   25  H   UNL     1       9.755  30.275  61.365  1.00  0.00     0.218 HD
ENDBRANCH   4  24
BRANCH   6  26
HETATM   26  C   UNL     1       5.773  32.065  58.478  1.00  0.00    -0.030 A 
HETATM   27  C   UNL     1       5.348  32.935  57.457  1.00  0.00     0.012 A 
HETATM   28  C   UNL     1       4.231  32.627  56.675  1.00  0.00     0.037 A 
HETATM   29  C   UNL     1       3.536  31.445  56.908  1.00  0.00     0.065 A 
HETATM   30  C   UNL     1       3.935  30.574  57.911  1.00  0.00     0.037 A 
HETATM   31  C   UNL     1       5.045  30.883  58.697  1.00  0.00     0.012 A 
BRANCH  29  32
HETATM   32  O   UNL     1       2.444  31.101  56.171  1.00  0.00    -0.361 OA
HETATM   33  H   UNL     1       1.886  31.884  56.039  1.00  0.00     0.217 HD
ENDBRANCH  29  32
ENDBRANCH   6  26
BRANCH   1  34
HETATM   34  C   UNL     1       5.655  33.645  61.103  1.00  0.00     0.129 C 
BRANCH  34  35
HETATM   35  C   UNL     1       4.323  33.114  61.647  1.00  0.00     0.048 C 
BRANCH  35  36
HETATM   36  C   UNL     1       3.970  33.731  62.999  1.00  0.00     0.236 C 
BRANCH  36  37
HETATM   37  N   UNL     1       5.213  34.274  63.702  1.00  0.00    -0.072 N 
HETATM   38  H   UNL     1       5.995  34.232  63.035  1.00  0.00     0.279 HD
BRANCH  37  39
HETATM   39  C   UNL     1       5.584  33.427  64.910  1.00  0.00     0.230 C 
HETATM   40  C   UNL     1       6.936  33.836  65.466  1.00  0.00     0.034 C 
ENDBRANCH  37  39
BRANCH  37  41
HETATM   41  C   UNL     1       5.019  35.742  64.082  1.00  0.00     0.230 C 
HETATM   42  C   UNL     1       5.791  36.654  63.143  1.00  0.00     0.034 C 
ENDBRANCH  37  41
ENDBRANCH  36  37
ENDBRANCH  35  36
ENDBRANCH  34  35
ENDBRANCH   1  34
TORSDOF 14
ENDMDL
MODEL 4
REMARK VINA RESULT:      -9.1      2.983      9.324
REMARK  14 active torsions:
REMARK  status: ('A' for Active; 'I' for Inactive)
REMARK    1  A    between atoms: C_2  and  N_3 
REMARK    2  A    between atoms: N_3  and  C_5 
REMARK    3  A    between atoms: N_3  and  C_39 
REMARK    4  A    between atoms: C_5  and  C_6 
REMARK    5  A    between atoms: C_6  and  C_7 
REMARK    6  A    between atoms: C_7  and  N_8 
REMARK    7  A    between atoms: C_11  and  O_12 
REMARK    8  A    between atoms: C_13  and  C_14 
REMARK    9  A    between atoms: C_14  and  C_15 
REMARK   10  A    between atoms: C_18  and  O_19 
REMARK   11  A    between atoms: O_19  and  C_20 
REMARK   12  A    between atoms: C_20  and  C_21 
REMARK   13  A    between atoms: C_31  and  C_32 
REMARK   14  A    between atoms: C_35  and  O_36 
ROOT
HETATM    1  N   UNL     1       4.804  31.504  57.345  1.00  0.00    -0.333 N 
HETATM    2  C   UNL     1       5.089  32.574  56.527  1.00  0.00     0.278 A 
HETATM    3  O   UNL     1       5.362  33.722  56.839  1.00  0.00    -0.265 OA
HETATM    4  C   UNL     1       4.874  32.140  55.130  1.00  0.00     0.146 A 
HETATM    5  C   UNL     1       4.549  30.844  55.165  1.00  0.00     0.059 A 
HETATM    6  C   UNL     1       4.540  30.299  56.562  1.00  0.00     0.161 A 
ENDROOT
BRANCH   5   7
HETATM    7  C   UNL     1       4.050  29.983  54.075  1.00  0.00     0.193 C 
HETATM    8  O   UNL     1       2.996  30.292  53.520  1.00  0.00    -0.287 OA
BRANCH   7   9
HETATM    9  C   UNL     1       4.810  28.797  53.609  1.00  0.00     0.015 A 
HETATM   10  C   UNL     1       6.202  28.803  53.462  1.00  0.00     0.018 A 
HETATM   11  C   UNL     1       6.866  27.664  52.988  1.00  0.00     0.038 A 
HETATM   12  C   UNL     1       6.148  26.506  52.685  1.00  0.00     0.069 A 
HETATM   13  C   UNL     1       4.767  26.484  52.891  1.00  0.00     0.038 A 
HETATM   14  C   UNL     1       4.099  27.621  53.349  1.00  0.00     0.018 A 
BRANCH  12  15
HETATM   15  O   UNL     1       6.674  25.337  52.216  1.00  0.00    -0.347 OA
BRANCH  15  16
HETATM   16  C   UNL     1       7.989  24.998  52.654  1.00  0.00     0.214 C 
BRANCH  16  17
HETATM   17  C   UNL     1       7.907  23.786  53.552  1.00  0.00    -0.034 A 
HETATM   18  C   UNL     1       7.922  22.491  53.019  1.00  0.00     0.010 A 
HETATM   19  C   UNL     1       7.883  21.375  53.861  1.00  0.00     0.007 A 
HETATM   20  C   UNL     1       7.827  21.536  55.250  1.00  0.00    -0.062 A 
HETATM   21  C   UNL     1       7.803  20.347  56.166  1.00  0.00     0.048 C 
HETATM   22  C   UNL     1       7.816  22.828  55.785  1.00  0.00     0.007 A 
HETATM   23  C   UNL     1       7.856  23.942  54.944  1.00  0.00     0.010 A 
ENDBRANCH  16  17
ENDBRANCH  15  16
ENDBRANCH  12  15
ENDBRANCH   7   9
ENDBRANCH   5   7
BRANCH   4  24
HETATM   24  O   UNL     1       4.891  33.004  54.078  1.00  0.00    -0.355 OA
HETATM   25  H   UNL     1       5.309  33.828  54.397  1.00  0.00     0.218 HD
ENDBRANCH   4  24
BRANCH   6  26
HETATM   26  C   UNL     1       5.552  29.196  56.811  1.00  0.00    -0.030 A 
HETATM   27  C   UNL     1       5.175  27.854  56.998  1.00  0.00     0.012 A 
HETATM   28  C   UNL     1       6.139  26.866  57.222  1.00  0.00     0.037 A 
HETATM   29  C   UNL     1       7.484  27.215  57.256  1.00  0.00     0.065 A 
HETATM   30  C   UNL     1       7.879  28.533  57.077  1.00  0.00     0.037 A 
HETATM   31  C   UNL     1       6.919  29.522  56.861  1.00  0.00     0.012 A 
BRANCH  29  32
HETATM   32  O   UNL     1       8.458  26.287  57.468  1.00  0.00    -0.361 OA
HETATM   33  H   UNL     1       8.465  26.038  58.406  1.00  0.00     0.217 HD
ENDBRANCH  29  32
ENDBRANCH   6  26
BRANCH   1  34
HETATM   34  C   UNL     1       4.951  31.454  58.796  1.00  0.00     0.129 C 
BRANCH  34  35
HETATM   35  C   UNL     1       6.306  31.929  59.334  1.00  0.00     0.048 C 
BRANCH  35  36
HETATM   36  C   UNL     1       6.154  32.805  60.576  1.00  0.00     0.236 C 
BRANCH  36  37
HETATM   37  N   UNL     1       7.458  32.871  61.370  1.00  0.00    -0.072 N 
HETATM   38  H   UNL     1       7.602  33.848  61.657  1.00  0.00     0.279 HD
BRANCH  37  39
HETATM   39  C   UNL     1       8.649  32.454  60.520  1.00  0.00     0.230 C 
HETATM   40  C   UNL     1       9.291  31.192  61.067  1.00  0.00     0.034 C 
ENDBRANCH  37  39
BRANCH  37  41
HETATM   41  C   UNL     1       7.355  32.035  62.645  1.00  0.00     0.230 C 
HETATM   42  C   UNL     1       7.789  32.837  63.860  1.00  0.00     0.034 C 
ENDBRANCH  37  41
ENDBRANCH  36  37
ENDBRANCH  35  36
ENDBRANCH  34  35
ENDBRANCH   1  34
TORSDOF 14
ENDMDL
MODEL 5
REMARK VINA RESULT:      -9.0      4.033     10.979
REMARK  14 active torsions:
REMARK  status: ('A' for Active; 'I' for Inactive)
REMARK    1  A    between atoms: C_2  and  N_3 
REMARK    2  A    between atoms: N_3  and  C_5 
REMARK    3  A    between atoms: N_3  and  C_39 
REMARK    4  A    between atoms: C_5  and  C_6 
REMARK    5  A    between atoms: C_6  and  C_7 
REMARK    6  A    between atoms: C_7  and  N_8 
REMARK    7  A    between atoms: C_11  and  O_12 
REMARK    8  A    between atoms: C_13  and  C_14 
REMARK    9  A    between atoms: C_14  and  C_15 
REMARK   10  A    between atoms: C_18  and  O_19 
REMARK   11  A    between atoms: O_19  and  C_20 
REMARK   12  A    between atoms: C_20  and  C_21 
REMARK   13  A    between atoms: C_31  and  C_32 
REMARK   14  A    between atoms: C_35  and  O_36 
ROOT
HETATM    1  N   UNL     1       5.398  33.168  61.294  1.00  0.00    -0.333 N 
HETATM    2  C   UNL     1       5.839  32.219  62.189  1.00  0.00     0.278 A 
HETATM    3  O   UNL     1       5.514  32.059  63.354  1.00  0.00    -0.265 OA
HETATM    4  C   UNL     1       6.926  31.458  61.536  1.00  0.00     0.146 A 
HETATM    5  C   UNL     1       7.037  31.922  60.287  1.00  0.00     0.059 A 
HETATM    6  C   UNL     1       6.038  33.000  59.991  1.00  0.00     0.161 A 
ENDROOT
BRANCH   5   7
HETATM    7  C   UNL     1       8.084  31.645  59.284  1.00  0.00     0.193 C 
HETATM    8  O   UNL     1       9.028  32.428  59.191  1.00  0.00    -0.287 OA
BRANCH   7   9
HETATM    9  C   UNL     1       8.047  30.429  58.435  1.00  0.00     0.015 A 
HETATM   10  C   UNL     1       6.852  29.796  58.075  1.00  0.00     0.018 A 
HETATM   11  C   UNL     1       6.877  28.632  57.296  1.00  0.00     0.038 A 
HETATM   12  C   UNL     1       8.092  28.110  56.850  1.00  0.00     0.069 A 
HETATM   13  C   UNL     1       9.278  28.779  57.159  1.00  0.00     0.038 A 
HETATM   14  C   UNL     1       9.259  29.931  57.948  1.00  0.00     0.018 A 
BRANCH  12  15
HETATM   15  O   UNL     1       8.251  26.986  56.090  1.00  0.00    -0.347 OA
BRANCH  15  16
HETATM   16  C   UNL     1       7.174  26.635  55.222  1.00  0.00     0.214 C 
BRANCH  16  17
HETATM   17  C   UNL     1       7.413  25.244  54.685  1.00  0.00    -0.034 A 
HETATM   18  C   UNL     1       7.253  24.118  55.502  1.00  0.00     0.010 A 
HETATM   19  C   UNL     1       7.441  22.833  54.985  1.00  0.00     0.007 A 
HETATM   20  C   UNL     1       7.793  22.651  53.643  1.00  0.00    -0.062 A 
HETATM   21  C   UNL     1       7.980  21.277  53.071  1.00  0.00     0.048 C 
HETATM   22  C   UNL     1       7.950  23.775  52.824  1.00  0.00     0.007 A 
HETATM   23  C   UNL     1       7.762  25.058  53.340  1.00  0.00     0.010 A 
ENDBRANCH  16  17
ENDBRANCH  15  16
ENDBRANCH  12  15
ENDBRANCH   7   9
ENDBRANCH   5   7
BRANCH   4  24
HETATM   24  O   UNL     1       7.706  30.564  62.204  1.00  0.00    -0.355 OA
HETATM   25  H   UNL     1       7.117  30.078  62.815  1.00  0.00     0.218 HD
ENDBRANCH   4  24
BRANCH   6  26
HETATM   26  C   UNL     1       5.054  32.657  58.887  1.00  0.00    -0.030 A 
HETATM   27  C   UNL     1       4.931  33.431  57.719  1.00  0.00     0.012 A 
HETATM   28  C   UNL     1       4.015  33.080  56.723  1.00  0.00     0.037 A 
HETATM   29  C   UNL     1       3.221  31.951  56.889  1.00  0.00     0.065 A 
HETATM   30  C   UNL     1       3.323  31.174  58.034  1.00  0.00     0.037 A 
HETATM   31  C   UNL     1       4.231  31.527  59.033  1.00  0.00     0.012 A 
BRANCH  29  32
HETATM   32  O   UNL     1       2.317  31.568  55.945  1.00  0.00    -0.361 OA
HETATM   33  H   UNL     1       2.771  31.062  55.253  1.00  0.00     0.217 HD
ENDBRANCH  29  32
ENDBRANCH   6  26
BRANCH   1  34
HETATM   34  C   UNL     1       4.286  34.094  61.484  1.00  0.00     0.129 C 
BRANCH  34  35
HETATM   35  C   UNL     1       4.660  35.581  61.447  1.00  0.00     0.048 C 
BRANCH  35  36
HETATM   36  C   UNL     1       3.676  36.439  62.240  1.00  0.00     0.236 C 
BRANCH  36  37
HETATM   37  N   UNL     1       4.310  36.962  63.528  1.00  0.00    -0.072 N 
HETATM   38  H   UNL     1       3.888  37.876  63.737  1.00  0.00     0.279 HD
BRANCH  37  39
HETATM   39  C   UNL     1       5.809  37.164  63.369  1.00  0.00     0.230 C 
HETATM   40  C   UNL     1       6.193  38.611  63.624  1.00  0.00     0.034 C 
ENDBRANCH  37  39
BRANCH  37  41
HETATM   41  C   UNL     1       3.988  36.035  64.701  1.00  0.00     0.230 C 
HETATM   42  C   UNL     1       5.192  35.187  65.071  1.00  0.00     0.034 C 
ENDBRANCH  37  41
ENDBRANCH  36  37
ENDBRANCH  35  36
ENDBRANCH  34  35
ENDBRANCH   1  34
TORSDOF 14
ENDMDL
MODEL 6
REMARK VINA RESULT:      -9.0      2.513      5.258
REMARK  14 active torsions:
REMARK  status: ('A' for Active; 'I' for Inactive)
REMARK    1  A    between atoms: C_2  and  N_3 
REMARK    2  A    between atoms: N_3  and  C_5 
REMARK    3  A    between atoms: N_3  and  C_39 
REMARK    4  A    between atoms: C_5  and  C_6 
REMARK    5  A    between atoms: C_6  and  C_7 
REMARK    6  A    between atoms: C_7  and  N_8 
REMARK    7  A    between atoms: C_11  and  O_12 
REMARK    8  A    between atoms: C_13  and  C_14 
REMARK    9  A    between atoms: C_14  and  C_15 
REMARK   10  A    between atoms: C_18  and  O_19 
REMARK   11  A    between atoms: O_19  and  C_20 
REMARK   12  A    between atoms: C_20  and  C_21 
REMARK   13  A    between atoms: C_31  and  C_32 
REMARK   14  A    between atoms: C_35  and  O_36 
ROOT
HETATM    1  N   UNL     1       6.444  26.531  53.436  1.00  0.00    -0.333 N 
HETATM    2  C   UNL     1       5.159  26.077  53.244  1.00  0.00     0.278 A 
HETATM    3  O   UNL     1       4.780  24.950  52.971  1.00  0.00    -0.265 OA
HETATM    4  C   UNL     1       4.259  27.250  53.287  1.00  0.00     0.146 A 
HETATM    5  C   UNL     1       5.014  28.316  53.567  1.00  0.00     0.059 A 
HETATM    6  C   UNL     1       6.457  27.957  53.757  1.00  0.00     0.161 A 
ENDROOT
BRANCH   5   7
HETATM    7  C   UNL     1       4.648  29.747  53.535  1.00  0.00     0.193 C 
HETATM    8  O   UNL     1       4.569  30.306  52.442  1.00  0.00    -0.287 OA
BRANCH   7   9
HETATM    9  C   UNL     1       4.329  30.497  54.774  1.00  0.00     0.015 A 
HETATM   10  C   UNL     1       4.689  31.836  54.959  1.00  0.00     0.018 A 
HETATM   11  C   UNL     1       4.389  32.488  56.163  1.00  0.00     0.038 A 
HETATM   12  C   UNL     1       3.705  31.814  57.176  1.00  0.00     0.069 A 
HETATM   13  C   UNL     1       3.294  30.497  56.964  1.00  0.00     0.038 A 
HETATM   14  C   UNL     1       3.603  29.839  55.771  1.00  0.00     0.018 A 
BRANCH  12  15
HETATM   15  O   UNL     1       3.356  32.333  58.390  1.00  0.00    -0.347 OA
BRANCH  15  16
HETATM   16  C   UNL     1       4.039  33.515  58.808  1.00  0.00     0.214 C 
BRANCH  16  17
HETATM   17  C   UNL     1       5.091  33.138  59.823  1.00  0.00    -0.034 A 
HETATM   18  C   UNL     1       6.248  32.447  59.440  1.00  0.00     0.010 A 
HETATM   19  C   UNL     1       7.234  32.135  60.381  1.00  0.00     0.007 A 
HETATM   20  C   UNL     1       7.080  32.507  61.721  1.00  0.00    -0.062 A 
HETATM   21  C   UNL     1       8.138  32.195  62.737  1.00  0.00     0.048 C 
HETATM   22  C   UNL     1       5.927  33.200  62.106  1.00  0.00     0.007 A 
HETATM   23  C   UNL     1       4.942  33.512  61.166  1.00  0.00     0.010 A 
ENDBRANCH  16  17
ENDBRANCH  15  16
ENDBRANCH  12  15
ENDBRANCH   7   9
ENDBRANCH   5   7
BRANCH   4  24
HETATM   24  O   UNL     1       2.940  27.181  52.953  1.00  0.00    -0.355 OA
HETATM   25  H   UNL     1       2.800  27.818  52.225  1.00  0.00     0.218 HD
ENDBRANCH   4  24
BRANCH   6  26
HETATM   26  C   UNL     1       6.998  28.247  55.144  1.00  0.00    -0.030 A 
HETATM   27  C   UNL     1       8.184  28.975  55.354  1.00  0.00     0.012 A 
HETATM   28  C   UNL     1       8.649  29.225  56.648  1.00  0.00     0.037 A 
HETATM   29  C   UNL     1       7.928  28.752  57.739  1.00  0.00     0.065 A 
HETATM   30  C   UNL     1       6.758  28.029  57.557  1.00  0.00     0.037 A 
HETATM   31  C   UNL     1       6.296  27.772  56.265  1.00  0.00     0.012 A 
BRANCH  29  32
HETATM   32  O   UNL     1       8.340  28.973  59.018  1.00  0.00    -0.361 OA
HETATM   33  H   UNL     1       8.200  28.169  59.544  1.00  0.00     0.217 HD
ENDBRANCH  29  32
ENDBRANCH   6  26
BRANCH   1  34
HETATM   34  C   UNL     1       7.649  25.714  53.544  1.00  0.00     0.129 C 
BRANCH  34  35
HETATM   35  C   UNL     1       7.582  24.582  54.577  1.00  0.00     0.048 C 
BRANCH  35  36
HETATM   36  C   UNL     1       7.692  23.205  53.925  1.00  0.00     0.236 C 
BRANCH  36  37
HETATM   37  N   UNL     1       8.651  22.302  54.698  1.00  0.00    -0.072 N 
HETATM   38  H   UNL     1       9.610  22.556  54.428  1.00  0.00     0.279 HD
BRANCH  37  39
HETATM   39  C   UNL     1       8.440  20.837  54.347  1.00  0.00     0.230 C 
HETATM   40  C   UNL     1       8.205  20.662  52.858  1.00  0.00     0.034 C 
ENDBRANCH  37  39
BRANCH  37  41
HETATM   41  C   UNL     1       8.525  22.544  56.203  1.00  0.00     0.230 C 
HETATM   42  C   UNL     1       8.346  21.236  56.952  1.00  0.00     0.034 C 
ENDBRANCH  37  41
ENDBRANCH  36  37
ENDBRANCH  35  36
ENDBRANCH  34  35
ENDBRANCH   1  34
TORSDOF 14
ENDMDL
MODEL 7
REMARK VINA RESULT:      -8.9      3.416      6.963
REMARK  14 active torsions:
REMARK  status: ('A' for Active; 'I' for Inactive)
REMARK    1  A    between atoms: C_2  and  N_3 
REMARK    2  A    between atoms: N_3  and  C_5 
REMARK    3  A    between atoms: N_3  and  C_39 
REMARK    4  A    between atoms: C_5  and  C_6 
REMARK    5  A    between atoms: C_6  and  C_7 
REMARK    6  A    between atoms: C_7  and  N_8 
REMARK    7  A    between atoms: C_11  and  O_12 
REMARK    8  A    between atoms: C_13  and  C_14 
REMARK    9  A    between atoms: C_14  and  C_15 
REMARK   10  A    between atoms: C_18  and  O_19 
REMARK   11  A    between atoms: O_19  and  C_20 
REMARK   12  A    between atoms: C_20  and  C_21 
REMARK   13  A    between atoms: C_31  and  C_32 
REMARK   14  A    between atoms: C_35  and  O_36 
ROOT
HETATM    1  N   UNL     1       4.250  30.666  54.300  1.00  0.00    -0.333 N 
HETATM    2  C   UNL     1       3.285  30.913  55.250  1.00  0.00     0.278 A 
HETATM    3  O   UNL     1       2.200  31.455  55.113  1.00  0.00    -0.265 OA
HETATM    4  C   UNL     1       3.838  30.521  56.564  1.00  0.00     0.146 A 
HETATM    5  C   UNL     1       5.051  30.004  56.343  1.00  0.00     0.059 A 
HETATM    6  C   UNL     1       5.402  29.983  54.886  1.00  0.00     0.161 A 
ENDROOT
BRANCH   5   7
HETATM    7  C   UNL     1       6.098  29.643  57.319  1.00  0.00     0.193 C 
HETATM    8  O   UNL     1       6.360  30.439  58.219  1.00  0.00    -0.287 OA
BRANCH   7   9
HETATM    9  C   UNL     1       6.792  28.333  57.266  1.00  0.00     0.015 A 
HETATM   10  C   UNL     1       6.116  27.114  57.388  1.00  0.00     0.018 A 
HETATM   11  C   UNL     1       6.826  25.907  57.362  1.00  0.00     0.038 A 
HETATM   12  C   UNL     1       8.211  25.909  57.187  1.00  0.00     0.069 A 
HETATM   13  C   UNL     1       8.875  27.124  57.004  1.00  0.00     0.038 A 
HETATM   14  C   UNL     1       8.173  28.331  57.044  1.00  0.00     0.018 A 
BRANCH  12  15
HETATM   15  O   UNL     1       9.016  24.807  57.146  1.00  0.00    -0.347 OA
BRANCH  15  16
HETATM   16  C   UNL     1       8.408  23.551  57.446  1.00  0.00     0.214 C 
BRANCH  16  17
HETATM   17  C   UNL     1       8.339  22.727  56.182  1.00  0.00    -0.034 A 
HETATM   18  C   UNL     1       8.558  23.311  54.927  1.00  0.00     0.010 A 
HETATM   19  C   UNL     1       8.529  22.532  53.767  1.00  0.00     0.007 A 
HETATM   20  C   UNL     1       8.280  21.158  53.840  1.00  0.00    -0.062 A 
HETATM   21  C   UNL     1       8.264  20.307  52.604  1.00  0.00     0.048 C 
HETATM   22  C   UNL     1       8.064  20.571  55.092  1.00  0.00     0.007 A 
HETATM   23  C   UNL     1       8.094  21.349  56.251  1.00  0.00     0.010 A 
ENDBRANCH  16  17
ENDBRANCH  15  16
ENDBRANCH  12  15
ENDBRANCH   7   9
ENDBRANCH   5   7
BRANCH   4  24
HETATM   24  O   UNL     1       3.213  30.801  57.741  1.00  0.00    -0.355 OA
HETATM   25  H   UNL     1       3.790  30.462  58.454  1.00  0.00     0.218 HD
ENDBRANCH   4  24
BRANCH   6  26
HETATM   26  C   UNL     1       5.620  28.594  54.314  1.00  0.00    -0.030 A 
HETATM   27  C   UNL     1       6.834  28.206  53.717  1.00  0.00     0.012 A 
HETATM   28  C   UNL     1       6.997  26.915  53.205  1.00  0.00     0.037 A 
HETATM   29  C   UNL     1       5.948  26.006  53.290  1.00  0.00     0.065 A 
HETATM   30  C   UNL     1       4.742  26.368  53.871  1.00  0.00     0.037 A 
HETATM   31  C   UNL     1       4.574  27.657  54.376  1.00  0.00     0.012 A 
BRANCH  29  32
HETATM   32  O   UNL     1       6.062  24.738  52.808  1.00  0.00    -0.361 OA
HETATM   33  H   UNL     1       6.961  24.411  52.972  1.00  0.00     0.217 HD
ENDBRANCH  29  32
ENDBRANCH   6  26
BRANCH   1  34
HETATM   34  C   UNL     1       4.115  30.832  52.856  1.00  0.00     0.129 C 
BRANCH  34  35
HETATM   35  C   UNL     1       3.056  29.944  52.193  1.00  0.00     0.048 C 
BRANCH  35  36
HETATM   36  C   UNL     1       3.217  29.897  50.674  1.00  0.00     0.236 C 
BRANCH  36  37
HETATM   37  N   UNL     1       3.078  28.471  50.146  1.00  0.00    -0.072 N 
HETATM   38  H   UNL     1       2.309  28.019  50.658  1.00  0.00     0.279 HD
BRANCH  37  39
HETATM   39  C   UNL     1       4.342  27.661  50.392  1.00  0.00     0.230 C 
HETATM   40  C   UNL     1       5.516  28.236  49.619  1.00  0.00     0.034 C 
ENDBRANCH  37  39
BRANCH  37  41
HETATM   41  C   UNL     1       2.693  28.479  48.667  1.00  0.00     0.230 C 
HETATM   42  C   UNL     1       2.020  27.176  48.272  1.00  0.00     0.034 C 
ENDBRANCH  37  41
ENDBRANCH  36  37
ENDBRANCH  35  36
ENDBRANCH  34  35
ENDBRANCH   1  34
TORSDOF 14
ENDMDL
MODEL 8
REMARK VINA RESULT:      -8.9      4.441     11.532
REMARK  14 active torsions:
REMARK  status: ('A' for Active; 'I' for Inactive)
REMARK    1  A    between atoms: C_2  and  N_3 
REMARK    2  A    between atoms: N_3  and  C_5 
REMARK    3  A    between atoms: N_3  and  C_39 
REMARK    4  A    between atoms: C_5  and  C_6 
REMARK    5  A    between atoms: C_6  and  C_7 
REMARK    6  A    between atoms: C_7  and  N_8 
REMARK    7  A    between atoms: C_11  and  O_12 
REMARK    8  A    between atoms: C_13  and  C_14 
REMARK    9  A    between atoms: C_14  and  C_15 
REMARK   10  A    between atoms: C_18  and  O_19 
REMARK   11  A    between atoms: O_19  and  C_20 
REMARK   12  A    between atoms: C_20  and  C_21 
REMARK   13  A    between atoms: C_31  and  C_32 
REMARK   14  A    between atoms: C_35  and  O_36 
ROOT
HETATM    1  N   UNL     1       4.699  33.135  60.644  1.00  0.00    -0.333 N 
HETATM    2  C   UNL     1       3.890  32.214  61.269  1.00  0.00     0.278 A 
HETATM    3  O   UNL     1       3.710  32.042  62.464  1.00  0.00    -0.265 OA
HETATM    4  C   UNL     1       3.339  31.321  60.227  1.00  0.00     0.146 A 
HETATM    5  C   UNL     1       3.771  31.778  59.048  1.00  0.00     0.059 A 
HETATM    6  C   UNL     1       4.616  33.008  59.190  1.00  0.00     0.161 A 
ENDROOT
BRANCH   5   7
HETATM    7  C   UNL     1       3.673  31.148  57.716  1.00  0.00     0.193 C 
HETATM    8  O   UNL     1       2.795  31.537  56.947  1.00  0.00    -0.287 OA
BRANCH   7   9
HETATM    9  C   UNL     1       4.633  30.106  57.275  1.00  0.00     0.015 A 
HETATM   10  C   UNL     1       5.945  30.036  57.755  1.00  0.00     0.018 A 
HETATM   11  C   UNL     1       6.819  29.049  57.281  1.00  0.00     0.038 A 
HETATM   12  C   UNL     1       6.379  28.111  56.346  1.00  0.00     0.069 A 
HETATM   13  C   UNL     1       5.052  28.146  55.915  1.00  0.00     0.038 A 
HETATM   14  C   UNL     1       4.181  29.136  56.374  1.00  0.00     0.018 A 
BRANCH  12  15
HETATM   15  O   UNL     1       7.129  27.105  55.806  1.00  0.00    -0.347 OA
BRANCH  15  16
HETATM   16  C   UNL     1       7.070  26.944  54.389  1.00  0.00     0.214 C 
BRANCH  16  17
HETATM   17  C   UNL     1       7.276  25.486  54.054  1.00  0.00    -0.034 A 
HETATM   18  C   UNL     1       7.735  25.095  52.790  1.00  0.00     0.010 A 
HETATM   19  C   UNL     1       7.959  23.745  52.501  1.00  0.00     0.007 A 
HETATM   20  C   UNL     1       7.725  22.764  53.471  1.00  0.00    -0.062 A 
HETATM   21  C   UNL     1       7.977  21.314  53.180  1.00  0.00     0.048 C 
HETATM   22  C   UNL     1       7.269  23.152  54.735  1.00  0.00     0.007 A 
HETATM   23  C   UNL     1       7.047  24.500  55.024  1.00  0.00     0.010 A 
ENDBRANCH  16  17
ENDBRANCH  15  16
ENDBRANCH  12  15
ENDBRANCH   7   9
ENDBRANCH   5   7
BRANCH   4  24
HETATM   24  O   UNL     1       2.643  30.188  60.519  1.00  0.00    -0.355 OA
HETATM   25  H   UNL     1       2.426  30.227  61.471  1.00  0.00     0.218 HD
ENDBRANCH   4  24
BRANCH   6  26
HETATM   26  C   UNL     1       4.044  34.243  58.518  1.00  0.00    -0.030 A 
HETATM   27  C   UNL     1       4.718  34.919  57.484  1.00  0.00     0.012 A 
HETATM   28  C   UNL     1       4.156  36.052  56.888  1.00  0.00     0.037 A 
HETATM   29  C   UNL     1       2.917  36.511  57.320  1.00  0.00     0.065 A 
HETATM   30  C   UNL     1       2.236  35.863  58.340  1.00  0.00     0.037 A 
HETATM   31  C   UNL     1       2.798  34.736  58.942  1.00  0.00     0.012 A 
BRANCH  29  32
HETATM   32  O   UNL     1       2.329  37.608  56.768  1.00  0.00    -0.361 OA
HETATM   33  H   UNL     1       1.959  38.163  57.473  1.00  0.00     0.217 HD
ENDBRANCH  29  32
ENDBRANCH   6  26
BRANCH   1  34
HETATM   34  C   UNL     1       5.391  34.256  61.273  1.00  0.00     0.129 C 
BRANCH  34  35
HETATM   35  C   UNL     1       4.572  35.030  62.313  1.00  0.00     0.048 C 
BRANCH  35  36
HETATM   36  C   UNL     1       5.347  35.239  63.612  1.00  0.00     0.236 C 
BRANCH  36  37
HETATM   37  N   UNL     1       5.555  33.919  64.352  1.00  0.00    -0.072 N 
HETATM   38  H   UNL     1       5.332  33.155  63.701  1.00  0.00     0.279 HD
BRANCH  37  39
HETATM   39  C   UNL     1       4.625  33.799  65.549  1.00  0.00     0.230 C 
HETATM   40  C   UNL     1       4.331  35.163  66.149  1.00  0.00     0.034 C 
ENDBRANCH  37  39
BRANCH  37  41
HETATM   41  C   UNL     1       7.020  33.754  64.758  1.00  0.00     0.230 C 
HETATM   42  C   UNL     1       7.751  32.831  63.798  1.00  0.00     0.034 C 
ENDBRANCH  37  41
ENDBRANCH  36  37
ENDBRANCH  35  36
ENDBRANCH  34  35
ENDBRANCH   1  34
TORSDOF 14
ENDMDL
MODEL 9
REMARK VINA RESULT:      -8.8      4.136     10.679
REMARK  14 active torsions:
REMARK  status: ('A' for Active; 'I' for Inactive)
REMARK    1  A    between atoms: C_2  and  N_3 
REMARK    2  A    between atoms: N_3  and  C_5 
REMARK    3  A    between atoms: N_3  and  C_39 
REMARK    4  A    between atoms: C_5  and  C_6 
REMARK    5  A    between atoms: C_6  and  C_7 
REMARK    6  A    between atoms: C_7  and  N_8 
REMARK    7  A    between atoms: C_11  and  O_12 
REMARK    8  A    between atoms: C_13  and  C_14 
REMARK    9  A    between atoms: C_14  and  C_15 
REMARK   10  A    between atoms: C_18  and  O_19 
REMARK   11  A    between atoms: O_19  and  C_20 
REMARK   12  A    between atoms: C_20  and  C_21 
REMARK   13  A    between atoms: C_31  and  C_32 
REMARK   14  A    between atoms: C_35  and  O_36 
ROOT
HETATM    1  N   UNL     1       4.663  32.972  60.488  1.00  0.00    -0.333 N 
HETATM    2  C   UNL     1       3.797  32.107  61.117  1.00  0.00     0.278 A 
HETATM    3  O   UNL     1       3.588  31.971  62.312  1.00  0.00    -0.265 OA
HETATM    4  C   UNL     1       3.218  31.222  60.084  1.00  0.00     0.146 A 
HETATM    5  C   UNL     1       3.694  31.631  58.903  1.00  0.00     0.059 A 
HETATM    6  C   UNL     1       4.599  32.818  59.036  1.00  0.00     0.161 A 
ENDROOT
BRANCH   5   7
HETATM    7  C   UNL     1       3.586  30.979  57.583  1.00  0.00     0.193 C 
HETATM    8  O   UNL     1       2.701  31.354  56.815  1.00  0.00    -0.287 OA
BRANCH   7   9
HETATM    9  C   UNL     1       4.544  29.931  57.152  1.00  0.00     0.015 A 
HETATM   10  C   UNL     1       5.824  29.806  57.702  1.00  0.00     0.018 A 
HETATM   11  C   UNL     1       6.699  28.816  57.235  1.00  0.00     0.038 A 
HETATM   12  C   UNL     1       6.291  27.930  56.237  1.00  0.00     0.069 A 
HETATM   13  C   UNL     1       4.991  28.019  55.734  1.00  0.00     0.038 A 
HETATM   14  C   UNL     1       4.121  29.012  56.186  1.00  0.00     0.018 A 
BRANCH  12  15
HETATM   15  O   UNL     1       7.045  26.928  55.696  1.00  0.00    -0.347 OA
BRANCH  15  16
HETATM   16  C   UNL     1       6.781  26.581  54.337  1.00  0.00     0.214 C 
BRANCH  16  17
HETATM   17  C   UNL     1       7.173  25.140  54.116  1.00  0.00    -0.034 A 
HETATM   18  C   UNL     1       7.070  24.198  55.148  1.00  0.00     0.010 A 
HETATM   19  C   UNL     1       7.400  22.858  54.922  1.00  0.00     0.007 A 
HETATM   20  C   UNL     1       7.840  22.438  53.663  1.00  0.00    -0.062 A 
HETATM   21  C   UNL     1       8.180  21.000  53.402  1.00  0.00     0.048 C 
HETATM   22  C   UNL     1       7.940  23.376  52.629  1.00  0.00     0.007 A 
HETATM   23  C   UNL     1       7.610  24.713  52.854  1.00  0.00     0.010 A 
ENDBRANCH  16  17
ENDBRANCH  15  16
ENDBRANCH  12  15
ENDBRANCH   7   9
ENDBRANCH   5   7
BRANCH   4  24
HETATM   24  O   UNL     1       2.459  30.132  60.386  1.00  0.00    -0.355 OA
HETATM   25  H   UNL     1       1.689  30.151  59.785  1.00  0.00     0.218 HD
ENDBRANCH   4  24
BRANCH   6  26
HETATM   26  C   UNL     1       4.103  34.067  58.329  1.00  0.00    -0.030 A 
HETATM   27  C   UNL     1       2.928  34.736  58.717  1.00  0.00     0.012 A 
HETATM   28  C   UNL     1       2.506  35.886  58.043  1.00  0.00     0.037 A 
HETATM   29  C   UNL     1       3.260  36.374  56.981  1.00  0.00     0.065 A 
HETATM   30  C   UNL     1       4.420  35.729  56.579  1.00  0.00     0.037 A 
HETATM   31  C   UNL     1       4.839  34.577  57.246  1.00  0.00     0.012 A 
BRANCH  29  32
HETATM   32  O   UNL     1       2.890  37.491  56.297  1.00  0.00    -0.361 OA
HETATM   33  H   UNL     1       3.326  37.496  55.429  1.00  0.00     0.217 HD
ENDBRANCH  29  32
ENDBRANCH   6  26
BRANCH   1  34
HETATM   34  C   UNL     1       5.402  34.069  61.107  1.00  0.00     0.129 C 
BRANCH  34  35
HETATM   35  C   UNL     1       6.561  33.646  62.016  1.00  0.00     0.048 C 
BRANCH  35  36
HETATM   36  C   UNL     1       7.133  32.286  61.621  1.00  0.00     0.236 C 
BRANCH  36  37
HETATM   37  N   UNL     1       8.440  32.439  60.846  1.00  0.00    -0.072 N 
HETATM   38  H   UNL     1       8.720  33.427  60.891  1.00  0.00     0.279 HD
BRANCH  37  39
HETATM   39  C   UNL     1       8.266  32.070  59.380  1.00  0.00     0.230 C 
HETATM   40  C   UNL     1       9.453  31.269  58.876  1.00  0.00     0.034 C 
ENDBRANCH  37  39
BRANCH  37  41
HETATM   41  C   UNL     1       9.554  31.623  61.503  1.00  0.00     0.230 C 
HETATM   42  C   UNL     1       8.980  30.542  62.403  1.00  0.00     0.034 C 
ENDBRANCH  37  41
ENDBRANCH  36  37
ENDBRANCH  35  36
ENDBRANCH  34  35
ENDBRANCH   1  34
TORSDOF 14
ENDMDL
MODEL 10
REMARK VINA RESULT:      -8.7      4.006     11.096
REMARK  14 active torsions:
REMARK  status: ('A' for Active; 'I' for Inactive)
REMARK    1  A    between atoms: C_2  and  N_3 
REMARK    2  A    between atoms: N_3  and  C_5 
REMARK    3  A    between atoms: N_3  and  C_39 
REMARK    4  A    between atoms: C_5  and  C_6 
REMARK    5  A    between atoms: C_6  and  C_7 
REMARK    6  A    between atoms: C_7  and  N_8 
REMARK    7  A    between atoms: C_11  and  O_12 
REMARK    8  A    between atoms: C_13  and  C_14 
REMARK    9  A    between atoms: C_14  and  C_15 
REMARK   10  A    between atoms: C_18  and  O_19 
REMARK   11  A    between atoms: O_19  and  C_20 
REMARK   12  A    between atoms: C_20  and  C_21 
REMARK   13  A    between atoms: C_31  and  C_32 
REMARK   14  A    between atoms: C_35  and  O_36 
ROOT
HETATM    1  N   UNL     1       3.403  33.448  59.729  1.00  0.00    -0.333 N 
HETATM    2  C   UNL     1       3.649  34.221  58.618  1.00  0.00     0.278 A 
HETATM    3  O   UNL     1       2.952  35.093  58.125  1.00  0.00    -0.265 OA
HETATM    4  C   UNL     1       4.892  33.723  57.992  1.00  0.00     0.146 A 
HETATM    5  C   UNL     1       5.364  32.747  58.774  1.00  0.00     0.059 A 
HETATM    6  C   UNL     1       4.506  32.524  59.983  1.00  0.00     0.161 A 
ENDROOT
BRANCH   5   7
HETATM    7  C   UNL     1       6.462  31.796  58.511  1.00  0.00     0.193 C 
HETATM    8  O   UNL     1       7.563  32.018  59.014  1.00  0.00    -0.287 OA
BRANCH   7   9
HETATM    9  C   UNL     1       6.252  30.567  57.707  1.00  0.00     0.015 A 
HETATM   10  C   UNL     1       4.980  30.046  57.441  1.00  0.00     0.018 A 
HETATM   11  C   UNL     1       4.842  28.865  56.702  1.00  0.00     0.038 A 
HETATM   12  C   UNL     1       5.969  28.212  56.201  1.00  0.00     0.069 A 
HETATM   13  C   UNL     1       7.232  28.767  56.416  1.00  0.00     0.038 A 
HETATM   14  C   UNL     1       7.376  29.937  57.164  1.00  0.00     0.018 A 
BRANCH  12  15
HETATM   15  O   UNL     1       5.969  27.058  55.471  1.00  0.00    -0.347 OA
BRANCH  15  16
HETATM   16  C   UNL     1       6.882  26.986  54.375  1.00  0.00     0.214 C 
BRANCH  16  17
HETATM   17  C   UNL     1       7.193  25.536  54.093  1.00  0.00    -0.034 A 
HETATM   18  C   UNL     1       6.977  24.549  55.063  1.00  0.00     0.010 A 
HETATM   19  C   UNL     1       7.233  23.205  54.780  1.00  0.00     0.007 A 
HETATM   20  C   UNL     1       7.712  22.824  53.521  1.00  0.00    -0.062 A 
HETATM   21  C   UNL     1       7.974  21.382  53.198  1.00  0.00     0.048 C 
HETATM   22  C   UNL     1       7.926  23.807  52.549  1.00  0.00     0.007 A 
HETATM   23  C   UNL     1       7.669  25.149  52.832  1.00  0.00     0.010 A 
ENDBRANCH  16  17
ENDBRANCH  15  16
ENDBRANCH  12  15
ENDBRANCH   7   9
ENDBRANCH   5   7
BRANCH   4  24
HETATM   24  O   UNL     1       5.327  34.146  56.772  1.00  0.00    -0.355 OA
HETATM   25  H   UNL     1       6.070  34.760  56.935  1.00  0.00     0.218 HD
ENDBRANCH   4  24
BRANCH   6  26
HETATM   26  C   UNL     1       5.206  32.785  61.305  1.00  0.00    -0.030 A 
HETATM   27  C   UNL     1       5.130  31.890  62.387  1.00  0.00     0.012 A 
HETATM   28  C   UNL     1       5.791  32.164  63.588  1.00  0.00     0.037 A 
HETATM   29  C   UNL     1       6.535  33.333  63.710  1.00  0.00     0.065 A 
HETATM   30  C   UNL     1       6.621  34.231  62.657  1.00  0.00     0.037 A 
HETATM   31  C   UNL     1       5.956  33.963  61.460  1.00  0.00     0.012 A 
BRANCH  29  32
HETATM   32  O   UNL     1       7.198  33.641  64.859  1.00  0.00    -0.361 OA
HETATM   33  H   UNL     1       7.012  32.963  65.528  1.00  0.00     0.217 HD
ENDBRANCH  29  32
ENDBRANCH   6  26
BRANCH   1  34
HETATM   34  C   UNL     1       2.322  33.628  60.694  1.00  0.00     0.129 C 
BRANCH  34  35
HETATM   35  C   UNL     1       2.314  34.977  61.423  1.00  0.00     0.048 C 
BRANCH  35  36
HETATM   36  C   UNL     1       2.729  34.840  62.886  1.00  0.00     0.236 C 
BRANCH  36  37
HETATM   37  N   UNL     1       3.163  36.184  63.468  1.00  0.00    -0.072 N 
HETATM   38  H   UNL     1       2.319  36.757  63.600  1.00  0.00     0.279 HD
BRANCH  37  39
HETATM   39  C   UNL     1       4.089  36.928  62.518  1.00  0.00     0.230 C 
HETATM   40  C   UNL     1       5.272  37.520  63.263  1.00  0.00     0.034 C 
ENDBRANCH  37  39
BRANCH  37  41
HETATM   41  C   UNL     1       3.802  35.995  64.844  1.00  0.00     0.230 C 
HETATM   42  C   UNL     1       3.666  34.557  65.315  1.00  0.00     0.034 C 
ENDBRANCH  37  41
ENDBRANCH  36  37
ENDBRANCH  35  36
ENDBRANCH  34  35
ENDBRANCH   1  34
TORSDOF 14
ENDMDL
