MODEL 1
REMARK VINA RESULT:      -9.3      0.000      0.000
REMARK  8 active torsions:
REMARK  status: ('A' for Active; 'I' for Inactive)
REMARK    1  A    between atoms: C_2  and  N_3 
REMARK    2  A    between atoms: N_7  and  C_8 
REMARK    3  A    between atoms: C_11  and  N_12 
REMARK       I    between atoms: N_12  and  C_13 
REMARK    4  A    between atoms: C_13  and  C_14 
REMARK    5  A    between atoms: C_17  and  N_18 
REMARK       I    between atoms: N_18  and  C_19 
REMARK    6  A    between atoms: C_19  and  C_20 
REMARK    7  A    between atoms: C_20  and  S_21 
REMARK    8  A    between atoms: S_21  and  C_22 
ROOT
HETATM    1  N   UNL     1       6.868  29.913  58.276  1.00  0.00    -0.323 N 
HETATM    2  C   UNL     1       8.061  30.232  58.897  1.00  0.00     0.256 C 
HETATM    3  O   UNL     1       9.188  29.939  58.522  1.00  0.00    -0.267 OA
HETATM    4  H   UNL     1       6.038  30.378  58.626  1.00  0.00     0.169 HD
ENDROOT
BRANCH   2   5
HETATM    5  C   UNL     1       7.895  31.086  60.105  1.00  0.00     0.032 A 
HETATM    6  C   UNL     1       8.686  30.885  61.241  1.00  0.00     0.019 A 
HETATM    7  C   UNL     1       8.449  31.629  62.400  1.00  0.00     0.030 A 
HETATM    8  C   UNL     1       7.427  32.581  62.439  1.00  0.00     0.034 A 
HETATM    9  C   UNL     1       6.683  32.822  61.276  1.00  0.00     0.030 A 
HETATM   10  C   UNL     1       6.916  32.082  60.111  1.00  0.00     0.019 A 
BRANCH   8  11
HETATM   11  N   UNL     1       7.074  33.302  63.597  1.00  0.00    -0.327 N 
HETATM   12  C   UNL     1       5.907  33.182  64.339  1.00  0.00     0.231 C 
HETATM   13  O   UNL     1       5.028  32.341  64.167  1.00  0.00    -0.272 OA
HETATM   14  H   UNL     1       7.675  34.080  63.846  1.00  0.00     0.169 HD
BRANCH  12  15
HETATM   15  C   UNL     1       5.790  34.211  65.453  1.00  0.00     0.185 C 
BRANCH  15  16
HETATM   16  S   UNL     1       4.047  34.705  65.649  1.00  0.00    -0.083 SA
BRANCH  16  17
HETATM   17  C   UNL     1       3.856  35.698  64.247  1.00  0.00     0.168 A 
HETATM   18  N   UNL     1       3.075  35.342  63.179  1.00  0.00    -0.339 N 
HETATM   19  C   UNL     1       2.317  34.126  63.011  1.00  0.00     0.158 C 
HETATM   20  C   UNL     1       3.133  36.369  62.274  1.00  0.00     0.112 A 
HETATM   21  C   UNL     1       3.967  37.303  62.846  1.00  0.00     0.136 A 
HETATM   22  N   UNL     1       4.416  36.871  64.067  1.00  0.00    -0.235 NA
ENDBRANCH  16  17
ENDBRANCH  15  16
ENDBRANCH  12  15
ENDBRANCH   8  11
ENDBRANCH   2   5
BRANCH   1  23
HETATM   23  C   UNL     1       6.678  29.086  57.153  1.00  0.00     0.035 A 
HETATM   24  C   UNL     1       7.345  29.247  55.944  1.00  0.00     0.032 A 
HETATM   25  C   UNL     1       7.117  28.360  54.879  1.00  0.00     0.031 A 
HETATM   26  C   UNL     1       6.200  27.305  54.978  1.00  0.00     0.030 A 
HETATM   27  C   UNL     1       5.552  27.154  56.213  1.00  0.00     0.031 A 
HETATM   28  C   UNL     1       5.785  28.024  57.285  1.00  0.00     0.032 A 
BRANCH  26  29
HETATM   29  N   UNL     1       5.946  26.402  53.946  1.00  0.00    -0.378 N 
HETATM   30  C   UNL     1       5.390  25.070  54.234  1.00  0.00     0.150 C 
HETATM   31  C   UNL     1       6.498  24.004  54.359  1.00  0.00     0.254 C 
HETATM   32  N   UNL     1       7.405  24.017  53.119  1.00  0.00    -0.068 N 
HETATM   33  H   UNL     1       6.799  23.813  52.313  1.00  0.00     0.280 HD
HETATM   34  C   UNL     1       7.982  25.423  52.908  1.00  0.00     0.254 C 
HETATM   35  C   UNL     1       6.844  26.458  52.775  1.00  0.00     0.150 C 
BRANCH  32  36
HETATM   36  C   UNL     1       8.457  22.938  53.203  1.00  0.00     0.230 C 
HETATM   37  C   UNL     1       7.831  21.562  53.074  1.00  0.00     0.034 C 
ENDBRANCH  32  36
ENDBRANCH  26  29
ENDBRANCH   1  23
TORSDOF 8
ENDMDL
MODEL 2
REMARK VINA RESULT:      -9.3      2.557      3.677
REMARK  8 active torsions:
REMARK  status: ('A' for Active; 'I' for Inactive)
REMARK    1  A    between atoms: C_2  and  N_3 
REMARK    2  A    between atoms: N_7  and  C_8 
REMARK    3  A    between atoms: C_11  and  N_12 
REMARK       I    between atoms: N_12  and  C_13 
REMARK    4  A    between atoms: C_13  and  C_14 
REMARK    5  A    between atoms: C_17  and  N_18 
REMARK       I    between atoms: N_18  and  C_19 
REMARK    6  A    between atoms: C_19  and  C_20 
REMARK    7  A    between atoms: C_20  and  S_21 
REMARK    8  A    between atoms: S_21  and  C_22 
ROOT
HETATM    1  N   UNL     1       6.892  30.974  59.285  1.00  0.00    -0.323 N 
HETATM    2  C   UNL     1       8.042  31.297  59.982  1.00  0.00     0.256 C 
HETATM    3  O   UNL     1       9.196  31.066  59.648  1.00  0.00    -0.267 OA
HETATM    4  H   UNL     1       6.031  31.388  59.619  1.00  0.00     0.169 HD
ENDROOT
BRANCH   2   5
HETATM    5  C   UNL     1       7.787  32.074  61.226  1.00  0.00     0.032 A 
HETATM    6  C   UNL     1       8.434  31.748  62.422  1.00  0.00     0.019 A 
HETATM    7  C   UNL     1       8.108  32.423  63.602  1.00  0.00     0.030 A 
HETATM    8  C   UNL     1       7.139  33.429  63.602  1.00  0.00     0.034 A 
HETATM    9  C   UNL     1       6.543  33.795  62.387  1.00  0.00     0.030 A 
HETATM   10  C   UNL     1       6.865  33.124  61.202  1.00  0.00     0.019 A 
BRANCH   8  11
HETATM   11  N   UNL     1       6.697  34.088  64.766  1.00  0.00    -0.327 N 
HETATM   12  C   UNL     1       5.495  33.897  65.436  1.00  0.00     0.231 C 
HETATM   13  O   UNL     1       4.658  33.035  65.180  1.00  0.00    -0.272 OA
HETATM   14  H   UNL     1       7.255  34.875  65.079  1.00  0.00     0.169 HD
BRANCH  12  15
HETATM   15  C   UNL     1       5.280  34.874  66.581  1.00  0.00     0.185 C 
BRANCH  15  16
HETATM   16  S   UNL     1       4.853  33.955  68.096  1.00  0.00    -0.083 SA
BRANCH  16  17
HETATM   17  C   UNL     1       6.280  34.237  69.031  1.00  0.00     0.168 A 
HETATM   18  N   UNL     1       6.617  33.485  70.126  1.00  0.00    -0.339 N 
HETATM   19  C   UNL     1       5.878  32.386  70.699  1.00  0.00     0.158 C 
HETATM   20  C   UNL     1       7.811  33.965  70.595  1.00  0.00     0.112 A 
HETATM   21  C   UNL     1       8.135  35.004  69.752  1.00  0.00     0.136 A 
HETATM   22  N   UNL     1       7.172  35.168  68.790  1.00  0.00    -0.235 NA
ENDBRANCH  16  17
ENDBRANCH  15  16
ENDBRANCH  12  15
ENDBRANCH   8  11
ENDBRANCH   2   5
BRANCH   1  23
HETATM   23  C   UNL     1       6.788  30.207  58.110  1.00  0.00     0.035 A 
HETATM   24  C   UNL     1       7.396  28.970  57.929  1.00  0.00     0.032 A 
HETATM   25  C   UNL     1       7.221  28.256  56.732  1.00  0.00     0.031 A 
HETATM   26  C   UNL     1       6.456  28.762  55.673  1.00  0.00     0.030 A 
HETATM   27  C   UNL     1       5.839  30.005  55.887  1.00  0.00     0.031 A 
HETATM   28  C   UNL     1       5.997  30.716  57.082  1.00  0.00     0.032 A 
BRANCH  26  29
HETATM   29  N   UNL     1       6.255  28.085  54.471  1.00  0.00    -0.378 N 
HETATM   30  C   UNL     1       5.066  27.240  54.275  1.00  0.00     0.150 C 
HETATM   31  C   UNL     1       5.358  25.761  54.601  1.00  0.00     0.254 C 
HETATM   32  N   UNL     1       6.580  25.263  53.814  1.00  0.00    -0.068 N 
HETATM   33  H   UNL     1       6.350  25.373  52.818  1.00  0.00     0.280 HD
HETATM   34  C   UNL     1       7.789  26.164  54.102  1.00  0.00     0.254 C 
HETATM   35  C   UNL     1       7.463  27.632  53.751  1.00  0.00     0.150 C 
BRANCH  32  36
HETATM   36  C   UNL     1       6.840  23.801  54.079  1.00  0.00     0.230 C 
HETATM   37  C   UNL     1       7.644  23.182  52.951  1.00  0.00     0.034 C 
ENDBRANCH  32  36
ENDBRANCH  26  29
ENDBRANCH   1  23
TORSDOF 8
ENDMDL
MODEL 3
REMARK VINA RESULT:      -8.9      3.621     12.592
REMARK  8 active torsions:
REMARK  status: ('A' for Active; 'I' for Inactive)
REMARK    1  A    between atoms: C_2  and  N_3 
REMARK    2  A    between atoms: N_7  and  C_8 
REMARK    3  A    between atoms: C_11  and  N_12 
REMARK       I    between atoms: N_12  and  C_13 
REMARK    4  A    between atoms: C_13  and  C_14 
REMARK    5  A    between atoms: C_17  and  N_18 
REMARK       I    between atoms: N_18  and  C_19 
REMARK    6  A    between atoms: C_19  and  C_20 
REMARK    7  A    between atoms: C_20  and  S_21 
REMARK    8  A    between atoms: S_21  and  C_22 
ROOT
HETATM    1  N   UNL     1       7.159  30.698  59.911  1.00  0.00    -0.323 N 
HETATM    2  C   UNL     1       7.934  30.760  58.767  1.00  0.00     0.256 C 
HETATM    3  O   UNL     1       8.810  31.575  58.514  1.00  0.00    -0.267 OA
HETATM    4  H   UNL     1       6.601  29.862  60.034  1.00  0.00     0.169 HD
ENDROOT
BRANCH   2   5
HETATM    5  C   UNL     1       7.681  29.644  57.814  1.00  0.00     0.032 A 
HETATM    6  C   UNL     1       6.409  29.441  57.268  1.00  0.00     0.019 A 
HETATM    7  C   UNL     1       6.166  28.331  56.455  1.00  0.00     0.030 A 
HETATM    8  C   UNL     1       7.183  27.415  56.175  1.00  0.00     0.034 A 
HETATM    9  C   UNL     1       8.470  27.662  56.674  1.00  0.00     0.030 A 
HETATM   10  C   UNL     1       8.722  28.772  57.488  1.00  0.00     0.019 A 
BRANCH   8  11
HETATM   11  N   UNL     1       6.988  26.230  55.440  1.00  0.00    -0.327 N 
HETATM   12  C   UNL     1       6.721  26.117  54.082  1.00  0.00     0.231 C 
HETATM   13  O   UNL     1       6.717  27.039  53.270  1.00  0.00    -0.272 OA
HETATM   14  H   UNL     1       6.908  25.373  55.977  1.00  0.00     0.169 HD
BRANCH  12  15
HETATM   15  C   UNL     1       6.431  24.691  53.640  1.00  0.00     0.185 C 
BRANCH  15  16
HETATM   16  S   UNL     1       7.997  23.836  53.265  1.00  0.00    -0.083 SA
BRANCH  16  17
HETATM   17  C   UNL     1       8.135  22.834  54.668  1.00  0.00     0.168 A 
HETATM   18  N   UNL     1       8.046  21.467  54.621  1.00  0.00    -0.339 N 
HETATM   19  C   UNL     1       7.810  20.640  53.463  1.00  0.00     0.158 C 
HETATM   20  C   UNL     1       8.230  21.006  55.898  1.00  0.00     0.112 A 
HETATM   21  C   UNL     1       8.414  22.135  56.663  1.00  0.00     0.136 A 
HETATM   22  N   UNL     1       8.344  23.265  55.889  1.00  0.00    -0.235 NA
ENDBRANCH  16  17
ENDBRANCH  15  16
ENDBRANCH  12  15
ENDBRANCH   8  11
ENDBRANCH   2   5
BRANCH   1  23
HETATM   23  C   UNL     1       7.119  31.622  60.972  1.00  0.00     0.035 A 
HETATM   24  C   UNL     1       7.928  31.550  62.100  1.00  0.00     0.032 A 
HETATM   25  C   UNL     1       7.843  32.528  63.104  1.00  0.00     0.031 A 
HETATM   26  C   UNL     1       6.935  33.592  63.026  1.00  0.00     0.030 A 
HETATM   27  C   UNL     1       6.141  33.652  61.870  1.00  0.00     0.031 A 
HETATM   28  C   UNL     1       6.229  32.689  60.858  1.00  0.00     0.032 A 
BRANCH  26  29
HETATM   29  N   UNL     1       6.820  34.585  63.998  1.00  0.00    -0.378 N 
HETATM   30  C   UNL     1       7.543  34.473  65.275  1.00  0.00     0.150 C 
HETATM   31  C   UNL     1       6.664  33.846  66.376  1.00  0.00     0.254 C 
HETATM   32  N   UNL     1       5.336  34.608  66.509  1.00  0.00    -0.068 N 
HETATM   33  H   UNL     1       5.580  35.577  66.751  1.00  0.00     0.280 HD
HETATM   34  C   UNL     1       4.618  34.646  65.152  1.00  0.00     0.254 C 
HETATM   35  C   UNL     1       5.525  35.290  64.081  1.00  0.00     0.150 C 
BRANCH  32  36
HETATM   36  C   UNL     1       4.492  34.042  67.623  1.00  0.00     0.230 C 
HETATM   37  C   UNL     1       5.279  33.982  68.919  1.00  0.00     0.034 C 
ENDBRANCH  32  36
ENDBRANCH  26  29
ENDBRANCH   1  23
TORSDOF 8
ENDMDL
MODEL 4
REMARK VINA RESULT:      -8.8      3.394     12.538
REMARK  8 active torsions:
REMARK  status: ('A' for Active; 'I' for Inactive)
REMARK    1  A    between atoms: C_2  and  N_3 
REMARK    2  A    between atoms: N_7  and  C_8 
REMARK    3  A    between atoms: C_11  and  N_12 
REMARK       I    between atoms: N_12  and  C_13 
REMARK    4  A    between atoms: C_13  and  C_14 
REMARK    5  A    between atoms: C_17  and  N_18 
REMARK       I    between atoms: N_18  and  C_19 
REMARK    6  A    between atoms: C_19  and  C_20 
REMARK    7  A    between atoms: C_20  and  S_21 
REMARK    8  A    between atoms: S_21  and  C_22 
ROOT
HETATM    1  N   UNL     1       7.389  30.819  60.281  1.00  0.00    -0.323 N 
HETATM    2  C   UNL     1       8.070  31.021  59.094  1.00  0.00     0.256 C 
HETATM    3  O   UNL     1       8.740  31.997  58.788  1.00  0.00    -0.267 OA
HETATM    4  H   UNL     1       7.027  29.886  60.440  1.00  0.00     0.169 HD
ENDROOT
BRANCH   2   5
HETATM    5  C   UNL     1       8.005  29.861  58.164  1.00  0.00     0.032 A 
HETATM    6  C   UNL     1       9.173  29.276  57.662  1.00  0.00     0.019 A 
HETATM    7  C   UNL     1       9.092  28.254  56.713  1.00  0.00     0.030 A 
HETATM    8  C   UNL     1       7.851  27.802  56.256  1.00  0.00     0.034 A 
HETATM    9  C   UNL     1       6.686  28.348  56.813  1.00  0.00     0.030 A 
HETATM   10  C   UNL     1       6.759  29.371  57.765  1.00  0.00     0.019 A 
BRANCH   8  11
HETATM   11  N   UNL     1       7.696  26.841  55.239  1.00  0.00    -0.327 N 
HETATM   12  C   UNL     1       7.332  27.066  53.917  1.00  0.00     0.231 C 
HETATM   13  O   UNL     1       7.190  28.165  53.388  1.00  0.00    -0.272 OA
HETATM   14  H   UNL     1       7.728  25.868  55.526  1.00  0.00     0.169 HD
BRANCH  12  15
HETATM   15  C   UNL     1       7.125  25.786  53.122  1.00  0.00     0.185 C 
BRANCH  15  16
HETATM   16  S   UNL     1       6.277  24.551  54.160  1.00  0.00    -0.083 SA
BRANCH  16  17
HETATM   17  C   UNL     1       7.440  23.272  54.115  1.00  0.00     0.168 A 
HETATM   18  N   UNL     1       8.231  22.943  55.185  1.00  0.00    -0.339 N 
HETATM   19  C   UNL     1       8.266  23.577  56.480  1.00  0.00     0.158 C 
HETATM   20  C   UNL     1       9.002  21.876  54.805  1.00  0.00     0.112 A 
HETATM   21  C   UNL     1       8.639  21.617  53.503  1.00  0.00     0.136 A 
HETATM   22  N   UNL     1       7.674  22.496  53.083  1.00  0.00    -0.235 NA
ENDBRANCH  16  17
ENDBRANCH  15  16
ENDBRANCH  12  15
ENDBRANCH   8  11
ENDBRANCH   2   5
BRANCH   1  23
HETATM   23  C   UNL     1       7.214  31.731  61.337  1.00  0.00     0.035 A 
HETATM   24  C   UNL     1       7.978  31.736  62.499  1.00  0.00     0.032 A 
HETATM   25  C   UNL     1       7.756  32.700  63.496  1.00  0.00     0.031 A 
HETATM   26  C   UNL     1       6.751  33.670  63.378  1.00  0.00     0.030 A 
HETATM   27  C   UNL     1       6.005  33.654  62.189  1.00  0.00     0.031 A 
HETATM   28  C   UNL     1       6.230  32.706  61.184  1.00  0.00     0.032 A 
BRANCH  26  29
HETATM   29  N   UNL     1       6.499  34.645  64.343  1.00  0.00    -0.378 N 
HETATM   30  C   UNL     1       7.316  34.721  65.564  1.00  0.00     0.150 C 
HETATM   31  C   UNL     1       6.665  33.957  66.735  1.00  0.00     0.254 C 
HETATM   32  N   UNL     1       5.219  34.431  66.954  1.00  0.00    -0.068 N 
HETATM   33  H   UNL     1       5.272  35.436  67.165  1.00  0.00     0.280 HD
HETATM   34  C   UNL     1       4.418  34.281  65.654  1.00  0.00     0.254 C 
HETATM   35  C   UNL     1       5.094  35.068  64.510  1.00  0.00     0.150 C 
BRANCH  32  36
HETATM   36  C   UNL     1       4.591  33.734  68.135  1.00  0.00     0.230 C 
HETATM   37  C   UNL     1       5.513  33.776  69.340  1.00  0.00     0.034 C 
ENDBRANCH  32  36
ENDBRANCH  26  29
ENDBRANCH   1  23
TORSDOF 8
ENDMDL
MODEL 5
REMARK VINA RESULT:      -8.8      3.427     12.696
REMARK  8 active torsions:
REMARK  status: ('A' for Active; 'I' for Inactive)
REMARK    1  A    between atoms: C_2  and  N_3 
REMARK    2  A    between atoms: N_7  and  C_8 
REMARK    3  A    between atoms: C_11  and  N_12 
REMARK       I    between atoms: N_12  and  C_13 
REMARK    4  A    between atoms: C_13  and  C_14 
REMARK    5  A    between atoms: C_17  and  N_18 
REMARK       I    between atoms: N_18  and  C_19 
REMARK    6  A    between atoms: C_19  and  C_20 
REMARK    7  A    between atoms: C_20  and  S_21 
REMARK    8  A    between atoms: S_21  and  C_22 
ROOT
HETATM    1  N   UNL     1       6.204  31.200  59.423  1.00  0.00    -0.323 N 
HETATM    2  C   UNL     1       7.348  31.031  58.664  1.00  0.00     0.256 C 
HETATM    3  O   UNL     1       8.289  31.807  58.568  1.00  0.00    -0.267 OA
HETATM    4  H   UNL     1       5.606  30.389  59.524  1.00  0.00     0.169 HD
ENDROOT
BRANCH   2   5
HETATM    5  C   UNL     1       7.416  29.714  57.973  1.00  0.00     0.032 A 
HETATM    6  C   UNL     1       8.639  29.058  57.797  1.00  0.00     0.019 A 
HETATM    7  C   UNL     1       8.698  27.873  57.059  1.00  0.00     0.030 A 
HETATM    8  C   UNL     1       7.543  27.327  56.494  1.00  0.00     0.034 A 
HETATM    9  C   UNL     1       6.312  27.956  56.731  1.00  0.00     0.030 A 
HETATM   10  C   UNL     1       6.246  29.143  57.470  1.00  0.00     0.019 A 
BRANCH   8  11
HETATM   11  N   UNL     1       7.541  26.188  55.665  1.00  0.00    -0.327 N 
HETATM   12  C   UNL     1       7.529  26.157  54.277  1.00  0.00     0.231 C 
HETATM   13  O   UNL     1       7.627  27.131  53.535  1.00  0.00    -0.272 OA
HETATM   14  H   UNL     1       7.406  25.294  56.127  1.00  0.00     0.169 HD
BRANCH  12  15
HETATM   15  C   UNL     1       7.392  24.754  53.705  1.00  0.00     0.185 C 
BRANCH  15  16
HETATM   16  S   UNL     1       7.030  23.579  55.050  1.00  0.00    -0.083 SA
BRANCH  16  17
HETATM   17  C   UNL     1       7.720  22.140  54.385  1.00  0.00     0.168 A 
HETATM   18  N   UNL     1       8.325  21.178  55.151  1.00  0.00    -0.339 N 
HETATM   19  C   UNL     1       8.516  21.184  56.581  1.00  0.00     0.158 C 
HETATM   20  C   UNL     1       8.724  20.178  54.303  1.00  0.00     0.112 A 
HETATM   21  C   UNL     1       8.343  20.598  53.050  1.00  0.00     0.136 A 
HETATM   22  N   UNL     1       7.728  21.821  53.112  1.00  0.00    -0.235 NA
ENDBRANCH  16  17
ENDBRANCH  15  16
ENDBRANCH  12  15
ENDBRANCH   8  11
ENDBRANCH   2   5
BRANCH   1  23
HETATM   23  C   UNL     1       5.816  32.341  60.149  1.00  0.00     0.035 A 
HETATM   24  C   UNL     1       4.744  33.157  59.806  1.00  0.00     0.032 A 
HETATM   25  C   UNL     1       4.407  34.265  60.599  1.00  0.00     0.031 A 
HETATM   26  C   UNL     1       5.141  34.608  61.742  1.00  0.00     0.030 A 
HETATM   27  C   UNL     1       6.208  33.760  62.077  1.00  0.00     0.031 A 
HETATM   28  C   UNL     1       6.542  32.645  61.299  1.00  0.00     0.032 A 
BRANCH  26  29
HETATM   29  N   UNL     1       4.839  35.698  62.558  1.00  0.00    -0.378 N 
HETATM   30  C   UNL     1       5.706  36.049  63.694  1.00  0.00     0.150 C 
HETATM   31  C   UNL     1       5.201  35.427  65.012  1.00  0.00     0.254 C 
HETATM   32  N   UNL     1       3.728  35.791  65.253  1.00  0.00    -0.068 N 
HETATM   33  H   UNL     1       3.685  36.817  65.299  1.00  0.00     0.280 HD
HETATM   34  C   UNL     1       2.879  35.356  64.050  1.00  0.00     0.254 C 
HETATM   35  C   UNL     1       3.408  36.007  62.753  1.00  0.00     0.150 C 
BRANCH  32  36
HETATM   36  C   UNL     1       3.239  35.238  66.569  1.00  0.00     0.230 C 
HETATM   37  C   UNL     1       4.292  34.351  67.206  1.00  0.00     0.034 C 
ENDBRANCH  32  36
ENDBRANCH  26  29
ENDBRANCH   1  23
TORSDOF 8
ENDMDL
MODEL 6
REMARK VINA RESULT:      -8.6      3.647     12.752
REMARK  8 active torsions:
REMARK  status: ('A' for Active; 'I' for Inactive)
REMARK    1  A    between atoms: C_2  and  N_3 
REMARK    2  A    between atoms: N_7  and  C_8 
REMARK    3  A    between atoms: C_11  and  N_12 
REMARK       I    between atoms: N_12  and  C_13 
REMARK    4  A    between atoms: C_13  and  C_14 
REMARK    5  A    between atoms: C_17  and  N_18 
REMARK       I    between atoms: N_18  and  C_19 
REMARK    6  A    between atoms: C_19  and  C_20 
REMARK    7  A    between atoms: C_20  and  S_21 
REMARK    8  A    between atoms: S_21  and  C_22 
ROOT
HETATM    1  N   UNL     1       6.056  31.632  59.546  1.00  0.00    -0.323 N 
HETATM    2  C   UNL     1       7.274  31.510  58.904  1.00  0.00     0.256 C 
HETATM    3  O   UNL     1       8.213  32.293  58.949  1.00  0.00    -0.267 OA
HETATM    4  H   UNL     1       5.458  30.815  59.540  1.00  0.00     0.169 HD
ENDROOT
BRANCH   2   5
HETATM    5  C   UNL     1       7.428  30.232  58.155  1.00  0.00     0.032 A 
HETATM    6  C   UNL     1       6.308  29.494  57.758  1.00  0.00     0.019 A 
HETATM    7  C   UNL     1       6.472  28.248  57.145  1.00  0.00     0.030 A 
HETATM    8  C   UNL     1       7.749  27.729  56.918  1.00  0.00     0.034 A 
HETATM    9  C   UNL     1       8.866  28.505  57.259  1.00  0.00     0.030 A 
HETATM   10  C   UNL     1       8.709  29.753  57.873  1.00  0.00     0.019 A 
BRANCH   8  11
HETATM   11  N   UNL     1       7.988  26.445  56.388  1.00  0.00    -0.327 N 
HETATM   12  C   UNL     1       8.352  25.302  57.086  1.00  0.00     0.231 C 
HETATM   13  O   UNL     1       8.422  25.196  58.308  1.00  0.00    -0.272 OA
HETATM   14  H   UNL     1       8.022  26.373  55.377  1.00  0.00     0.169 HD
BRANCH  12  15
HETATM   15  C   UNL     1       8.663  24.117  56.184  1.00  0.00     0.185 C 
BRANCH  15  16
HETATM   16  S   UNL     1       7.139  23.569  55.348  1.00  0.00    -0.083 SA
BRANCH  16  17
HETATM   17  C   UNL     1       7.752  22.216  54.463  1.00  0.00     0.168 A 
HETATM   18  N   UNL     1       8.099  21.031  55.055  1.00  0.00    -0.339 N 
HETATM   19  C   UNL     1       8.048  20.701  56.458  1.00  0.00     0.158 C 
HETATM   20  C   UNL     1       8.510  20.185  54.058  1.00  0.00     0.112 A 
HETATM   21  C   UNL     1       8.398  20.918  52.899  1.00  0.00     0.136 A 
HETATM   22  N   UNL     1       7.933  22.181  53.164  1.00  0.00    -0.235 NA
ENDBRANCH  16  17
ENDBRANCH  15  16
ENDBRANCH  12  15
ENDBRANCH   8  11
ENDBRANCH   2   5
BRANCH   1  23
HETATM   23  C   UNL     1       5.582  32.731  60.286  1.00  0.00     0.035 A 
HETATM   24  C   UNL     1       6.072  33.101  61.534  1.00  0.00     0.032 A 
HETATM   25  C   UNL     1       5.560  34.229  62.196  1.00  0.00     0.031 A 
HETATM   26  C   UNL     1       4.531  35.006  61.648  1.00  0.00     0.030 A 
HETATM   27  C   UNL     1       4.065  34.622  60.381  1.00  0.00     0.031 A 
HETATM   28  C   UNL     1       4.579  33.507  59.708  1.00  0.00     0.032 A 
BRANCH  26  29
HETATM   29  N   UNL     1       3.997  36.134  62.271  1.00  0.00    -0.378 N 
HETATM   30  C   UNL     1       3.996  37.438  61.590  1.00  0.00     0.150 C 
HETATM   31  C   UNL     1       5.220  38.289  61.984  1.00  0.00     0.254 C 
HETATM   32  N   UNL     1       5.325  38.414  63.512  1.00  0.00    -0.068 N 
HETATM   33  H   UNL     1       4.456  38.866  63.827  1.00  0.00     0.280 HD
HETATM   34  C   UNL     1       5.366  37.018  64.149  1.00  0.00     0.254 C 
HETATM   35  C   UNL     1       4.119  36.203  63.742  1.00  0.00     0.150 C 
BRANCH  32  36
HETATM   36  C   UNL     1       6.485  39.293  63.908  1.00  0.00     0.230 C 
HETATM   37  C   UNL     1       7.099  39.958  62.690  1.00  0.00     0.034 C 
ENDBRANCH  32  36
ENDBRANCH  26  29
ENDBRANCH   1  23
TORSDOF 8
ENDMDL
MODEL 7
REMARK VINA RESULT:      -8.3      3.507     12.828
REMARK  8 active torsions:
REMARK  status: ('A' for Active; 'I' for Inactive)
REMARK    1  A    between atoms: C_2  and  N_3 
REMARK    2  A    between atoms: N_7  and  C_8 
REMARK    3  A    between atoms: C_11  and  N_12 
REMARK       I    between atoms: N_12  and  C_13 
REMARK    4  A    between atoms: C_13  and  C_14 
REMARK    5  A    between atoms: C_17  and  N_18 
REMARK       I    between atoms: N_18  and  C_19 
REMARK    6  A    between atoms: C_19  and  C_20 
REMARK    7  A    between atoms: C_20  and  S_21 
REMARK    8  A    between atoms: S_21  and  C_22 
ROOT
HETATM    1  N   UNL     1       6.156  31.445  59.762  1.00  0.00    -0.323 N 
HETATM    2  C   UNL     1       6.212  31.441  58.380  1.00  0.00     0.256 C 
HETATM    3  O   UNL     1       6.115  32.407  57.637  1.00  0.00    -0.267 OA
HETATM    4  H   UNL     1       6.425  30.586  60.227  1.00  0.00     0.169 HD
ENDROOT
BRANCH   2   5
HETATM    5  C   UNL     1       6.498  30.100  57.799  1.00  0.00     0.032 A 
HETATM    6  C   UNL     1       7.810  29.626  57.699  1.00  0.00     0.019 A 
HETATM    7  C   UNL     1       8.068  28.410  57.060  1.00  0.00     0.030 A 
HETATM    8  C   UNL     1       7.025  27.654  56.519  1.00  0.00     0.034 A 
HETATM    9  C   UNL     1       5.708  28.105  56.681  1.00  0.00     0.030 A 
HETATM   10  C   UNL     1       5.442  29.321  57.320  1.00  0.00     0.019 A 
BRANCH   8  11
HETATM   11  N   UNL     1       7.219  26.468  55.785  1.00  0.00    -0.327 N 
HETATM   12  C   UNL     1       7.395  26.346  54.412  1.00  0.00     0.231 C 
HETATM   13  O   UNL     1       7.517  27.275  53.618  1.00  0.00    -0.272 OA
HETATM   14  H   UNL     1       7.093  25.598  56.291  1.00  0.00     0.169 HD
BRANCH  12  15
HETATM   15  C   UNL     1       7.441  24.903  53.935  1.00  0.00     0.185 C 
BRANCH  15  16
HETATM   16  S   UNL     1       7.291  23.781  55.363  1.00  0.00    -0.083 SA
BRANCH  16  17
HETATM   17  C   UNL     1       7.764  22.291  54.625  1.00  0.00     0.168 A 
HETATM   18  N   UNL     1       8.185  21.202  55.343  1.00  0.00    -0.339 N 
HETATM   19  C   UNL     1       8.333  21.095  56.773  1.00  0.00     0.158 C 
HETATM   20  C   UNL     1       8.446  20.201  54.443  1.00  0.00     0.112 A 
HETATM   21  C   UNL     1       8.173  20.748  53.210  1.00  0.00     0.136 A 
HETATM   22  N   UNL     1       7.758  22.049  53.335  1.00  0.00    -0.235 NA
ENDBRANCH  16  17
ENDBRANCH  15  16
ENDBRANCH  12  15
ENDBRANCH   8  11
ENDBRANCH   2   5
BRANCH   1  23
HETATM   23  C   UNL     1       5.855  32.530  60.606  1.00  0.00     0.035 A 
HETATM   24  C   UNL     1       6.750  33.085  61.513  1.00  0.00     0.032 A 
HETATM   25  C   UNL     1       6.378  34.186  62.302  1.00  0.00     0.031 A 
HETATM   26  C   UNL     1       5.097  34.749  62.229  1.00  0.00     0.030 A 
HETATM   27  C   UNL     1       4.217  34.181  61.295  1.00  0.00     0.031 A 
HETATM   28  C   UNL     1       4.585  33.093  60.495  1.00  0.00     0.032 A 
BRANCH  26  29
HETATM   29  N   UNL     1       4.688  35.843  62.993  1.00  0.00    -0.378 N 
HETATM   30  C   UNL     1       3.419  36.528  62.702  1.00  0.00     0.150 C 
HETATM   31  C   UNL     1       3.627  37.750  61.785  1.00  0.00     0.254 C 
HETATM   32  N   UNL     1       4.693  38.691  62.368  1.00  0.00    -0.068 N 
HETATM   33  H   UNL     1       4.346  38.988  63.290  1.00  0.00     0.280 HD
HETATM   34  C   UNL     1       5.999  37.919  62.603  1.00  0.00     0.254 C 
HETATM   35  C   UNL     1       5.752  36.712  63.534  1.00  0.00     0.150 C 
BRANCH  32  36
HETATM   36  C   UNL     1       4.863  39.920  61.510  1.00  0.00     0.230 C 
HETATM   37  C   UNL     1       3.593  40.750  61.498  1.00  0.00     0.034 C 
ENDBRANCH  32  36
ENDBRANCH  26  29
ENDBRANCH   1  23
TORSDOF 8
ENDMDL
MODEL 8
REMARK VINA RESULT:      -7.7      4.027     12.502
REMARK  8 active torsions:
REMARK  status: ('A' for Active; 'I' for Inactive)
REMARK    1  A    between atoms: C_2  and  N_3 
REMARK    2  A    between atoms: N_7  and  C_8 
REMARK    3  A    between atoms: C_11  and  N_12 
REMARK       I    between atoms: N_12  and  C_13 
REMARK    4  A    between atoms: C_13  and  C_14 
REMARK    5  A    between atoms: C_17  and  N_18 
REMARK       I    between atoms: N_18  and  C_19 
REMARK    6  A    between atoms: C_19  and  C_20 
REMARK    7  A    between atoms: C_20  and  S_21 
REMARK    8  A    between atoms: S_21  and  C_22 
ROOT
HETATM    1  N   UNL     1       5.020  30.546  58.031  1.00  0.00    -0.323 N 
HETATM    2  C   UNL     1       4.544  30.204  56.778  1.00  0.00     0.256 C 
HETATM    3  O   UNL     1       3.712  30.809  56.116  1.00  0.00    -0.267 OA
HETATM    4  H   UNL     1       5.828  30.034  58.362  1.00  0.00     0.169 HD
ENDROOT
BRANCH   2   5
HETATM    5  C   UNL     1       5.207  29.005  56.195  1.00  0.00     0.032 A 
HETATM    6  C   UNL     1       5.730  29.034  54.898  1.00  0.00     0.019 A 
HETATM    7  C   UNL     1       6.259  27.871  54.331  1.00  0.00     0.030 A 
HETATM    8  C   UNL     1       6.276  26.673  55.048  1.00  0.00     0.034 A 
HETATM    9  C   UNL     1       5.810  26.669  56.370  1.00  0.00     0.030 A 
HETATM   10  C   UNL     1       5.280  27.830  56.945  1.00  0.00     0.019 A 
BRANCH   8  11
HETATM   11  N   UNL     1       6.710  25.445  54.510  1.00  0.00    -0.327 N 
HETATM   12  C   UNL     1       6.103  24.707  53.502  1.00  0.00     0.231 C 
HETATM   13  O   UNL     1       5.136  25.062  52.834  1.00  0.00    -0.272 OA
HETATM   14  H   UNL     1       7.476  24.986  54.992  1.00  0.00     0.169 HD
BRANCH  12  15
HETATM   15  C   UNL     1       6.765  23.360  53.259  1.00  0.00     0.185 C 
BRANCH  15  16
HETATM   16  S   UNL     1       8.500  23.421  53.815  1.00  0.00    -0.083 SA
BRANCH  16  17
HETATM   17  C   UNL     1       8.510  22.085  54.913  1.00  0.00     0.168 A 
HETATM   18  N   UNL     1       8.406  22.233  56.271  1.00  0.00    -0.339 N 
HETATM   19  C   UNL     1       8.297  23.464  57.016  1.00  0.00     0.158 C 
HETATM   20  C   UNL     1       8.419  20.977  56.818  1.00  0.00     0.112 A 
HETATM   21  C   UNL     1       8.541  20.122  55.746  1.00  0.00     0.136 A 
HETATM   22  N   UNL     1       8.605  20.822  54.569  1.00  0.00    -0.235 NA
ENDBRANCH  16  17
ENDBRANCH  15  16
ENDBRANCH  12  15
ENDBRANCH   8  11
ENDBRANCH   2   5
BRANCH   1  23
HETATM   23  C   UNL     1       4.569  31.585  58.866  1.00  0.00     0.035 A 
HETATM   24  C   UNL     1       3.340  31.586  59.517  1.00  0.00     0.032 A 
HETATM   25  C   UNL     1       2.976  32.653  60.354  1.00  0.00     0.031 A 
HETATM   26  C   UNL     1       3.813  33.760  60.549  1.00  0.00     0.030 A 
HETATM   27  C   UNL     1       5.054  33.728  59.894  1.00  0.00     0.031 A 
HETATM   28  C   UNL     1       5.431  32.662  59.069  1.00  0.00     0.032 A 
BRANCH  26  29
HETATM   29  N   UNL     1       3.491  34.838  61.373  1.00  0.00    -0.378 N 
HETATM   30  C   UNL     1       4.543  35.574  62.092  1.00  0.00     0.150 C 
HETATM   31  C   UNL     1       4.732  35.043  63.528  1.00  0.00     0.254 C 
HETATM   32  N   UNL     1       3.393  35.030  64.281  1.00  0.00    -0.068 N 
HETATM   33  H   UNL     1       3.058  36.002  64.298  1.00  0.00     0.280 HD
HETATM   34  C   UNL     1       2.360  34.209  63.496  1.00  0.00     0.254 C 
HETATM   35  C   UNL     1       2.190  34.778  62.071  1.00  0.00     0.150 C 
BRANCH  32  36
HETATM   36  C   UNL     1       3.574  34.569  65.706  1.00  0.00     0.230 C 
HETATM   37  C   UNL     1       4.876  33.806  65.865  1.00  0.00     0.034 C 
ENDBRANCH  32  36
ENDBRANCH  26  29
ENDBRANCH   1  23
TORSDOF 8
ENDMDL
MODEL 9
REMARK VINA RESULT:      -7.7      8.649     12.929
REMARK  8 active torsions:
REMARK  status: ('A' for Active; 'I' for Inactive)
REMARK    1  A    between atoms: C_2  and  N_3 
REMARK    2  A    between atoms: N_7  and  C_8 
REMARK    3  A    between atoms: C_11  and  N_12 
REMARK       I    between atoms: N_12  and  C_13 
REMARK    4  A    between atoms: C_13  and  C_14 
REMARK    5  A    between atoms: C_17  and  N_18 
REMARK       I    between atoms: N_18  and  C_19 
REMARK    6  A    between atoms: C_19  and  C_20 
REMARK    7  A    between atoms: C_20  and  S_21 
REMARK    8  A    between atoms: S_21  and  C_22 
ROOT
HETATM    1  N   UNL     1       3.121  27.795  50.028  1.00  0.00    -0.323 N 
HETATM    2  C   UNL     1       4.500  27.710  50.086  1.00  0.00     0.256 C 
HETATM    3  O   UNL     1       5.300  28.148  49.271  1.00  0.00    -0.267 OA
HETATM    4  H   UNL     1       2.617  27.533  50.866  1.00  0.00     0.169 HD
ENDROOT
BRANCH   2   5
HETATM    5  C   UNL     1       5.007  27.075  51.334  1.00  0.00     0.032 A 
HETATM    6  C   UNL     1       5.239  27.836  52.484  1.00  0.00     0.019 A 
HETATM    7  C   UNL     1       5.808  27.242  53.614  1.00  0.00     0.030 A 
HETATM    8  C   UNL     1       6.148  25.887  53.611  1.00  0.00     0.034 A 
HETATM    9  C   UNL     1       5.852  25.117  52.477  1.00  0.00     0.030 A 
HETATM   10  C   UNL     1       5.281  25.705  51.343  1.00  0.00     0.019 A 
BRANCH   8  11
HETATM   11  N   UNL     1       6.806  25.244  54.678  1.00  0.00    -0.327 N 
HETATM   12  C   UNL     1       6.315  25.023  55.958  1.00  0.00     0.231 C 
HETATM   13  O   UNL     1       5.172  25.262  56.341  1.00  0.00    -0.272 OA
HETATM   14  H   UNL     1       7.788  25.029  54.541  1.00  0.00     0.169 HD
BRANCH  12  15
HETATM   15  C   UNL     1       7.342  24.420  56.903  1.00  0.00     0.185 C 
BRANCH  15  16
HETATM   16  S   UNL     1       8.827  23.936  55.964  1.00  0.00    -0.083 SA
BRANCH  16  17
HETATM   17  C   UNL     1       8.509  22.250  55.746  1.00  0.00     0.168 A 
HETATM   18  N   UNL     1       8.225  21.695  54.526  1.00  0.00    -0.339 N 
HETATM   19  C   UNL     1       8.119  22.370  53.256  1.00  0.00     0.158 C 
HETATM   20  C   UNL     1       8.061  20.349  54.722  1.00  0.00     0.112 A 
HETATM   21  C   UNL     1       8.246  20.159  56.073  1.00  0.00     0.136 A 
HETATM   22  N   UNL     1       8.516  21.349  56.699  1.00  0.00    -0.235 NA
ENDBRANCH  16  17
ENDBRANCH  15  16
ENDBRANCH  12  15
ENDBRANCH   8  11
ENDBRANCH   2   5
BRANCH   1  23
HETATM   23  C   UNL     1       2.335  28.288  48.970  1.00  0.00     0.035 A 
HETATM   24  C   UNL     1       2.254  29.631  48.619  1.00  0.00     0.032 A 
HETATM   25  C   UNL     1       1.464  30.039  47.531  1.00  0.00     0.031 A 
HETATM   26  C   UNL     1       0.713  29.126  46.778  1.00  0.00     0.030 A 
HETATM   27  C   UNL     1       0.825  27.775  47.142  1.00  0.00     0.031 A 
HETATM   28  C   UNL     1       1.621  27.359  48.216  1.00  0.00     0.032 A 
BRANCH  26  29
HETATM   29  N   UNL     1      -0.081  29.488  45.691  1.00  0.00    -0.378 N 
HETATM   30  C   UNL     1      -0.088  30.873  45.194  1.00  0.00     0.150 C 
HETATM   31  C   UNL     1      -1.243  31.693  45.805  1.00  0.00     0.254 C 
HETATM   32  N   UNL     1      -2.586  30.977  45.594  1.00  0.00    -0.068 N 
HETATM   33  H   UNL     1      -2.710  30.884  44.578  1.00  0.00     0.280 HD
HETATM   34  C   UNL     1      -2.519  29.558  46.175  1.00  0.00     0.254 C 
HETATM   35  C   UNL     1      -1.360  28.766  45.531  1.00  0.00     0.150 C 
BRANCH  32  36
HETATM   36  C   UNL     1      -3.731  31.798  46.135  1.00  0.00     0.230 C 
HETATM   37  C   UNL     1      -4.765  30.910  46.801  1.00  0.00     0.034 C 
ENDBRANCH  32  36
ENDBRANCH  26  29
ENDBRANCH   1  23
TORSDOF 8
ENDMDL
MODEL 10
REMARK VINA RESULT:      -7.7      3.459     12.406
REMARK  8 active torsions:
REMARK  status: ('A' for Active; 'I' for Inactive)
REMARK    1  A    between atoms: C_2  and  N_3 
REMARK    2  A    between atoms: N_7  and  C_8 
REMARK    3  A    between atoms: C_11  and  N_12 
REMARK       I    between atoms: N_12  and  C_13 
REMARK    4  A    between atoms: C_13  and  C_14 
REMARK    5  A    between atoms: C_17  and  N_18 
REMARK       I    between atoms: N_18  and  C_19 
REMARK    6  A    between atoms: C_19  and  C_20 
REMARK    7  A    between atoms: C_20  and  S_21 
REMARK    8  A    between atoms: S_21  and  C_22 
ROOT
HETATM    1  N   UNL     1       5.512  32.155  60.050  1.00  0.00    -0.323 N 
HETATM    2  C   UNL     1       5.558  32.528  58.719  1.00  0.00     0.256 C 
HETATM    3  O   UNL     1       5.417  33.655  58.265  1.00  0.00    -0.267 OA
HETATM    4  H   UNL     1       5.819  31.214  60.266  1.00  0.00     0.169 HD
ENDROOT
BRANCH   2   5
HETATM    5  C   UNL     1       5.892  31.408  57.797  1.00  0.00     0.032 A 
HETATM    6  C   UNL     1       5.261  31.289  56.555  1.00  0.00     0.019 A 
HETATM    7  C   UNL     1       5.512  30.177  55.745  1.00  0.00     0.030 A 
HETATM    8  C   UNL     1       6.395  29.178  56.162  1.00  0.00     0.034 A 
HETATM    9  C   UNL     1       7.072  29.338  57.379  1.00  0.00     0.030 A 
HETATM   10  C   UNL     1       6.826  30.449  58.194  1.00  0.00     0.019 A 
BRANCH   8  11
HETATM   11  N   UNL     1       6.628  27.990  55.441  1.00  0.00    -0.327 N 
HETATM   12  C   UNL     1       7.567  27.784  54.439  1.00  0.00     0.231 C 
HETATM   13  O   UNL     1       8.430  28.584  54.088  1.00  0.00    -0.272 OA
HETATM   14  H   UNL     1       5.957  27.241  55.577  1.00  0.00     0.169 HD
BRANCH  12  15
HETATM   15  C   UNL     1       7.456  26.419  53.779  1.00  0.00     0.185 C 
BRANCH  15  16
HETATM   16  S   UNL     1       6.159  25.442  54.607  1.00  0.00    -0.083 SA
BRANCH  16  17
HETATM   17  C   UNL     1       7.141  24.322  55.485  1.00  0.00     0.168 A 
HETATM   18  N   UNL     1       7.683  23.199  54.916  1.00  0.00    -0.339 N 
HETATM   19  C   UNL     1       7.533  22.742  53.557  1.00  0.00     0.158 C 
HETATM   20  C   UNL     1       8.419  22.569  55.886  1.00  0.00     0.112 A 
HETATM   21  C   UNL     1       8.272  23.351  57.010  1.00  0.00     0.136 A 
HETATM   22  N   UNL     1       7.470  24.432  56.750  1.00  0.00    -0.235 NA
ENDBRANCH  16  17
ENDBRANCH  15  16
ENDBRANCH  12  15
ENDBRANCH   8  11
ENDBRANCH   2   5
BRANCH   1  23
HETATM   23  C   UNL     1       5.175  32.958  61.156  1.00  0.00     0.035 A 
HETATM   24  C   UNL     1       6.064  33.812  61.800  1.00  0.00     0.032 A 
HETATM   25  C   UNL     1       5.640  34.599  62.883  1.00  0.00     0.031 A 
HETATM   26  C   UNL     1       4.327  34.542  63.371  1.00  0.00     0.030 A 
HETATM   27  C   UNL     1       3.446  33.685  62.694  1.00  0.00     0.031 A 
HETATM   28  C   UNL     1       3.857  32.907  61.604  1.00  0.00     0.032 A 
BRANCH  26  29
HETATM   29  N   UNL     1       3.865  35.307  64.441  1.00  0.00    -0.378 N 
HETATM   30  C   UNL     1       4.670  36.420  64.971  1.00  0.00     0.150 C 
HETATM   31  C   UNL     1       5.532  35.980  66.172  1.00  0.00     0.254 C 
HETATM   32  N   UNL     1       4.662  35.308  67.246  1.00  0.00    -0.068 N 
HETATM   33  H   UNL     1       3.968  36.009  67.539  1.00  0.00     0.280 HD
HETATM   34  C   UNL     1       3.888  34.133  66.633  1.00  0.00     0.254 C 
HETATM   35  C   UNL     1       3.030  34.615  65.444  1.00  0.00     0.150 C 
BRANCH  32  36
HETATM   36  C   UNL     1       5.484  34.927  68.452  1.00  0.00     0.230 C 
HETATM   37  C   UNL     1       6.845  34.402  68.034  1.00  0.00     0.034 C 
ENDBRANCH  32  36
ENDBRANCH  26  29
ENDBRANCH   1  23
TORSDOF 8
ENDMDL
