MODEL 1
REMARK VINA RESULT:     -10.2      0.000      0.000
REMARK  1 active torsions:
REMARK  status: ('A' for Active; 'I' for Inactive)
REMARK       I    between atoms: N_9  and  C_10 
REMARK    1  A    between atoms: C_10  and  C_11 
ROOT
HETATM    1  C   UNL     1       7.455  23.317  52.943  1.00  0.00     0.002 A 
HETATM    2  C   UNL     1       6.554  24.381  52.903  1.00  0.00     0.031 A 
HETATM    3  C   UNL     1       6.542  25.314  53.940  1.00  0.00     0.056 A 
HETATM    4  C   UNL     1       7.434  25.213  55.021  1.00  0.00     0.036 A 
HETATM    5  N   UNL     1       7.367  26.090  56.116  1.00  0.00    -0.273 NA
HETATM    6  C   UNL     1       6.749  27.418  55.853  1.00  0.00     0.100 C 
HETATM    7  C   UNL     1       7.766  28.363  55.181  1.00  0.00     0.055 C 
HETATM    8  C   UNL     1       8.867  28.825  56.125  1.00  0.00     0.128 C 
HETATM    9  N   UNL     1       8.326  29.352  57.372  1.00  0.00    -0.348 N 
HETATM   10  C   UNL     1       9.060  30.359  58.009  1.00  0.00     0.253 C 
HETATM   11  O   UNL     1      10.145  30.760  57.590  1.00  0.00    -0.267 OA
HETATM   12  C   UNL     1       7.424  28.445  58.083  1.00  0.00     0.128 C 
HETATM   13  C   UNL     1       6.269  28.011  57.192  1.00  0.00     0.055 C 
HETATM   14  C   UNL     1       5.528  27.308  54.893  1.00  0.00     0.245 C 
HETATM   15  O   UNL     1       4.587  28.102  54.894  1.00  0.00    -0.271 OA
HETATM   16  N   UNL     1       5.596  26.345  53.917  1.00  0.00    -0.324 N 
HETATM   17  C   UNL     1       8.298  24.113  55.066  1.00  0.00     0.026 A 
HETATM   18  C   UNL     1       8.320  23.179  54.027  1.00  0.00     0.002 A 
HETATM   19  H   UNL     1       8.244  26.128  56.627  1.00  0.00     0.129 HD
HETATM   20  H   UNL     1       4.854  26.343  53.233  1.00  0.00     0.169 HD
ENDROOT
BRANCH  10  21
HETATM   21  C   UNL     1       8.522  31.003  59.232  1.00  0.00     0.034 A 
HETATM   22  C   UNL     1       7.327  31.738  59.188  1.00  0.00     0.051 A 
HETATM   23  C   UNL     1       6.876  32.335  60.373  1.00  0.00     0.085 A 
HETATM   24  C   UNL     1       7.636  32.222  61.533  1.00  0.00     0.062 A 
HETATM   25  N   UNL     1       5.736  33.064  60.605  1.00  0.00    -0.242 NA
HETATM   26  N   UNL     1       6.919  32.916  62.474  1.00  0.00    -0.349 N 
HETATM   27  C   UNL     1       8.850  31.536  61.593  1.00  0.00     0.033 A 
HETATM   28  H   UNL     1       7.180  33.050  63.439  1.00  0.00     0.167 HD
HETATM   29  C   UNL     1       5.789  33.397  61.874  1.00  0.00     0.208 A 
HETATM   30  C   UNL     1       9.281  30.927  60.409  1.00  0.00     0.019 A 
ENDBRANCH  10  21
TORSDOF 1
ENDMDL
MODEL 2
REMARK VINA RESULT:     -10.2      2.903      8.674
REMARK  1 active torsions:
REMARK  status: ('A' for Active; 'I' for Inactive)
REMARK       I    between atoms: N_9  and  C_10 
REMARK    1  A    between atoms: C_10  and  C_11 
ROOT
HETATM    1  C   UNL     1       3.874  32.438  57.001  1.00  0.00     0.002 A 
HETATM    2  C   UNL     1       5.041  31.960  57.594  1.00  0.00     0.031 A 
HETATM    3  C   UNL     1       5.449  30.647  57.353  1.00  0.00     0.056 A 
HETATM    4  C   UNL     1       4.714  29.800  56.507  1.00  0.00     0.036 A 
HETATM    5  N   UNL     1       5.062  28.450  56.334  1.00  0.00    -0.273 NA
HETATM    6  C   UNL     1       6.488  28.105  56.587  1.00  0.00     0.100 C 
HETATM    7  C   UNL     1       7.357  28.468  55.366  1.00  0.00     0.055 C 
HETATM    8  C   UNL     1       7.125  27.550  54.174  1.00  0.00     0.128 C 
HETATM    9  N   UNL     1       7.213  26.144  54.547  1.00  0.00    -0.348 N 
HETATM   10  C   UNL     1       7.674  25.254  53.570  1.00  0.00     0.253 C 
HETATM   11  O   UNL     1       7.944  25.605  52.423  1.00  0.00    -0.267 OA
HETATM   12  C   UNL     1       6.335  25.743  55.648  1.00  0.00     0.128 C 
HETATM   13  C   UNL     1       6.583  26.596  56.884  1.00  0.00     0.055 C 
HETATM   14  C   UNL     1       7.064  28.887  57.804  1.00  0.00     0.245 C 
HETATM   15  O   UNL     1       7.986  28.470  58.506  1.00  0.00    -0.271 OA
HETATM   16  N   UNL     1       6.592  30.161  57.998  1.00  0.00    -0.324 N 
HETATM   17  C   UNL     1       3.521  30.283  55.959  1.00  0.00     0.026 A 
HETATM   18  C   UNL     1       3.110  31.599  56.191  1.00  0.00     0.002 A 
HETATM   19  H   UNL     1       4.683  28.067  55.473  1.00  0.00     0.129 HD
HETATM   20  H   UNL     1       7.041  30.703  58.722  1.00  0.00     0.169 HD
ENDROOT
BRANCH  10  21
HETATM   21  C   UNL     1       7.875  23.825  53.911  1.00  0.00     0.034 A 
HETATM   22  C   UNL     1       8.234  23.441  55.212  1.00  0.00     0.051 A 
HETATM   23  C   UNL     1       8.424  22.077  55.470  1.00  0.00     0.085 A 
HETATM   24  C   UNL     1       8.296  21.157  54.434  1.00  0.00     0.062 A 
HETATM   25  N   UNL     1       8.736  21.445  56.649  1.00  0.00    -0.242 NA
HETATM   26  N   UNL     1       8.552  19.946  55.026  1.00  0.00    -0.349 N 
HETATM   27  C   UNL     1       7.986  21.515  53.121  1.00  0.00     0.033 A 
HETATM   28  H   UNL     1       8.554  19.048  54.565  1.00  0.00     0.167 HD
HETATM   29  C   UNL     1       8.803  20.168  56.351  1.00  0.00     0.208 A 
HETATM   30  C   UNL     1       7.779  22.878  52.880  1.00  0.00     0.019 A 
ENDBRANCH  10  21
TORSDOF 1
ENDMDL
MODEL 3
REMARK VINA RESULT:      -9.5      3.078      9.381
REMARK  1 active torsions:
REMARK  status: ('A' for Active; 'I' for Inactive)
REMARK       I    between atoms: N_9  and  C_10 
REMARK    1  A    between atoms: C_10  and  C_11 
ROOT
HETATM    1  C   UNL     1       3.849  35.783  65.449  1.00  0.00     0.002 A 
HETATM    2  C   UNL     1       3.224  34.717  64.802  1.00  0.00     0.031 A 
HETATM    3  C   UNL     1       3.847  34.113  63.709  1.00  0.00     0.056 A 
HETATM    4  C   UNL     1       5.105  34.546  63.256  1.00  0.00     0.036 A 
HETATM    5  N   UNL     1       5.697  34.010  62.101  1.00  0.00    -0.273 NA
HETATM    6  C   UNL     1       5.261  32.639  61.719  1.00  0.00     0.100 C 
HETATM    7  C   UNL     1       5.999  31.582  62.567  1.00  0.00     0.055 C 
HETATM    8  C   UNL     1       7.471  31.447  62.203  1.00  0.00     0.128 C 
HETATM    9  N   UNL     1       7.660  31.271  60.768  1.00  0.00    -0.348 N 
HETATM   10  C   UNL     1       8.762  30.511  60.360  1.00  0.00     0.253 C 
HETATM   11  O   UNL     1       9.584  30.050  61.151  1.00  0.00    -0.267 OA
HETATM   12  C   UNL     1       7.046  32.305  59.935  1.00  0.00     0.128 C 
HETATM   13  C   UNL     1       5.556  32.427  60.222  1.00  0.00     0.055 C 
HETATM   14  C   UNL     1       3.737  32.429  61.959  1.00  0.00     0.245 C 
HETATM   15  O   UNL     1       3.050  31.632  61.318  1.00  0.00    -0.271 OA
HETATM   16  N   UNL     1       3.186  33.081  63.033  1.00  0.00    -0.324 N 
HETATM   17  C   UNL     1       5.693  35.647  63.889  1.00  0.00     0.026 A 
HETATM   18  C   UNL     1       5.078  36.252  64.987  1.00  0.00     0.002 A 
HETATM   19  H   UNL     1       6.702  34.151  62.088  1.00  0.00     0.129 HD
HETATM   20  H   UNL     1       2.224  32.863  63.249  1.00  0.00     0.169 HD
ENDROOT
BRANCH  10  21
HETATM   21  C   UNL     1       8.962  30.216  58.920  1.00  0.00     0.034 A 
HETATM   22  C   UNL     1       8.035  29.436  58.213  1.00  0.00     0.051 A 
HETATM   23  C   UNL     1       8.285  29.179  56.858  1.00  0.00     0.085 A 
HETATM   24  C   UNL     1       9.452  29.660  56.271  1.00  0.00     0.062 A 
HETATM   25  N   UNL     1       7.528  28.487  55.945  1.00  0.00    -0.242 NA
HETATM   26  N   UNL     1       9.378  29.226  54.972  1.00  0.00    -0.349 N 
HETATM   27  C   UNL     1      10.413  30.399  56.963  1.00  0.00     0.033 A 
HETATM   28  H   UNL     1      10.066  29.388  54.251  1.00  0.00     0.167 HD
HETATM   29  C   UNL     1       8.209  28.535  54.823  1.00  0.00     0.208 A 
HETATM   30  C   UNL     1      10.143  30.666  58.310  1.00  0.00     0.019 A 
ENDBRANCH  10  21
TORSDOF 1
ENDMDL
MODEL 4
REMARK VINA RESULT:      -9.5      2.000      8.775
REMARK  1 active torsions:
REMARK  status: ('A' for Active; 'I' for Inactive)
REMARK       I    between atoms: N_9  and  C_10 
REMARK    1  A    between atoms: C_10  and  C_11 
ROOT
HETATM    1  C   UNL     1       8.528  32.713  60.890  1.00  0.00     0.002 A 
HETATM    2  C   UNL     1       9.452  32.480  59.871  1.00  0.00     0.031 A 
HETATM    3  C   UNL     1       9.367  31.310  59.117  1.00  0.00     0.056 A 
HETATM    4  C   UNL     1       8.354  30.364  59.351  1.00  0.00     0.036 A 
HETATM    5  N   UNL     1       8.316  29.140  58.664  1.00  0.00    -0.273 NA
HETATM    6  C   UNL     1       8.990  29.114  57.337  1.00  0.00     0.100 C 
HETATM    7  C   UNL     1       8.079  29.730  56.256  1.00  0.00     0.055 C 
HETATM    8  C   UNL     1       6.888  28.849  55.906  1.00  0.00     0.128 C 
HETATM    9  N   UNL     1       7.295  27.482  55.607  1.00  0.00    -0.348 N 
HETATM   10  C   UNL     1       6.516  26.773  54.685  1.00  0.00     0.253 C 
HETATM   11  O   UNL     1       5.496  27.237  54.178  1.00  0.00    -0.267 OA
HETATM   12  C   UNL     1       8.089  26.834  56.652  1.00  0.00     0.128 C 
HETATM   13  C   UNL     1       9.328  27.652  56.985  1.00  0.00     0.055 C 
HETATM   14  C   UNL     1      10.310  29.941  57.343  1.00  0.00     0.245 C 
HETATM   15  O   UNL     1      11.263  29.707  56.599  1.00  0.00    -0.271 OA
HETATM   16  N   UNL     1      10.332  31.061  58.135  1.00  0.00    -0.324 N 
HETATM   17  C   UNL     1       7.466  30.593  60.408  1.00  0.00     0.026 A 
HETATM   18  C   UNL     1       7.542  31.766  61.163  1.00  0.00     0.002 A 
HETATM   19  H   UNL     1       7.388  28.728  58.672  1.00  0.00     0.129 HD
HETATM   20  H   UNL     1      11.148  31.652  58.058  1.00  0.00     0.169 HD
ENDROOT
BRANCH  10  21
HETATM   21  C   UNL     1       6.926  25.411  54.267  1.00  0.00     0.034 A 
HETATM   22  C   UNL     1       6.922  24.348  55.183  1.00  0.00     0.051 A 
HETATM   23  C   UNL     1       7.334  23.087  54.732  1.00  0.00     0.085 A 
HETATM   24  C   UNL     1       7.770  22.934  53.420  1.00  0.00     0.062 A 
HETATM   25  N   UNL     1       7.386  21.891  55.407  1.00  0.00    -0.242 NA
HETATM   26  N   UNL     1       8.097  21.604  53.327  1.00  0.00    -0.349 N 
HETATM   27  C   UNL     1       7.827  23.983  52.501  1.00  0.00     0.033 A 
HETATM   28  H   UNL     1       8.460  21.138  52.509  1.00  0.00     0.167 HD
HETATM   29  C   UNL     1       7.845  21.022  54.537  1.00  0.00     0.208 A 
HETATM   30  C   UNL     1       7.395  25.234  52.956  1.00  0.00     0.019 A 
ENDBRANCH  10  21
TORSDOF 1
ENDMDL
MODEL 5
REMARK VINA RESULT:      -9.3      2.394      4.005
REMARK  1 active torsions:
REMARK  status: ('A' for Active; 'I' for Inactive)
REMARK       I    between atoms: N_9  and  C_10 
REMARK    1  A    between atoms: C_10  and  C_11 
ROOT
HETATM    1  C   UNL     1       8.059  20.491  53.284  1.00  0.00     0.002 A 
HETATM    2  C   UNL     1       8.168  20.619  54.669  1.00  0.00     0.031 A 
HETATM    3  C   UNL     1       8.197  21.889  55.244  1.00  0.00     0.056 A 
HETATM    4  C   UNL     1       8.100  23.048  54.455  1.00  0.00     0.036 A 
HETATM    5  N   UNL     1       8.223  24.331  55.013  1.00  0.00    -0.273 NA
HETATM    6  C   UNL     1       7.890  24.451  56.459  1.00  0.00     0.100 C 
HETATM    7  C   UNL     1       6.362  24.531  56.655  1.00  0.00     0.055 C 
HETATM    8  C   UNL     1       5.769  25.854  56.191  1.00  0.00     0.128 C 
HETATM    9  N   UNL     1       6.484  26.994  56.750  1.00  0.00    -0.348 N 
HETATM   10  C   UNL     1       5.743  28.160  56.979  1.00  0.00     0.253 C 
HETATM   11  O   UNL     1       4.555  28.265  56.677  1.00  0.00    -0.267 OA
HETATM   12  C   UNL     1       7.927  26.996  56.507  1.00  0.00     0.128 C 
HETATM   13  C   UNL     1       8.570  25.715  57.018  1.00  0.00     0.055 C 
HETATM   14  C   UNL     1       8.388  23.219  57.270  1.00  0.00     0.245 C 
HETATM   15  O   UNL     1       8.680  23.264  58.466  1.00  0.00    -0.271 OA
HETATM   16  N   UNL     1       8.362  22.006  56.628  1.00  0.00    -0.324 N 
HETATM   17  C   UNL     1       8.038  22.900  53.065  1.00  0.00     0.026 A 
HETATM   18  C   UNL     1       8.003  21.630  52.483  1.00  0.00     0.002 A 
HETATM   19  H   UNL     1       7.803  25.044  54.424  1.00  0.00     0.129 HD
HETATM   20  H   UNL     1       8.586  21.195  57.187  1.00  0.00     0.169 HD
ENDROOT
BRANCH  10  21
HETATM   21  C   UNL     1       6.387  29.326  57.631  1.00  0.00     0.034 A 
HETATM   22  C   UNL     1       7.617  29.190  58.291  1.00  0.00     0.051 A 
HETATM   23  C   UNL     1       8.168  30.325  58.901  1.00  0.00     0.085 A 
HETATM   24  C   UNL     1       7.470  31.529  58.872  1.00  0.00     0.062 A 
HETATM   25  N   UNL     1       9.360  30.468  59.568  1.00  0.00    -0.242 NA
HETATM   26  N   UNL     1       8.279  32.403  59.554  1.00  0.00    -0.349 N 
HETATM   27  C   UNL     1       6.224  31.681  58.263  1.00  0.00     0.033 A 
HETATM   28  H   UNL     1       8.082  33.375  59.736  1.00  0.00     0.167 HD
HETATM   29  C   UNL     1       9.399  31.724  59.946  1.00  0.00     0.208 A 
HETATM   30  C   UNL     1       5.692  30.545  57.641  1.00  0.00     0.019 A 
ENDBRANCH  10  21
TORSDOF 1
ENDMDL
MODEL 6
REMARK VINA RESULT:      -9.1      0.893      1.539
REMARK  1 active torsions:
REMARK  status: ('A' for Active; 'I' for Inactive)
REMARK       I    between atoms: N_9  and  C_10 
REMARK    1  A    between atoms: C_10  and  C_11 
ROOT
HETATM    1  C   UNL     1       8.048  22.497  53.859  1.00  0.00     0.002 A 
HETATM    2  C   UNL     1       7.234  23.515  53.363  1.00  0.00     0.031 A 
HETATM    3  C   UNL     1       6.954  24.625  54.161  1.00  0.00     0.056 A 
HETATM    4  C   UNL     1       7.493  24.747  55.454  1.00  0.00     0.036 A 
HETATM    5  N   UNL     1       7.142  25.811  56.301  1.00  0.00    -0.273 NA
HETATM    6  C   UNL     1       6.672  27.053  55.628  1.00  0.00     0.100 C 
HETATM    7  C   UNL     1       7.872  27.878  55.118  1.00  0.00     0.055 C 
HETATM    8  C   UNL     1       8.668  28.531  56.239  1.00  0.00     0.128 C 
HETATM    9  N   UNL     1       7.808  29.269  57.155  1.00  0.00    -0.348 N 
HETATM   10  C   UNL     1       8.361  30.393  57.780  1.00  0.00     0.253 C 
HETATM   11  O   UNL     1       9.534  30.732  57.628  1.00  0.00    -0.267 OA
HETATM   12  C   UNL     1       6.708  28.493  57.729  1.00  0.00     0.128 C 
HETATM   13  C   UNL     1       5.846  27.876  56.637  1.00  0.00     0.055 C 
HETATM   14  C   UNL     1       5.778  26.740  54.393  1.00  0.00     0.245 C 
HETATM   15  O   UNL     1       4.904  27.500  53.974  1.00  0.00    -0.271 OA
HETATM   16  N   UNL     1       6.092  25.614  53.675  1.00  0.00    -0.324 N 
HETATM   17  C   UNL     1       8.268  23.693  55.950  1.00  0.00     0.026 A 
HETATM   18  C   UNL     1       8.557  22.582  55.153  1.00  0.00     0.002 A 
HETATM   19  H   UNL     1       7.834  25.962  57.028  1.00  0.00     0.129 HD
HETATM   20  H   UNL     1       5.579  25.468  52.817  1.00  0.00     0.169 HD
ENDROOT
BRANCH  10  21
HETATM   21  C   UNL     1       7.514  31.243  58.653  1.00  0.00     0.034 A 
HETATM   22  C   UNL     1       7.981  31.673  59.904  1.00  0.00     0.051 A 
HETATM   23  C   UNL     1       7.129  32.461  60.690  1.00  0.00     0.085 A 
HETATM   24  C   UNL     1       5.848  32.755  60.234  1.00  0.00     0.062 A 
HETATM   25  N   UNL     1       7.354  33.035  61.918  1.00  0.00    -0.242 NA
HETATM   26  N   UNL     1       5.302  33.520  61.234  1.00  0.00    -0.349 N 
HETATM   27  C   UNL     1       5.342  32.301  59.015  1.00  0.00     0.033 A 
HETATM   28  H   UNL     1       4.370  33.907  61.244  1.00  0.00     0.167 HD
HETATM   29  C   UNL     1       6.241  33.665  62.216  1.00  0.00     0.208 A 
HETATM   30  C   UNL     1       6.208  31.531  58.230  1.00  0.00     0.019 A 
ENDBRANCH  10  21
TORSDOF 1
ENDMDL
MODEL 7
REMARK VINA RESULT:      -9.1      5.873      7.302
REMARK  1 active torsions:
REMARK  status: ('A' for Active; 'I' for Inactive)
REMARK       I    between atoms: N_9  and  C_10 
REMARK    1  A    between atoms: C_10  and  C_11 
ROOT
HETATM    1  C   UNL     1       8.276  20.410  54.668  1.00  0.00     0.002 A 
HETATM    2  C   UNL     1       7.634  21.348  55.476  1.00  0.00     0.031 A 
HETATM    3  C   UNL     1       7.417  22.640  54.994  1.00  0.00     0.056 A 
HETATM    4  C   UNL     1       7.818  23.011  53.700  1.00  0.00     0.036 A 
HETATM    5  N   UNL     1       7.691  24.332  53.239  1.00  0.00    -0.273 NA
HETATM    6  C   UNL     1       6.643  25.156  53.900  1.00  0.00     0.100 C 
HETATM    7  C   UNL     1       5.253  24.836  53.311  1.00  0.00     0.055 C 
HETATM    8  C   UNL     1       5.072  25.358  51.893  1.00  0.00     0.128 C 
HETATM    9  N   UNL     1       5.435  26.766  51.783  1.00  0.00    -0.348 N 
HETATM   10  C   UNL     1       4.749  27.527  50.829  1.00  0.00     0.253 C 
HETATM   11  O   UNL     1       3.915  27.045  50.066  1.00  0.00    -0.267 OA
HETATM   12  C   UNL     1       6.783  27.092  52.252  1.00  0.00     0.128 C 
HETATM   13  C   UNL     1       6.984  26.645  53.693  1.00  0.00     0.055 C 
HETATM   14  C   UNL     1       6.564  24.874  55.429  1.00  0.00     0.245 C 
HETATM   15  O   UNL     1       6.173  25.700  56.255  1.00  0.00    -0.271 OA
HETATM   16  N   UNL     1       6.822  23.588  55.833  1.00  0.00    -0.324 N 
HETATM   17  C   UNL     1       8.502  22.070  52.922  1.00  0.00     0.026 A 
HETATM   18  C   UNL     1       8.717  20.773  53.397  1.00  0.00     0.002 A 
HETATM   19  H   UNL     1       7.690  24.383  52.225  1.00  0.00     0.129 HD
HETATM   20  H   UNL     1       6.669  23.383  56.810  1.00  0.00     0.169 HD
ENDROOT
BRANCH  10  21
HETATM   21  C   UNL     1       5.005  28.985  50.728  1.00  0.00     0.034 A 
HETATM   22  C   UNL     1       4.435  29.878  51.647  1.00  0.00     0.051 A 
HETATM   23  C   UNL     1       4.700  31.245  51.490  1.00  0.00     0.085 A 
HETATM   24  C   UNL     1       5.475  31.677  50.418  1.00  0.00     0.062 A 
HETATM   25  N   UNL     1       4.302  32.308  52.264  1.00  0.00    -0.242 NA
HETATM   26  N   UNL     1       5.524  33.040  50.566  1.00  0.00    -0.349 N 
HETATM   27  C   UNL     1       6.016  30.815  49.463  1.00  0.00     0.033 A 
HETATM   28  H   UNL     1       6.000  33.687  49.955  1.00  0.00     0.167 HD
HETATM   29  C   UNL     1       4.813  33.370  51.686  1.00  0.00     0.208 A 
HETATM   30  C   UNL     1       5.760  29.450  49.641  1.00  0.00     0.019 A 
ENDBRANCH  10  21
TORSDOF 1
ENDMDL
MODEL 8
REMARK VINA RESULT:      -9.0      5.334      9.559
REMARK  1 active torsions:
REMARK  status: ('A' for Active; 'I' for Inactive)
REMARK       I    between atoms: N_9  and  C_10 
REMARK    1  A    between atoms: C_10  and  C_11 
ROOT
HETATM    1  C   UNL     1       8.474  24.834  58.006  1.00  0.00     0.002 A 
HETATM    2  C   UNL     1       8.828  24.175  56.829  1.00  0.00     0.031 A 
HETATM    3  C   UNL     1       8.064  24.362  55.677  1.00  0.00     0.056 A 
HETATM    4  C   UNL     1       6.949  25.218  55.673  1.00  0.00     0.036 A 
HETATM    5  N   UNL     1       6.117  25.339  54.548  1.00  0.00    -0.273 NA
HETATM    6  C   UNL     1       6.740  25.011  53.236  1.00  0.00     0.100 C 
HETATM    7  C   UNL     1       7.578  26.200  52.724  1.00  0.00     0.055 C 
HETATM    8  C   UNL     1       6.727  27.377  52.266  1.00  0.00     0.128 C 
HETATM    9  N   UNL     1       5.684  26.962  51.336  1.00  0.00    -0.348 N 
HETATM   10  C   UNL     1       5.288  27.892  50.369  1.00  0.00     0.253 C 
HETATM   11  O   UNL     1       5.740  29.035  50.318  1.00  0.00    -0.267 OA
HETATM   12  C   UNL     1       4.813  25.893  51.826  1.00  0.00     0.128 C 
HETATM   13  C   UNL     1       5.622  24.670  52.232  1.00  0.00     0.055 C 
HETATM   14  C   UNL     1       7.702  23.791  53.342  1.00  0.00     0.245 C 
HETATM   15  O   UNL     1       7.950  23.035  52.401  1.00  0.00    -0.271 OA
HETATM   16  N   UNL     1       8.396  23.652  54.518  1.00  0.00    -0.324 N 
HETATM   17  C   UNL     1       6.582  25.833  56.875  1.00  0.00     0.026 A 
HETATM   18  C   UNL     1       7.347  25.655  58.031  1.00  0.00     0.002 A 
HETATM   19  H   UNL     1       5.589  26.206  54.557  1.00  0.00     0.129 HD
HETATM   20  H   UNL     1       9.094  22.923  54.546  1.00  0.00     0.169 HD
ENDROOT
BRANCH  10  21
HETATM   21  C   UNL     1       4.298  27.504  49.335  1.00  0.00     0.034 A 
HETATM   22  C   UNL     1       3.054  28.149  49.256  1.00  0.00     0.051 A 
HETATM   23  C   UNL     1       2.154  27.728  48.267  1.00  0.00     0.085 A 
HETATM   24  C   UNL     1       2.497  26.670  47.431  1.00  0.00     0.062 A 
HETATM   25  N   UNL     1       0.907  28.212  47.957  1.00  0.00    -0.242 NA
HETATM   26  N   UNL     1       1.407  26.524  46.610  1.00  0.00    -0.349 N 
HETATM   27  C   UNL     1       3.708  25.981  47.518  1.00  0.00     0.033 A 
HETATM   28  H   UNL     1       1.303  25.838  45.877  1.00  0.00     0.167 HD
HETATM   29  C   UNL     1       0.485  27.471  46.958  1.00  0.00     0.208 A 
HETATM   30  C   UNL     1       4.606  26.423  48.496  1.00  0.00     0.019 A 
ENDBRANCH  10  21
TORSDOF 1
ENDMDL
MODEL 9
REMARK VINA RESULT:      -8.8      4.023      5.079
REMARK  1 active torsions:
REMARK  status: ('A' for Active; 'I' for Inactive)
REMARK       I    between atoms: N_9  and  C_10 
REMARK    1  A    between atoms: C_10  and  C_11 
ROOT
HETATM    1  C   UNL     1       8.947  20.976  54.674  1.00  0.00     0.002 A 
HETATM    2  C   UNL     1       8.720  21.757  53.541  1.00  0.00     0.031 A 
HETATM    3  C   UNL     1       7.923  22.898  53.639  1.00  0.00     0.056 A 
HETATM    4  C   UNL     1       7.356  23.288  54.864  1.00  0.00     0.036 A 
HETATM    5  N   UNL     1       6.476  24.379  54.954  1.00  0.00    -0.273 NA
HETATM    6  C   UNL     1       6.608  25.415  53.894  1.00  0.00     0.100 C 
HETATM    7  C   UNL     1       7.785  26.361  54.207  1.00  0.00     0.055 C 
HETATM    8  C   UNL     1       7.507  27.292  55.380  1.00  0.00     0.128 C 
HETATM    9  N   UNL     1       6.233  27.984  55.232  1.00  0.00    -0.348 N 
HETATM   10  C   UNL     1       6.135  29.262  55.793  1.00  0.00     0.253 C 
HETATM   11  O   UNL     1       7.046  29.780  56.438  1.00  0.00    -0.267 OA
HETATM   12  C   UNL     1       5.078  27.110  55.020  1.00  0.00     0.128 C 
HETATM   13  C   UNL     1       5.289  26.208  53.813  1.00  0.00     0.055 C 
HETATM   14  C   UNL     1       6.893  24.782  52.500  1.00  0.00     0.245 C 
HETATM   15  O   UNL     1       6.575  25.312  51.434  1.00  0.00    -0.271 OA
HETATM   16  N   UNL     1       7.656  23.642  52.484  1.00  0.00    -0.324 N 
HETATM   17  C   UNL     1       7.557  22.466  55.978  1.00  0.00     0.026 A 
HETATM   18  C   UNL     1       8.360  21.326  55.889  1.00  0.00     0.002 A 
HETATM   19  H   UNL     1       6.423  24.748  55.899  1.00  0.00     0.129 HD
HETATM   20  H   UNL     1       7.927  23.293  51.576  1.00  0.00     0.169 HD
ENDROOT
BRANCH  10  21
HETATM   21  C   UNL     1       4.899  30.059  55.600  1.00  0.00     0.034 A 
HETATM   22  C   UNL     1       4.670  30.748  54.399  1.00  0.00     0.051 A 
HETATM   23  C   UNL     1       3.491  31.496  54.282  1.00  0.00     0.085 A 
HETATM   24  C   UNL     1       2.614  31.570  55.360  1.00  0.00     0.062 A 
HETATM   25  N   UNL     1       3.017  32.219  53.215  1.00  0.00    -0.242 NA
HETATM   26  N   UNL     1       1.595  32.372  54.909  1.00  0.00    -0.349 N 
HETATM   27  C   UNL     1       2.839  30.934  56.581  1.00  0.00     0.033 A 
HETATM   28  H   UNL     1       0.781  32.650  55.436  1.00  0.00     0.167 HD
HETATM   29  C   UNL     1       1.878  32.731  53.621  1.00  0.00     0.208 A 
HETATM   30  C   UNL     1       4.011  30.174  56.680  1.00  0.00     0.019 A 
ENDBRANCH  10  21
TORSDOF 1
ENDMDL
MODEL 10
REMARK VINA RESULT:      -8.8      2.648      3.721
REMARK  1 active torsions:
REMARK  status: ('A' for Active; 'I' for Inactive)
REMARK       I    between atoms: N_9  and  C_10 
REMARK    1  A    between atoms: C_10  and  C_11 
ROOT
HETATM    1  C   UNL     1       7.974  23.965  52.936  1.00  0.00     0.002 A 
HETATM    2  C   UNL     1       7.932  23.944  54.330  1.00  0.00     0.031 A 
HETATM    3  C   UNL     1       7.618  25.110  55.028  1.00  0.00     0.056 A 
HETATM    4  C   UNL     1       7.324  26.307  54.353  1.00  0.00     0.036 A 
HETATM    5  N   UNL     1       7.101  27.508  55.045  1.00  0.00    -0.273 NA
HETATM    6  C   UNL     1       6.627  27.374  56.450  1.00  0.00     0.100 C 
HETATM    7  C   UNL     1       5.111  27.093  56.483  1.00  0.00     0.055 C 
HETATM    8  C   UNL     1       4.271  28.301  56.090  1.00  0.00     0.128 C 
HETATM    9  N   UNL     1       4.654  29.493  56.836  1.00  0.00    -0.348 N 
HETATM   10  C   UNL     1       3.648  30.431  57.096  1.00  0.00     0.253 C 
HETATM   11  O   UNL     1       2.498  30.309  56.676  1.00  0.00    -0.267 OA
HETATM   12  C   UNL     1       6.073  29.841  56.754  1.00  0.00     0.128 C 
HETATM   13  C   UNL     1       6.948  28.680  57.204  1.00  0.00     0.055 C 
HETATM   14  C   UNL     1       7.324  26.192  57.185  1.00  0.00     0.245 C 
HETATM   15  O   UNL     1       7.496  26.155  58.404  1.00  0.00    -0.271 OA
HETATM   16  N   UNL     1       7.634  25.091  56.427  1.00  0.00    -0.324 N 
HETATM   17  C   UNL     1       7.418  26.320  52.957  1.00  0.00     0.026 A 
HETATM   18  C   UNL     1       7.725  25.153  52.251  1.00  0.00     0.002 A 
HETATM   19  H   UNL     1       6.580  28.178  54.487  1.00  0.00     0.129 HD
HETATM   20  H   UNL     1       7.990  24.287  56.924  1.00  0.00     0.169 HD
ENDROOT
BRANCH  10  21
HETATM   21  C   UNL     1       3.948  31.622  57.927  1.00  0.00     0.034 A 
HETATM   22  C   UNL     1       3.904  31.548  59.327  1.00  0.00     0.051 A 
HETATM   23  C   UNL     1       4.182  32.711  60.059  1.00  0.00     0.085 A 
HETATM   24  C   UNL     1       4.448  33.899  59.386  1.00  0.00     0.062 A 
HETATM   25  N   UNL     1       4.242  32.895  61.419  1.00  0.00    -0.242 NA
HETATM   26  N   UNL     1       4.663  34.812  60.388  1.00  0.00    -0.349 N 
HETATM   27  C   UNL     1       4.453  34.012  57.995  1.00  0.00     0.033 A 
HETATM   28  H   UNL     1       4.877  35.790  60.265  1.00  0.00     0.167 HD
HETATM   29  C   UNL     1       4.534  34.164  61.585  1.00  0.00     0.208 A 
HETATM   30  C   UNL     1       4.193  32.840  57.275  1.00  0.00     0.019 A 
ENDBRANCH  10  21
TORSDOF 1
ENDMDL
