MODEL 1
REMARK VINA RESULT:      -9.4      0.000      0.000
REMARK  4 active torsions:
REMARK  status: ('A' for Active; 'I' for Inactive)
REMARK    1  A    between atoms: C_2  and  C_3 
REMARK    2  A    between atoms: C_3  and  N_4 
REMARK    3  A    between atoms: C_3  and  C_18 
REMARK       I    between atoms: N_4  and  C_5 
REMARK    4  A    between atoms: C_5  and  C_6 
ROOT
HETATM    1  N   UNL     1       5.784  27.466  54.490  1.00  0.00    -0.344 N 
HETATM    2  C   UNL     1       7.110  27.351  54.835  1.00  0.00     0.273 C 
HETATM    3  O   UNL     1       7.962  28.203  54.634  1.00  0.00    -0.266 OA
HETATM    4  H   UNL     1       5.284  26.585  54.402  1.00  0.00     0.163 HD
ENDROOT
BRANCH   1   5
HETATM    5  C   UNL     1       5.266  28.631  53.788  1.00  0.00     0.158 C 
BRANCH   5   6
HETATM    6  C   UNL     1       3.921  29.127  54.381  1.00  0.00     0.008 C 
HETATM    7  C   UNL     1       3.579  30.522  53.842  1.00  0.00     0.012 C 
HETATM    8  C   UNL     1       3.874  29.157  55.914  1.00  0.00     0.012 C 
ENDBRANCH   5   6
BRANCH   5   9
HETATM    9  C   UNL     1       5.191  28.334  52.312  1.00  0.00     0.128 A 
HETATM   10  N   UNL     1       5.599  29.083  51.305  1.00  0.00    -0.231 NA
HETATM   11  C   UNL     1       5.339  28.357  50.168  1.00  0.00     0.085 A 
HETATM   12  C   UNL     1       4.759  27.134  50.481  1.00  0.00     0.062 A 
HETATM   13  C   UNL     1       5.573  28.681  48.824  1.00  0.00     0.034 A 
HETATM   14  N   UNL     1       4.694  27.135  51.848  1.00  0.00    -0.341 N 
HETATM   15  C   UNL     1       4.376  26.198  49.519  1.00  0.00     0.032 A 
HETATM   16  H   UNL     1       4.328  26.395  52.436  1.00  0.00     0.167 HD
HETATM   17  C   UNL     1       4.613  26.540  48.182  1.00  0.00     0.002 A 
HETATM   18  C   UNL     1       5.205  27.758  47.837  1.00  0.00     0.002 A 
ENDBRANCH   5   9
ENDBRANCH   1   5
BRANCH   2  19
HETATM   19  C   UNL     1       7.476  25.991  55.427  1.00  0.00     0.155 A 
HETATM   20  N   UNL     1       7.606  25.960  56.724  1.00  0.00    -0.166 NA
HETATM   21  N   UNL     1       7.898  24.764  57.306  1.00  0.00    -0.242 N 
HETATM   22  C   UNL     1       8.037  23.560  56.657  1.00  0.00     0.272 A 
HETATM   23  H   UNL     1       7.969  24.753  58.321  1.00  0.00     0.192 HD
HETATM   24  O   UNL     1       8.258  22.514  57.255  1.00  0.00    -0.266 OA
HETATM   25  C   UNL     1       7.921  23.597  55.189  1.00  0.00     0.046 A 
HETATM   26  C   UNL     1       7.661  24.812  54.556  1.00  0.00     0.016 A 
HETATM   27  C   UNL     1       8.087  22.424  54.441  1.00  0.00     0.018 A 
HETATM   28  C   UNL     1       7.599  24.858  53.159  1.00  0.00     0.015 A 
HETATM   29  C   UNL     1       7.767  23.688  52.411  1.00  0.00     0.001 A 
HETATM   30  C   UNL     1       8.005  22.473  53.051  1.00  0.00     0.001 A 
ENDBRANCH   2  19
TORSDOF 4
ENDMDL
MODEL 2
REMARK VINA RESULT:      -9.3      3.285      5.987
REMARK  4 active torsions:
REMARK  status: ('A' for Active; 'I' for Inactive)
REMARK    1  A    between atoms: C_2  and  C_3 
REMARK    2  A    between atoms: C_3  and  N_4 
REMARK    3  A    between atoms: C_3  and  C_18 
REMARK       I    between atoms: N_4  and  C_5 
REMARK    4  A    between atoms: C_5  and  C_6 
ROOT
HETATM    1  N   UNL     1       6.806  26.875  56.138  1.00  0.00    -0.344 N 
HETATM    2  C   UNL     1       6.146  25.704  56.426  1.00  0.00     0.273 C 
HETATM    3  O   UNL     1       4.979  25.628  56.782  1.00  0.00    -0.266 OA
HETATM    4  H   UNL     1       7.820  26.822  56.193  1.00  0.00     0.163 HD
ENDROOT
BRANCH   1   5
HETATM    5  C   UNL     1       6.170  28.176  56.279  1.00  0.00     0.158 C 
BRANCH   5   6
HETATM    6  C   UNL     1       5.754  28.783  54.913  1.00  0.00     0.008 C 
HETATM    7  C   UNL     1       4.241  28.647  54.704  1.00  0.00     0.012 C 
HETATM    8  C   UNL     1       6.484  28.183  53.704  1.00  0.00     0.012 C 
ENDBRANCH   5   6
BRANCH   5   9
HETATM    9  C   UNL     1       7.064  29.085  57.085  1.00  0.00     0.128 A 
HETATM   10  N   UNL     1       8.357  29.302  56.937  1.00  0.00    -0.231 NA
HETATM   11  C   UNL     1       8.693  30.231  57.891  1.00  0.00     0.085 A 
HETATM   12  C   UNL     1       7.583  30.596  58.642  1.00  0.00     0.062 A 
HETATM   13  C   UNL     1       9.936  30.816  58.176  1.00  0.00     0.034 A 
HETATM   14  N   UNL     1       6.558  29.870  58.098  1.00  0.00    -0.341 N 
HETATM   15  C   UNL     1       7.635  31.516  59.691  1.00  0.00     0.032 A 
HETATM   16  H   UNL     1       5.588  29.881  58.392  1.00  0.00     0.167 HD
HETATM   17  C   UNL     1       8.885  32.086  59.965  1.00  0.00     0.002 A 
HETATM   18  C   UNL     1      10.016  31.746  59.220  1.00  0.00     0.002 A 
ENDBRANCH   5   9
ENDBRANCH   1   5
BRANCH   2  19
HETATM   19  C   UNL     1       7.034  24.463  56.359  1.00  0.00     0.155 A 
HETATM   20  N   UNL     1       7.530  24.066  57.498  1.00  0.00    -0.166 NA
HETATM   21  N   UNL     1       8.301  22.944  57.500  1.00  0.00    -0.242 N 
HETATM   22  C   UNL     1       8.585  22.155  56.410  1.00  0.00     0.272 A 
HETATM   23  H   UNL     1       8.657  22.633  58.401  1.00  0.00     0.192 HD
HETATM   24  O   UNL     1       9.253  21.132  56.497  1.00  0.00    -0.266 OA
HETATM   25  C   UNL     1       8.051  22.617  55.118  1.00  0.00     0.046 A 
HETATM   26  C   UNL     1       7.289  23.784  55.073  1.00  0.00     0.016 A 
HETATM   27  C   UNL     1       8.323  21.897  53.947  1.00  0.00     0.018 A 
HETATM   28  C   UNL     1       6.822  24.251  53.839  1.00  0.00     0.015 A 
HETATM   29  C   UNL     1       7.095  23.534  52.669  1.00  0.00     0.001 A 
HETATM   30  C   UNL     1       7.839  22.357  52.724  1.00  0.00     0.001 A 
ENDBRANCH   2  19
TORSDOF 4
ENDMDL
MODEL 3
REMARK VINA RESULT:      -9.2      2.461      7.258
REMARK  4 active torsions:
REMARK  status: ('A' for Active; 'I' for Inactive)
REMARK    1  A    between atoms: C_2  and  C_3 
REMARK    2  A    between atoms: C_3  and  N_4 
REMARK    3  A    between atoms: C_3  and  C_18 
REMARK       I    between atoms: N_4  and  C_5 
REMARK    4  A    between atoms: C_5  and  C_6 
ROOT
HETATM    1  N   UNL     1       6.265  26.458  53.031  1.00  0.00    -0.344 N 
HETATM    2  C   UNL     1       5.090  26.998  52.562  1.00  0.00     0.273 C 
HETATM    3  O   UNL     1       4.116  27.257  53.252  1.00  0.00    -0.266 OA
HETATM    4  H   UNL     1       6.834  25.991  52.330  1.00  0.00     0.163 HD
ENDROOT
BRANCH   1   5
HETATM    5  C   UNL     1       6.443  26.089  54.428  1.00  0.00     0.158 C 
BRANCH   5   6
HETATM    6  C   UNL     1       7.364  27.080  55.187  1.00  0.00     0.008 C 
HETATM    7  C   UNL     1       6.632  27.672  56.397  1.00  0.00     0.012 C 
HETATM    8  C   UNL     1       7.916  28.223  54.326  1.00  0.00     0.012 C 
ENDBRANCH   5   6
BRANCH   5   9
HETATM    9  C   UNL     1       6.913  24.658  54.511  1.00  0.00     0.128 A 
HETATM   10  N   UNL     1       7.103  23.921  55.589  1.00  0.00    -0.231 NA
HETATM   11  C   UNL     1       7.499  22.688  55.135  1.00  0.00     0.085 A 
HETATM   12  C   UNL     1       7.554  22.662  53.748  1.00  0.00     0.062 A 
HETATM   13  C   UNL     1       7.831  21.530  55.856  1.00  0.00     0.034 A 
HETATM   14  N   UNL     1       7.158  23.919  53.374  1.00  0.00    -0.341 N 
HETATM   15  C   UNL     1       7.939  21.539  53.014  1.00  0.00     0.032 A 
HETATM   16  H   UNL     1       7.073  24.269  52.428  1.00  0.00     0.167 HD
HETATM   17  C   UNL     1       8.272  20.394  53.750  1.00  0.00     0.002 A 
HETATM   18  C   UNL     1       8.216  20.386  55.146  1.00  0.00     0.002 A 
ENDBRANCH   5   9
ENDBRANCH   1   5
BRANCH   2  19
HETATM   19  C   UNL     1       5.055  27.172  51.045  1.00  0.00     0.155 A 
HETATM   20  N   UNL     1       4.912  26.073  50.358  1.00  0.00    -0.166 NA
HETATM   21  N   UNL     1       4.839  26.175  49.002  1.00  0.00    -0.242 N 
HETATM   22  C   UNL     1       4.866  27.341  48.275  1.00  0.00     0.272 A 
HETATM   23  H   UNL     1       4.701  25.310  48.484  1.00  0.00     0.192 HD
HETATM   24  O   UNL     1       4.751  27.358  47.056  1.00  0.00    -0.266 OA
HETATM   25  C   UNL     1       5.057  28.582  49.046  1.00  0.00     0.046 A 
HETATM   26  C   UNL     1       5.174  28.511  50.434  1.00  0.00     0.016 A 
HETATM   27  C   UNL     1       5.134  29.815  48.385  1.00  0.00     0.018 A 
HETATM   28  C   UNL     1       5.404  29.682  51.163  1.00  0.00     0.015 A 
HETATM   29  C   UNL     1       5.485  30.914  50.504  1.00  0.00     0.001 A 
HETATM   30  C   UNL     1       5.346  30.980  49.119  1.00  0.00     0.001 A 
ENDBRANCH   2  19
TORSDOF 4
ENDMDL
MODEL 4
REMARK VINA RESULT:      -9.2      3.083      6.769
REMARK  4 active torsions:
REMARK  status: ('A' for Active; 'I' for Inactive)
REMARK    1  A    between atoms: C_2  and  C_3 
REMARK    2  A    between atoms: C_3  and  N_4 
REMARK    3  A    between atoms: C_3  and  C_18 
REMARK       I    between atoms: N_4  and  C_5 
REMARK    4  A    between atoms: C_5  and  C_6 
ROOT
HETATM    1  N   UNL     1       6.693  26.969  54.753  1.00  0.00    -0.344 N 
HETATM    2  C   UNL     1       7.454  28.111  54.667  1.00  0.00     0.273 C 
HETATM    3  O   UNL     1       8.210  28.380  53.746  1.00  0.00    -0.266 OA
HETATM    4  H   UNL     1       6.393  26.722  55.692  1.00  0.00     0.163 HD
ENDROOT
BRANCH   1   5
HETATM    5  C   UNL     1       6.755  25.920  53.746  1.00  0.00     0.158 C 
BRANCH   5   6
HETATM    6  C   UNL     1       5.426  25.780  52.957  1.00  0.00     0.008 C 
HETATM    7  C   UNL     1       5.701  25.724  51.449  1.00  0.00     0.012 C 
HETATM    8  C   UNL     1       4.400  26.885  53.239  1.00  0.00     0.012 C 
ENDBRANCH   5   6
BRANCH   5   9
HETATM    9  C   UNL     1       7.201  24.632  54.391  1.00  0.00     0.128 A 
HETATM   10  N   UNL     1       7.592  24.433  55.635  1.00  0.00    -0.231 NA
HETATM   11  C   UNL     1       7.861  23.090  55.733  1.00  0.00     0.085 A 
HETATM   12  C   UNL     1       7.631  22.447  54.523  1.00  0.00     0.062 A 
HETATM   13  C   UNL     1       8.308  22.342  56.833  1.00  0.00     0.034 A 
HETATM   14  N   UNL     1       7.194  23.444  53.693  1.00  0.00    -0.341 N 
HETATM   15  C   UNL     1       7.836  21.080  54.329  1.00  0.00     0.032 A 
HETATM   16  H   UNL     1       6.925  23.346  52.721  1.00  0.00     0.167 HD
HETATM   17  C   UNL     1       8.287  20.350  55.436  1.00  0.00     0.002 A 
HETATM   18  C   UNL     1       8.517  20.967  56.668  1.00  0.00     0.002 A 
ENDBRANCH   5   9
ENDBRANCH   1   5
BRANCH   2  19
HETATM   19  C   UNL     1       7.356  29.011  55.897  1.00  0.00     0.155 A 
HETATM   20  N   UNL     1       6.145  29.295  56.290  1.00  0.00    -0.166 NA
HETATM   21  N   UNL     1       6.001  30.065  57.403  1.00  0.00    -0.242 N 
HETATM   22  C   UNL     1       7.019  30.552  58.188  1.00  0.00     0.272 A 
HETATM   23  H   UNL     1       5.050  30.254  57.710  1.00  0.00     0.192 HD
HETATM   24  O   UNL     1       6.810  31.205  59.204  1.00  0.00    -0.266 OA
HETATM   25  C   UNL     1       8.388  30.258  57.731  1.00  0.00     0.046 A 
HETATM   26  C   UNL     1       8.573  29.504  56.572  1.00  0.00     0.016 A 
HETATM   27  C   UNL     1       9.488  30.747  58.448  1.00  0.00     0.018 A 
HETATM   28  C   UNL     1       9.872  29.266  56.110  1.00  0.00     0.015 A 
HETATM   29  C   UNL     1      10.971  29.756  56.823  1.00  0.00     0.001 A 
HETATM   30  C   UNL     1      10.780  30.490  57.992  1.00  0.00     0.001 A 
ENDBRANCH   2  19
TORSDOF 4
ENDMDL
MODEL 5
REMARK VINA RESULT:      -8.9      2.610      6.745
REMARK  4 active torsions:
REMARK  status: ('A' for Active; 'I' for Inactive)
REMARK    1  A    between atoms: C_2  and  C_3 
REMARK    2  A    between atoms: C_3  and  N_4 
REMARK    3  A    between atoms: C_3  and  C_18 
REMARK       I    between atoms: N_4  and  C_5 
REMARK    4  A    between atoms: C_5  and  C_6 
ROOT
HETATM    1  N   UNL     1       7.032  26.559  54.723  1.00  0.00    -0.344 N 
HETATM    2  C   UNL     1       7.599  27.811  54.675  1.00  0.00     0.273 C 
HETATM    3  O   UNL     1       8.165  28.285  53.702  1.00  0.00    -0.266 OA
HETATM    4  H   UNL     1       6.912  26.177  55.657  1.00  0.00     0.163 HD
ENDROOT
BRANCH   1   5
HETATM    5  C   UNL     1       7.097  25.637  53.598  1.00  0.00     0.158 C 
BRANCH   5   6
HETATM    6  C   UNL     1       5.775  25.602  52.787  1.00  0.00     0.008 C 
HETATM    7  C   UNL     1       6.014  26.083  51.350  1.00  0.00     0.012 C 
HETATM    8  C   UNL     1       4.629  26.414  53.403  1.00  0.00     0.012 C 
ENDBRANCH   5   6
BRANCH   5   9
HETATM    9  C   UNL     1       7.529  24.278  54.089  1.00  0.00     0.128 A 
HETATM   10  N   UNL     1       7.727  23.883  55.332  1.00  0.00    -0.231 NA
HETATM   11  C   UNL     1       8.077  22.557  55.253  1.00  0.00     0.085 A 
HETATM   12  C   UNL     1       8.094  22.126  53.933  1.00  0.00     0.062 A 
HETATM   13  C   UNL     1       8.397  21.651  56.275  1.00  0.00     0.034 A 
HETATM   14  N   UNL     1       7.723  23.231  53.215  1.00  0.00    -0.341 N 
HETATM   15  C   UNL     1       8.428  20.825  53.554  1.00  0.00     0.032 A 
HETATM   16  H   UNL     1       7.622  23.292  52.209  1.00  0.00     0.167 HD
HETATM   17  C   UNL     1       8.749  19.934  54.587  1.00  0.00     0.002 A 
HETATM   18  C   UNL     1       8.731  20.336  55.924  1.00  0.00     0.002 A 
ENDBRANCH   5   9
ENDBRANCH   1   5
BRANCH   2  19
HETATM   19  C   UNL     1       7.553  28.559  56.005  1.00  0.00     0.155 A 
HETATM   20  N   UNL     1       8.582  28.379  56.787  1.00  0.00    -0.166 NA
HETATM   21  N   UNL     1       8.608  29.051  57.971  1.00  0.00    -0.242 N 
HETATM   22  C   UNL     1       7.661  29.941  58.417  1.00  0.00     0.272 A 
HETATM   23  H   UNL     1       9.431  28.920  58.554  1.00  0.00     0.192 HD
HETATM   24  O   UNL     1       7.774  30.543  59.478  1.00  0.00    -0.266 OA
HETATM   25  C   UNL     1       6.483  30.124  57.551  1.00  0.00     0.046 A 
HETATM   26  C   UNL     1       6.405  29.422  56.349  1.00  0.00     0.016 A 
HETATM   27  C   UNL     1       5.448  30.982  57.945  1.00  0.00     0.018 A 
HETATM   28  C   UNL     1       5.265  29.557  55.549  1.00  0.00     0.015 A 
HETATM   29  C   UNL     1       4.230  30.412  55.942  1.00  0.00     0.001 A 
HETATM   30  C   UNL     1       4.324  31.127  57.135  1.00  0.00     0.001 A 
ENDBRANCH   2  19
TORSDOF 4
ENDMDL
MODEL 6
REMARK VINA RESULT:      -8.7      2.125      3.127
REMARK  4 active torsions:
REMARK  status: ('A' for Active; 'I' for Inactive)
REMARK    1  A    between atoms: C_2  and  C_3 
REMARK    2  A    between atoms: C_3  and  N_4 
REMARK    3  A    between atoms: C_3  and  C_18 
REMARK       I    between atoms: N_4  and  C_5 
REMARK    4  A    between atoms: C_5  and  C_6 
ROOT
HETATM    1  N   UNL     1       6.559  25.835  53.139  1.00  0.00    -0.344 N 
HETATM    2  C   UNL     1       7.736  25.199  52.823  1.00  0.00     0.273 C 
HETATM    3  O   UNL     1       8.611  25.661  52.107  1.00  0.00    -0.266 OA
HETATM    4  H   UNL     1       5.806  25.223  53.442  1.00  0.00     0.163 HD
ENDROOT
BRANCH   1   5
HETATM    5  C   UNL     1       6.215  27.140  52.594  1.00  0.00     0.158 C 
BRANCH   5   6
HETATM    6  C   UNL     1       5.426  28.014  53.605  1.00  0.00     0.008 C 
HETATM    7  C   UNL     1       5.829  27.665  55.043  1.00  0.00     0.012 C 
HETATM    8  C   UNL     1       3.901  27.917  53.473  1.00  0.00     0.012 C 
ENDBRANCH   5   6
BRANCH   5   9
HETATM    9  C   UNL     1       5.498  26.961  51.279  1.00  0.00     0.128 A 
HETATM   10  N   UNL     1       4.904  25.879  50.812  1.00  0.00    -0.231 NA
HETATM   11  C   UNL     1       4.377  26.236  49.595  1.00  0.00     0.085 A 
HETATM   12  C   UNL     1       4.652  27.566  49.305  1.00  0.00     0.062 A 
HETATM   13  C   UNL     1       3.646  25.471  48.675  1.00  0.00     0.034 A 
HETATM   14  N   UNL     1       5.347  28.010  50.398  1.00  0.00    -0.341 N 
HETATM   15  C   UNL     1       4.249  28.195  48.126  1.00  0.00     0.032 A 
HETATM   16  H   UNL     1       5.714  28.943  50.543  1.00  0.00     0.167 HD
HETATM   17  C   UNL     1       3.523  27.415  47.216  1.00  0.00     0.002 A 
HETATM   18  C   UNL     1       3.223  26.077  47.485  1.00  0.00     0.002 A 
ENDBRANCH   5   9
ENDBRANCH   1   5
BRANCH   2  19
HETATM   19  C   UNL     1       7.835  23.778  53.376  1.00  0.00     0.155 A 
HETATM   20  N   UNL     1       7.724  22.824  52.495  1.00  0.00    -0.166 NA
HETATM   21  N   UNL     1       7.841  21.539  52.930  1.00  0.00    -0.242 N 
HETATM   22  C   UNL     1       8.103  21.141  54.219  1.00  0.00     0.272 A 
HETATM   23  H   UNL     1       7.779  20.808  52.224  1.00  0.00     0.192 HD
HETATM   24  O   UNL     1       8.237  19.963  54.528  1.00  0.00    -0.266 OA
HETATM   25  C   UNL     1       8.199  22.215  55.222  1.00  0.00     0.046 A 
HETATM   26  C   UNL     1       8.046  23.541  54.819  1.00  0.00     0.016 A 
HETATM   27  C   UNL     1       8.425  21.901  56.569  1.00  0.00     0.018 A 
HETATM   28  C   UNL     1       8.088  24.559  55.777  1.00  0.00     0.015 A 
HETATM   29  C   UNL     1       8.312  24.246  57.123  1.00  0.00     0.001 A 
HETATM   30  C   UNL     1       8.485  22.921  57.516  1.00  0.00     0.001 A 
ENDBRANCH   2  19
TORSDOF 4
ENDMDL
MODEL 7
REMARK VINA RESULT:      -8.6      2.171      4.775
REMARK  4 active torsions:
REMARK  status: ('A' for Active; 'I' for Inactive)
REMARK    1  A    between atoms: C_2  and  C_3 
REMARK    2  A    between atoms: C_3  and  N_4 
REMARK    3  A    between atoms: C_3  and  C_18 
REMARK       I    between atoms: N_4  and  C_5 
REMARK    4  A    between atoms: C_5  and  C_6 
ROOT
HETATM    1  N   UNL     1       5.796  25.636  54.781  1.00  0.00    -0.344 N 
HETATM    2  C   UNL     1       7.159  25.510  54.910  1.00  0.00     0.273 C 
HETATM    3  O   UNL     1       7.978  26.310  54.485  1.00  0.00    -0.266 OA
HETATM    4  H   UNL     1       5.273  24.768  54.866  1.00  0.00     0.163 HD
ENDROOT
BRANCH   1   5
HETATM    5  C   UNL     1       5.186  26.745  54.062  1.00  0.00     0.158 C 
BRANCH   5   6
HETATM    6  C   UNL     1       5.943  27.088  52.752  1.00  0.00     0.008 C 
HETATM    7  C   UNL     1       5.497  28.454  52.217  1.00  0.00     0.012 C 
HETATM    8  C   UNL     1       5.796  26.041  51.641  1.00  0.00     0.012 C 
ENDBRANCH   5   6
BRANCH   5   9
HETATM    9  C   UNL     1       5.042  27.925  54.991  1.00  0.00     0.128 A 
HETATM   10  N   UNL     1       3.935  28.532  55.376  1.00  0.00    -0.231 NA
HETATM   11  C   UNL     1       4.332  29.520  56.243  1.00  0.00     0.085 A 
HETATM   12  C   UNL     1       5.713  29.522  56.397  1.00  0.00     0.062 A 
HETATM   13  C   UNL     1       3.564  30.461  56.944  1.00  0.00     0.034 A 
HETATM   14  N   UNL     1       6.139  28.487  55.607  1.00  0.00    -0.341 N 
HETATM   15  C   UNL     1       6.394  30.429  57.210  1.00  0.00     0.032 A 
HETATM   16  H   UNL     1       7.096  28.185  55.471  1.00  0.00     0.167 HD
HETATM   17  C   UNL     1       5.612  31.364  57.898  1.00  0.00     0.002 A 
HETATM   18  C   UNL     1       4.220  31.380  57.772  1.00  0.00     0.002 A 
ENDBRANCH   5   9
ENDBRANCH   1   5
BRANCH   2  19
HETATM   19  C   UNL     1       7.597  24.202  55.565  1.00  0.00     0.155 A 
HETATM   20  N   UNL     1       7.794  24.257  56.853  1.00  0.00    -0.166 NA
HETATM   21  N   UNL     1       8.152  23.110  57.493  1.00  0.00    -0.242 N 
HETATM   22  C   UNL     1       8.295  21.871  56.914  1.00  0.00     0.272 A 
HETATM   23  H   UNL     1       8.274  23.166  58.501  1.00  0.00     0.192 HD
HETATM   24  O   UNL     1       8.579  20.872  57.563  1.00  0.00    -0.266 OA
HETATM   25  C   UNL     1       8.103  21.811  55.454  1.00  0.00     0.046 A 
HETATM   26  C   UNL     1       7.774  22.975  54.761  1.00  0.00     0.016 A 
HETATM   27  C   UNL     1       8.268  20.598  54.774  1.00  0.00     0.018 A 
HETATM   28  C   UNL     1       7.639  22.930  53.369  1.00  0.00     0.015 A 
HETATM   29  C   UNL     1       7.806  21.719  52.688  1.00  0.00     0.001 A 
HETATM   30  C   UNL     1       8.114  20.555  53.390  1.00  0.00     0.001 A 
ENDBRANCH   2  19
TORSDOF 4
ENDMDL
MODEL 8
REMARK VINA RESULT:      -8.4      2.161      6.580
REMARK  4 active torsions:
REMARK  status: ('A' for Active; 'I' for Inactive)
REMARK    1  A    between atoms: C_2  and  C_3 
REMARK    2  A    between atoms: C_3  and  N_4 
REMARK    3  A    between atoms: C_3  and  C_18 
REMARK       I    between atoms: N_4  and  C_5 
REMARK    4  A    between atoms: C_5  and  C_6 
ROOT
HETATM    1  N   UNL     1       6.351  27.827  54.544  1.00  0.00    -0.344 N 
HETATM    2  C   UNL     1       5.035  28.216  54.464  1.00  0.00     0.273 C 
HETATM    3  O   UNL     1       4.179  27.963  55.298  1.00  0.00    -0.266 OA
HETATM    4  H   UNL     1       6.848  27.804  53.657  1.00  0.00     0.163 HD
ENDROOT
BRANCH   1   5
HETATM    5  C   UNL     1       6.853  27.013  55.641  1.00  0.00     0.158 C 
BRANCH   5   6
HETATM    6  C   UNL     1       8.050  27.676  56.370  1.00  0.00     0.008 C 
HETATM    7  C   UNL     1       7.675  28.015  57.818  1.00  0.00     0.012 C 
HETATM    8  C   UNL     1       8.593  28.936  55.684  1.00  0.00     0.012 C 
ENDBRANCH   5   6
BRANCH   5   9
HETATM    9  C   UNL     1       7.160  25.625  55.135  1.00  0.00     0.128 A 
HETATM   10  N   UNL     1       7.533  25.261  53.923  1.00  0.00    -0.231 NA
HETATM   11  C   UNL     1       7.718  23.901  53.981  1.00  0.00     0.085 A 
HETATM   12  C   UNL     1       7.454  23.417  55.256  1.00  0.00     0.062 A 
HETATM   13  C   UNL     1       8.116  23.006  52.976  1.00  0.00     0.034 A 
HETATM   14  N   UNL     1       7.121  24.534  55.975  1.00  0.00    -0.341 N 
HETATM   15  C   UNL     1       7.548  22.068  55.600  1.00  0.00     0.032 A 
HETATM   16  H   UNL     1       6.867  24.567  56.955  1.00  0.00     0.167 HD
HETATM   17  C   UNL     1       7.941  21.188  54.583  1.00  0.00     0.002 A 
HETATM   18  C   UNL     1       8.224  21.647  53.294  1.00  0.00     0.002 A 
ENDBRANCH   5   9
ENDBRANCH   1   5
BRANCH   2  19
HETATM   19  C   UNL     1       4.683  28.934  53.163  1.00  0.00     0.155 A 
HETATM   20  N   UNL     1       4.364  30.193  53.284  1.00  0.00    -0.166 NA
HETATM   21  N   UNL     1       4.075  30.889  52.150  1.00  0.00    -0.242 N 
HETATM   22  C   UNL     1       4.120  30.400  50.866  1.00  0.00     0.272 A 
HETATM   23  H   UNL     1       3.856  31.876  52.262  1.00  0.00     0.192 HD
HETATM   24  O   UNL     1       3.888  31.100  49.889  1.00  0.00    -0.266 OA
HETATM   25  C   UNL     1       4.450  28.970  50.728  1.00  0.00     0.046 A 
HETATM   26  C   UNL     1       4.714  28.217  51.871  1.00  0.00     0.016 A 
HETATM   27  C   UNL     1       4.481  28.377  49.459  1.00  0.00     0.018 A 
HETATM   28  C   UNL     1       4.979  26.849  51.746  1.00  0.00     0.015 A 
HETATM   29  C   UNL     1       5.007  26.255  50.479  1.00  0.00     0.001 A 
HETATM   30  C   UNL     1       4.764  27.018  49.339  1.00  0.00     0.001 A 
ENDBRANCH   2  19
TORSDOF 4
ENDMDL
MODEL 9
REMARK VINA RESULT:      -8.4      5.827      8.784
REMARK  4 active torsions:
REMARK  status: ('A' for Active; 'I' for Inactive)
REMARK    1  A    between atoms: C_2  and  C_3 
REMARK    2  A    between atoms: C_3  and  N_4 
REMARK    3  A    between atoms: C_3  and  C_18 
REMARK       I    between atoms: N_4  and  C_5 
REMARK    4  A    between atoms: C_5  and  C_6 
ROOT
HETATM    1  N   UNL     1       4.845  30.907  58.470  1.00  0.00    -0.344 N 
HETATM    2  C   UNL     1       5.242  32.152  58.898  1.00  0.00     0.273 C 
HETATM    3  O   UNL     1       5.709  33.022  58.179  1.00  0.00    -0.266 OA
HETATM    4  H   UNL     1       4.806  30.195  59.194  1.00  0.00     0.163 HD
ENDROOT
BRANCH   1   5
HETATM    5  C   UNL     1       4.992  30.482  57.086  1.00  0.00     0.158 C 
BRANCH   5   6
HETATM    6  C   UNL     1       3.647  30.512  56.312  1.00  0.00     0.008 C 
HETATM    7  C   UNL     1       3.852  30.059  54.862  1.00  0.00     0.012 C 
HETATM    8  C   UNL     1       2.941  31.873  56.318  1.00  0.00     0.012 C 
ENDBRANCH   5   6
BRANCH   5   9
HETATM    9  C   UNL     1       5.670  29.135  57.045  1.00  0.00     0.128 A 
HETATM   10  N   UNL     1       6.963  28.870  57.063  1.00  0.00    -0.231 NA
HETATM   11  C   UNL     1       7.065  27.501  57.042  1.00  0.00     0.085 A 
HETATM   12  C   UNL     1       5.809  26.909  57.010  1.00  0.00     0.062 A 
HETATM   13  C   UNL     1       8.207  26.686  57.048  1.00  0.00     0.034 A 
HETATM   14  N   UNL     1       4.940  27.967  57.034  1.00  0.00    -0.341 N 
HETATM   15  C   UNL     1       5.611  25.528  56.971  1.00  0.00     0.032 A 
HETATM   16  H   UNL     1       3.928  27.918  57.024  1.00  0.00     0.167 HD
HETATM   17  C   UNL     1       6.762  24.729  56.973  1.00  0.00     0.002 A 
HETATM   18  C   UNL     1       8.039  25.296  57.014  1.00  0.00     0.002 A 
ENDBRANCH   5   9
ENDBRANCH   1   5
BRANCH   2  19
HETATM   19  C   UNL     1       5.143  32.344  60.410  1.00  0.00     0.155 A 
HETATM   20  N   UNL     1       3.935  32.495  60.878  1.00  0.00    -0.166 NA
HETATM   21  N   UNL     1       3.787  32.635  62.225  1.00  0.00    -0.242 N 
HETATM   22  C   UNL     1       4.796  32.597  63.158  1.00  0.00     0.272 A 
HETATM   23  H   UNL     1       2.836  32.725  62.575  1.00  0.00     0.192 HD
HETATM   24  O   UNL     1       4.581  32.687  64.361  1.00  0.00    -0.266 OA
HETATM   25  C   UNL     1       6.164  32.456  62.630  1.00  0.00     0.046 A 
HETATM   26  C   UNL     1       6.356  32.350  61.253  1.00  0.00     0.016 A 
HETATM   27  C   UNL     1       7.257  32.447  63.506  1.00  0.00     0.018 A 
HETATM   28  C   UNL     1       7.657  32.265  60.746  1.00  0.00     0.015 A 
HETATM   29  C   UNL     1       8.750  32.258  61.620  1.00  0.00     0.001 A 
HETATM   30  C   UNL     1       8.550  32.344  62.996  1.00  0.00     0.001 A 
ENDBRANCH   2  19
TORSDOF 4
ENDMDL
MODEL 10
REMARK VINA RESULT:      -8.3      1.849      2.676
REMARK  4 active torsions:
REMARK  status: ('A' for Active; 'I' for Inactive)
REMARK    1  A    between atoms: C_2  and  C_3 
REMARK    2  A    between atoms: C_3  and  N_4 
REMARK    3  A    between atoms: C_3  and  C_18 
REMARK       I    between atoms: N_4  and  C_5 
REMARK    4  A    between atoms: C_5  and  C_6 
ROOT
HETATM    1  N   UNL     1       7.573  26.875  55.558  1.00  0.00    -0.344 N 
HETATM    2  C   UNL     1       6.693  25.892  55.943  1.00  0.00     0.273 C 
HETATM    3  O   UNL     1       5.512  26.071  56.200  1.00  0.00    -0.266 OA
HETATM    4  H   UNL     1       8.555  26.658  55.709  1.00  0.00     0.163 HD
ENDROOT
BRANCH   1   5
HETATM    5  C   UNL     1       7.178  28.273  55.464  1.00  0.00     0.158 C 
BRANCH   5   6
HETATM    6  C   UNL     1       6.657  28.832  56.814  1.00  0.00     0.008 C 
HETATM    7  C   UNL     1       6.343  30.328  56.690  1.00  0.00     0.012 C 
HETATM    8  C   UNL     1       7.604  28.614  58.000  1.00  0.00     0.012 C 
ENDBRANCH   5   6
BRANCH   5   9
HETATM    9  C   UNL     1       6.196  28.441  54.332  1.00  0.00     0.128 A 
HETATM   10  N   UNL     1       4.887  28.595  54.401  1.00  0.00    -0.231 NA
HETATM   11  C   UNL     1       4.458  28.737  53.104  1.00  0.00     0.085 A 
HETATM   12  C   UNL     1       5.524  28.669  52.217  1.00  0.00     0.062 A 
HETATM   13  C   UNL     1       3.161  28.929  52.604  1.00  0.00     0.034 A 
HETATM   14  N   UNL     1       6.619  28.501  53.022  1.00  0.00    -0.341 N 
HETATM   15  C   UNL     1       5.379  28.769  50.832  1.00  0.00     0.032 A 
HETATM   16  H   UNL     1       7.582  28.414  52.721  1.00  0.00     0.167 HD
HETATM   17  C   UNL     1       4.077  28.956  50.350  1.00  0.00     0.002 A 
HETATM   18  C   UNL     1       2.986  29.039  51.219  1.00  0.00     0.002 A 
ENDBRANCH   5   9
ENDBRANCH   1   5
BRANCH   2  19
HETATM   19  C   UNL     1       7.342  24.521  56.124  1.00  0.00     0.155 A 
HETATM   20  N   UNL     1       7.691  24.222  57.345  1.00  0.00    -0.166 NA
HETATM   21  N   UNL     1       8.242  22.998  57.568  1.00  0.00    -0.242 N 
HETATM   22  C   UNL     1       8.440  22.015  56.627  1.00  0.00     0.272 A 
HETATM   23  H   UNL     1       8.483  22.772  58.530  1.00  0.00     0.192 HD
HETATM   24  O   UNL     1       8.903  20.918  56.912  1.00  0.00    -0.266 OA
HETATM   25  C   UNL     1       8.075  22.360  55.242  1.00  0.00     0.046 A 
HETATM   26  C   UNL     1       7.543  23.620  54.971  1.00  0.00     0.016 A 
HETATM   27  C   UNL     1       8.277  21.434  54.211  1.00  0.00     0.018 A 
HETATM   28  C   UNL     1       7.241  23.968  53.650  1.00  0.00     0.015 A 
HETATM   29  C   UNL     1       7.446  23.044  52.619  1.00  0.00     0.001 A 
HETATM   30  C   UNL     1       7.958  21.779  52.899  1.00  0.00     0.001 A 
ENDBRANCH   2  19
TORSDOF 4
ENDMDL
