MODEL 1
REMARK VINA RESULT:     -10.0      0.000      0.000
REMARK  1 active torsions:
REMARK  status: ('A' for Active; 'I' for Inactive)
REMARK    1  A    between atoms: C_8  and  C_9 
ROOT
HETATM    1  C   UNL     1       5.610  27.936  50.621  1.00  0.00     0.073 C 
HETATM    2  C   UNL     1       4.952  27.875  51.953  1.00  0.00     0.062 C 
HETATM    3  N   UNL     1       3.618  27.901  52.026  1.00  0.00    -0.178 NA
HETATM    4  N   UNL     1       3.366  27.762  53.332  1.00  0.00    -0.262 N 
HETATM    5  H   UNL     1       2.397  27.734  53.629  1.00  0.00     0.191 HD
HETATM    6  C   UNL     1       4.488  27.790  54.112  1.00  0.00     0.134 C 
HETATM    7  C   UNL     1       5.565  27.756  53.245  1.00  0.00     0.032 C 
HETATM    8  C   UNL     1       7.027  27.548  53.502  1.00  0.00     0.119 C 
HETATM    9  S   UNL     1       7.781  28.197  55.022  1.00  0.00    -0.141 SA
HETATM   10  C   UNL     1       6.447  29.201  55.730  1.00  0.00     0.136 C 
HETATM   11  C   UNL     1       7.068  30.069  56.828  1.00  0.00     0.031 C 
HETATM   12  C   UNL     1       5.342  28.323  56.322  1.00  0.00     0.236 C 
HETATM   13  O   UNL     1       5.195  28.150  57.534  1.00  0.00    -0.272 OA
HETATM   14  N   UNL     1       4.399  27.794  55.480  1.00  0.00    -0.311 N 
HETATM   15  H   UNL     1       3.561  27.466  55.948  1.00  0.00     0.170 HD
ENDROOT
BRANCH   8  16
HETATM   16  C   UNL     1       7.251  26.041  53.401  1.00  0.00    -0.039 A 
HETATM   17  C   UNL     1       7.180  25.199  54.530  1.00  0.00     0.021 A 
HETATM   18  C   UNL     1       7.432  23.820  54.443  1.00  0.00    -0.025 A 
HETATM   19  C   UNL     1       7.760  23.255  53.194  1.00  0.00    -0.026 A 
HETATM   20  C   UNL     1       7.376  22.996  55.579  1.00  0.00     0.012 A 
HETATM   21  C   UNL     1       7.825  24.085  52.065  1.00  0.00     0.013 A 
HETATM   22  C   UNL     1       8.024  21.878  53.113  1.00  0.00     0.012 A 
HETATM   23  C   UNL     1       7.579  25.458  52.167  1.00  0.00     0.009 A 
HETATM   24  C   UNL     1       7.966  21.072  54.251  1.00  0.00     0.001 A 
HETATM   25  C   UNL     1       7.642  21.630  55.484  1.00  0.00     0.001 A 
ENDBRANCH   8  16
TORSDOF 1
ENDMDL
MODEL 2
REMARK VINA RESULT:      -9.8      2.465      3.743
REMARK  1 active torsions:
REMARK  status: ('A' for Active; 'I' for Inactive)
REMARK    1  A    between atoms: C_8  and  C_9 
ROOT
HETATM    1  C   UNL     1       7.218  26.143  57.908  1.00  0.00     0.073 C 
HETATM    2  C   UNL     1       7.500  26.966  56.703  1.00  0.00     0.062 C 
HETATM    3  N   UNL     1       8.504  27.847  56.731  1.00  0.00    -0.178 NA
HETATM    4  N   UNL     1       8.524  28.352  55.494  1.00  0.00    -0.262 N 
HETATM    5  H   UNL     1       9.233  29.041  55.272  1.00  0.00     0.191 HD
HETATM    6  C   UNL     1       7.482  27.932  54.715  1.00  0.00     0.134 C 
HETATM    7  C   UNL     1       6.839  26.937  55.430  1.00  0.00     0.032 C 
HETATM    8  C   UNL     1       5.779  25.962  55.017  1.00  0.00     0.119 C 
HETATM    9  S   UNL     1       4.503  26.459  53.823  1.00  0.00    -0.141 SA
HETATM   10  C   UNL     1       4.795  28.241  53.649  1.00  0.00     0.136 C 
HETATM   11  C   UNL     1       3.576  28.832  52.937  1.00  0.00     0.031 C 
HETATM   12  C   UNL     1       6.062  28.521  52.835  1.00  0.00     0.236 C 
HETATM   13  O   UNL     1       6.038  28.904  51.663  1.00  0.00    -0.272 OA
HETATM   14  N   UNL     1       7.277  28.457  53.465  1.00  0.00    -0.311 N 
HETATM   15  H   UNL     1       8.030  28.911  52.961  1.00  0.00     0.170 HD
ENDROOT
BRANCH   8  16
HETATM   16  C   UNL     1       6.528  24.731  54.511  1.00  0.00    -0.039 A 
HETATM   17  C   UNL     1       6.766  23.612  55.335  1.00  0.00     0.021 A 
HETATM   18  C   UNL     1       7.495  22.501  54.883  1.00  0.00    -0.025 A 
HETATM   19  C   UNL     1       8.002  22.496  53.567  1.00  0.00    -0.026 A 
HETATM   20  C   UNL     1       7.741  21.400  55.720  1.00  0.00     0.012 A 
HETATM   21  C   UNL     1       7.762  23.602  52.739  1.00  0.00     0.013 A 
HETATM   22  C   UNL     1       8.742  21.388  53.122  1.00  0.00     0.012 A 
HETATM   23  C   UNL     1       7.040  24.706  53.204  1.00  0.00     0.009 A 
HETATM   24  C   UNL     1       8.979  20.302  53.966  1.00  0.00     0.001 A 
HETATM   25  C   UNL     1       8.479  20.308  55.265  1.00  0.00     0.001 A 
ENDBRANCH   8  16
TORSDOF 1
ENDMDL
MODEL 3
REMARK VINA RESULT:      -9.1      2.349      3.674
REMARK  1 active torsions:
REMARK  status: ('A' for Active; 'I' for Inactive)
REMARK    1  A    between atoms: C_8  and  C_9 
ROOT
HETATM    1  C   UNL     1       5.196  29.148  54.249  1.00  0.00     0.073 C 
HETATM    2  C   UNL     1       5.451  29.288  55.707  1.00  0.00     0.062 C 
HETATM    3  N   UNL     1       4.429  29.538  56.530  1.00  0.00    -0.178 NA
HETATM    4  N   UNL     1       4.986  29.533  57.745  1.00  0.00    -0.262 N 
HETATM    5  H   UNL     1       4.383  29.684  58.546  1.00  0.00     0.191 HD
HETATM    6  C   UNL     1       6.349  29.430  57.722  1.00  0.00     0.134 C 
HETATM    7  C   UNL     1       6.696  29.161  56.410  1.00  0.00     0.032 C 
HETATM    8  C   UNL     1       8.000  28.734  55.808  1.00  0.00     0.119 C 
HETATM    9  S   UNL     1       9.563  29.354  56.495  1.00  0.00    -0.141 SA
HETATM   10  C   UNL     1       9.005  30.610  57.679  1.00  0.00     0.136 C 
HETATM   11  C   UNL     1      10.231  31.438  58.071  1.00  0.00     0.031 C 
HETATM   12  C   UNL     1       8.389  29.968  58.925  1.00  0.00     0.236 C 
HETATM   13  O   UNL     1       8.973  29.906  60.009  1.00  0.00    -0.272 OA
HETATM   14  N   UNL     1       7.087  29.544  58.871  1.00  0.00    -0.311 N 
HETATM   15  H   UNL     1       6.663  29.390  59.780  1.00  0.00     0.170 HD
ENDROOT
BRANCH   8  16
HETATM   16  C   UNL     1       7.981  27.207  55.827  1.00  0.00    -0.039 A 
HETATM   17  C   UNL     1       7.777  26.450  54.655  1.00  0.00     0.021 A 
HETATM   18  C   UNL     1       7.713  25.047  54.681  1.00  0.00    -0.025 A 
HETATM   19  C   UNL     1       7.862  24.371  55.910  1.00  0.00    -0.026 A 
HETATM   20  C   UNL     1       7.492  24.306  53.509  1.00  0.00     0.012 A 
HETATM   21  C   UNL     1       8.073  25.118  57.078  1.00  0.00     0.013 A 
HETATM   22  C   UNL     1       7.785  22.969  55.934  1.00  0.00     0.012 A 
HETATM   23  C   UNL     1       8.127  26.515  57.039  1.00  0.00     0.009 A 
HETATM   24  C   UNL     1       7.562  22.246  54.761  1.00  0.00     0.001 A 
HETATM   25  C   UNL     1       7.416  22.913  53.549  1.00  0.00     0.001 A 
ENDBRANCH   8  16
TORSDOF 1
ENDMDL
MODEL 4
REMARK VINA RESULT:      -8.3      2.846      6.578
REMARK  1 active torsions:
REMARK  status: ('A' for Active; 'I' for Inactive)
REMARK    1  A    between atoms: C_8  and  C_9 
ROOT
HETATM    1  C   UNL     1       7.785  24.876  57.213  1.00  0.00     0.073 C 
HETATM    2  C   UNL     1       6.539  25.628  56.908  1.00  0.00     0.062 C 
HETATM    3  N   UNL     1       5.392  25.259  57.486  1.00  0.00    -0.178 NA
HETATM    4  N   UNL     1       4.510  26.166  57.058  1.00  0.00    -0.262 N 
HETATM    5  H   UNL     1       3.555  26.096  57.391  1.00  0.00     0.191 HD
HETATM    6  C   UNL     1       5.014  27.019  56.117  1.00  0.00     0.134 C 
HETATM    7  C   UNL     1       6.375  26.774  56.060  1.00  0.00     0.032 C 
HETATM    8  C   UNL     1       7.481  27.530  55.388  1.00  0.00     0.119 C 
HETATM    9  S   UNL     1       7.178  28.364  53.804  1.00  0.00    -0.141 SA
HETATM   10  C   UNL     1       5.521  27.776  53.356  1.00  0.00     0.136 C 
HETATM   11  C   UNL     1       5.295  28.136  51.886  1.00  0.00     0.031 C 
HETATM   12  C   UNL     1       4.444  28.432  54.225  1.00  0.00     0.236 C 
HETATM   13  O   UNL     1       3.704  29.330  53.817  1.00  0.00    -0.272 OA
HETATM   14  N   UNL     1       4.208  27.924  55.476  1.00  0.00    -0.311 N 
HETATM   15  H   UNL     1       3.322  28.209  55.880  1.00  0.00     0.170 HD
ENDROOT
BRANCH   8  16
HETATM   16  C   UNL     1       7.984  28.531  56.427  1.00  0.00    -0.039 A 
HETATM   17  C   UNL     1       7.105  29.382  57.128  1.00  0.00     0.021 A 
HETATM   18  C   UNL     1       7.572  30.334  58.048  1.00  0.00    -0.025 A 
HETATM   19  C   UNL     1       8.958  30.443  58.285  1.00  0.00    -0.026 A 
HETATM   20  C   UNL     1       6.687  31.188  58.727  1.00  0.00     0.012 A 
HETATM   21  C   UNL     1       9.837  29.594  57.597  1.00  0.00     0.013 A 
HETATM   22  C   UNL     1       9.423  31.405  59.197  1.00  0.00     0.012 A 
HETATM   23  C   UNL     1       9.359  28.656  56.678  1.00  0.00     0.009 A 
HETATM   24  C   UNL     1       8.531  32.248  59.863  1.00  0.00     0.001 A 
HETATM   25  C   UNL     1       7.164  32.140  59.628  1.00  0.00     0.001 A 
ENDBRANCH   8  16
TORSDOF 1
ENDMDL
MODEL 5
REMARK VINA RESULT:      -8.0      9.790     12.471
REMARK  1 active torsions:
REMARK  status: ('A' for Active; 'I' for Inactive)
REMARK    1  A    between atoms: C_8  and  C_9 
ROOT
HETATM    1  C   UNL     1       4.919  34.199  66.581  1.00  0.00     0.073 C 
HETATM    2  C   UNL     1       4.712  35.183  65.486  1.00  0.00     0.062 C 
HETATM    3  N   UNL     1       4.904  36.483  65.729  1.00  0.00    -0.178 NA
HETATM    4  N   UNL     1       4.705  37.064  64.542  1.00  0.00    -0.262 N 
HETATM    5  H   UNL     1       4.819  38.070  64.479  1.00  0.00     0.191 HD
HETATM    6  C   UNL     1       4.254  36.205  63.580  1.00  0.00     0.134 C 
HETATM    7  C   UNL     1       4.343  34.934  64.122  1.00  0.00     0.032 C 
HETATM    8  C   UNL     1       4.203  33.584  63.487  1.00  0.00     0.119 C 
HETATM    9  S   UNL     1       3.021  33.338  62.130  1.00  0.00    -0.141 SA
HETATM   10  C   UNL     1       2.111  34.907  62.107  1.00  0.00     0.136 C 
HETATM   11  C   UNL     1       0.868  34.695  61.238  1.00  0.00     0.031 C 
HETATM   12  C   UNL     1       2.965  36.038  61.529  1.00  0.00     0.236 C 
HETATM   13  O   UNL     1       2.805  36.490  60.392  1.00  0.00    -0.272 OA
HETATM   14  N   UNL     1       3.873  36.661  62.345  1.00  0.00    -0.311 N 
HETATM   15  H   UNL     1       4.198  37.557  61.998  1.00  0.00     0.170 HD
ENDROOT
BRANCH   8  16
HETATM   16  C   UNL     1       5.611  33.193  63.042  1.00  0.00    -0.039 A 
HETATM   17  C   UNL     1       5.935  32.995  61.684  1.00  0.00     0.021 A 
HETATM   18  C   UNL     1       7.217  32.590  61.280  1.00  0.00    -0.025 A 
HETATM   19  C   UNL     1       8.214  32.378  62.255  1.00  0.00    -0.026 A 
HETATM   20  C   UNL     1       7.522  32.378  59.925  1.00  0.00     0.012 A 
HETATM   21  C   UNL     1       7.901  32.581  63.607  1.00  0.00     0.013 A 
HETATM   22  C   UNL     1       9.493  31.960  61.848  1.00  0.00     0.012 A 
HETATM   23  C   UNL     1       6.618  32.978  63.996  1.00  0.00     0.009 A 
HETATM   24  C   UNL     1       9.780  31.753  60.498  1.00  0.00     0.001 A 
HETATM   25  C   UNL     1       8.795  31.962  59.537  1.00  0.00     0.001 A 
ENDBRANCH   8  16
TORSDOF 1
ENDMDL
MODEL 6
REMARK VINA RESULT:      -7.9      9.305     11.718
REMARK  1 active torsions:
REMARK  status: ('A' for Active; 'I' for Inactive)
REMARK    1  A    between atoms: C_8  and  C_9 
ROOT
HETATM    1  C   UNL     1       2.537  35.894  60.158  1.00  0.00     0.073 C 
HETATM    2  C   UNL     1       2.381  35.189  61.458  1.00  0.00     0.062 C 
HETATM    3  N   UNL     1       1.223  34.586  61.742  1.00  0.00    -0.178 NA
HETATM    4  N   UNL     1       1.443  34.007  62.926  1.00  0.00    -0.262 N 
HETATM    5  H   UNL     1       0.693  33.464  63.338  1.00  0.00     0.191 HD
HETATM    6  C   UNL     1       2.650  34.334  63.479  1.00  0.00     0.134 C 
HETATM    7  C   UNL     1       3.349  35.025  62.505  1.00  0.00     0.032 C 
HETATM    8  C   UNL     1       4.786  35.444  62.439  1.00  0.00     0.119 C 
HETATM    9  S   UNL     1       5.658  35.935  63.955  1.00  0.00    -0.141 SA
HETATM   10  C   UNL     1       4.321  35.996  65.180  1.00  0.00     0.136 C 
HETATM   11  C   UNL     1       4.868  36.725  66.410  1.00  0.00     0.031 C 
HETATM   12  C   UNL     1       3.858  34.589  65.569  1.00  0.00     0.236 C 
HETATM   13  O   UNL     1       4.157  34.055  66.640  1.00  0.00    -0.272 OA
HETATM   14  N   UNL     1       2.979  33.935  64.748  1.00  0.00    -0.311 N 
HETATM   15  H   UNL     1       2.507  33.150  65.185  1.00  0.00     0.170 HD
ENDROOT
BRANCH   8  16
HETATM   16  C   UNL     1       5.519  34.291  61.756  1.00  0.00    -0.039 A 
HETATM   17  C   UNL     1       6.683  33.717  62.308  1.00  0.00     0.021 A 
HETATM   18  C   UNL     1       7.382  32.688  61.656  1.00  0.00    -0.025 A 
HETATM   19  C   UNL     1       6.909  32.208  60.417  1.00  0.00    -0.026 A 
HETATM   20  C   UNL     1       8.551  32.138  62.208  1.00  0.00     0.012 A 
HETATM   21  C   UNL     1       5.747  32.769  59.867  1.00  0.00     0.013 A 
HETATM   22  C   UNL     1       7.618  31.188  59.762  1.00  0.00     0.012 A 
HETATM   23  C   UNL     1       5.064  33.798  60.523  1.00  0.00     0.009 A 
HETATM   24  C   UNL     1       8.778  30.651  60.322  1.00  0.00     0.001 A 
HETATM   25  C   UNL     1       9.245  31.126  61.544  1.00  0.00     0.001 A 
ENDBRANCH   8  16
TORSDOF 1
ENDMDL
MODEL 7
REMARK VINA RESULT:      -7.9      9.142     11.885
REMARK  1 active torsions:
REMARK  status: ('A' for Active; 'I' for Inactive)
REMARK    1  A    between atoms: C_8  and  C_9 
ROOT
HETATM    1  C   UNL     1       5.765  37.685  63.818  1.00  0.00     0.073 C 
HETATM    2  C   UNL     1       5.295  37.415  62.434  1.00  0.00     0.062 C 
HETATM    3  N   UNL     1       5.560  38.300  61.468  1.00  0.00    -0.178 NA
HETATM    4  N   UNL     1       5.069  37.728  60.365  1.00  0.00    -0.262 N 
HETATM    5  H   UNL     1       5.176  38.220  59.485  1.00  0.00     0.191 HD
HETATM    6  C   UNL     1       4.374  36.576  60.608  1.00  0.00     0.134 C 
HETATM    7  C   UNL     1       4.583  36.271  61.941  1.00  0.00     0.032 C 
HETATM    8  C   UNL     1       4.268  35.034  62.726  1.00  0.00     0.119 C 
HETATM    9  S   UNL     1       2.773  34.075  62.345  1.00  0.00    -0.141 SA
HETATM   10  C   UNL     1       1.907  35.142  61.161  1.00  0.00     0.136 C 
HETATM   11  C   UNL     1       0.480  34.604  61.028  1.00  0.00     0.031 C 
HETATM   12  C   UNL     1       2.598  35.133  59.795  1.00  0.00     0.236 C 
HETATM   13  O   UNL     1       2.157  34.519  58.821  1.00  0.00    -0.272 OA
HETATM   14  N   UNL     1       3.693  35.935  59.606  1.00  0.00    -0.311 N 
HETATM   15  H   UNL     1       3.929  36.093  58.632  1.00  0.00     0.170 HD
ENDROOT
BRANCH   8  16
HETATM   16  C   UNL     1       5.508  34.149  62.615  1.00  0.00    -0.039 A 
HETATM   17  C   UNL     1       5.808  33.432  61.439  1.00  0.00     0.021 A 
HETATM   18  C   UNL     1       6.924  32.583  61.353  1.00  0.00    -0.025 A 
HETATM   19  C   UNL     1       7.774  32.444  62.470  1.00  0.00    -0.026 A 
HETATM   20  C   UNL     1       7.201  31.859  60.181  1.00  0.00     0.012 A 
HETATM   21  C   UNL     1       7.486  33.162  63.640  1.00  0.00     0.013 A 
HETATM   22  C   UNL     1       8.881  31.584  62.385  1.00  0.00     0.012 A 
HETATM   23  C   UNL     1       6.367  33.998  63.714  1.00  0.00     0.009 A 
HETATM   24  C   UNL     1       9.143  30.870  61.214  1.00  0.00     0.001 A 
HETATM   25  C   UNL     1       8.303  31.008  60.113  1.00  0.00     0.001 A 
ENDBRANCH   8  16
TORSDOF 1
ENDMDL
MODEL 8
REMARK VINA RESULT:      -7.8      3.162      4.743
REMARK  1 active torsions:
REMARK  status: ('A' for Active; 'I' for Inactive)
REMARK    1  A    between atoms: C_8  and  C_9 
ROOT
HETATM    1  C   UNL     1       4.286  26.315  47.789  1.00  0.00     0.073 C 
HETATM    2  C   UNL     1       3.322  27.149  48.555  1.00  0.00     0.062 C 
HETATM    3  N   UNL     1       2.010  26.943  48.399  1.00  0.00    -0.178 NA
HETATM    4  N   UNL     1       1.448  27.793  49.264  1.00  0.00    -0.262 N 
HETATM    5  H   UNL     1       0.437  27.799  49.336  1.00  0.00     0.191 HD
HETATM    6  C   UNL     1       2.342  28.635  49.865  1.00  0.00     0.134 C 
HETATM    7  C   UNL     1       3.600  28.181  49.511  1.00  0.00     0.032 C 
HETATM    8  C   UNL     1       4.958  28.552  50.027  1.00  0.00     0.119 C 
HETATM    9  S   UNL     1       5.298  30.261  50.539  1.00  0.00    -0.141 SA
HETATM   10  C   UNL     1       3.807  31.141  49.999  1.00  0.00     0.136 C 
HETATM   11  C   UNL     1       4.117  32.639  50.066  1.00  0.00     0.031 C 
HETATM   12  C   UNL     1       2.611  30.815  50.899  1.00  0.00     0.236 C 
HETATM   13  O   UNL     1       2.175  31.596  51.748  1.00  0.00    -0.272 OA
HETATM   14  N   UNL     1       1.918  29.654  50.677  1.00  0.00    -0.311 N 
HETATM   15  H   UNL     1       0.999  29.631  51.106  1.00  0.00     0.170 HD
ENDROOT
BRANCH   8  16
HETATM   16  C   UNL     1       5.236  27.588  51.179  1.00  0.00    -0.039 A 
HETATM   17  C   UNL     1       6.212  26.575  51.082  1.00  0.00     0.021 A 
HETATM   18  C   UNL     1       6.435  25.660  52.125  1.00  0.00    -0.025 A 
HETATM   19  C   UNL     1       5.668  25.755  53.304  1.00  0.00    -0.026 A 
HETATM   20  C   UNL     1       7.398  24.644  52.009  1.00  0.00     0.012 A 
HETATM   21  C   UNL     1       4.701  26.766  53.409  1.00  0.00     0.013 A 
HETATM   22  C   UNL     1       5.885  24.831  54.339  1.00  0.00     0.012 A 
HETATM   23  C   UNL     1       4.484  27.666  52.361  1.00  0.00     0.009 A 
HETATM   24  C   UNL     1       6.844  23.825  54.209  1.00  0.00     0.001 A 
HETATM   25  C   UNL     1       7.601  23.732  53.044  1.00  0.00     0.001 A 
ENDBRANCH   8  16
TORSDOF 1
ENDMDL
MODEL 9
REMARK VINA RESULT:      -7.7     12.890     15.104
REMARK  1 active torsions:
REMARK  status: ('A' for Active; 'I' for Inactive)
REMARK    1  A    between atoms: C_8  and  C_9 
ROOT
HETATM    1  C   UNL     1       1.630  34.375  62.630  1.00  0.00     0.073 C 
HETATM    2  C   UNL     1       2.961  33.886  63.079  1.00  0.00     0.062 C 
HETATM    3  N   UNL     1       3.477  32.786  62.523  1.00  0.00    -0.178 NA
HETATM    4  N   UNL     1       4.680  32.672  63.093  1.00  0.00    -0.262 N 
HETATM    5  H   UNL     1       5.273  31.903  62.803  1.00  0.00     0.191 HD
HETATM    6  C   UNL     1       4.899  33.575  64.095  1.00  0.00     0.134 C 
HETATM    7  C   UNL     1       3.839  34.464  64.055  1.00  0.00     0.032 C 
HETATM    8  C   UNL     1       3.632  35.776  64.749  1.00  0.00     0.119 C 
HETATM    9  S   UNL     1       4.275  36.025  66.429  1.00  0.00    -0.141 SA
HETATM   10  C   UNL     1       4.829  34.361  66.893  1.00  0.00     0.136 C 
HETATM   11  C   UNL     1       5.074  34.371  68.404  1.00  0.00     0.031 C 
HETATM   12  C   UNL     1       6.116  33.978  66.158  1.00  0.00     0.236 C 
HETATM   13  O   UNL     1       7.224  33.969  66.700  1.00  0.00    -0.272 OA
HETATM   14  N   UNL     1       6.026  33.511  64.873  1.00  0.00    -0.311 N 
HETATM   15  H   UNL     1       6.855  33.025  64.548  1.00  0.00     0.170 HD
ENDROOT
BRANCH   8  16
HETATM   16  C   UNL     1       4.197  36.834  63.803  1.00  0.00    -0.039 A 
HETATM   17  C   UNL     1       5.382  37.540  64.097  1.00  0.00     0.021 A 
HETATM   18  C   UNL     1       5.875  38.545  63.249  1.00  0.00    -0.025 A 
HETATM   19  C   UNL     1       5.173  38.858  62.067  1.00  0.00    -0.026 A 
HETATM   20  C   UNL     1       7.047  39.253  63.563  1.00  0.00     0.012 A 
HETATM   21  C   UNL     1       3.998  38.154  61.765  1.00  0.00     0.013 A 
HETATM   22  C   UNL     1       5.662  39.873  61.228  1.00  0.00     0.012 A 
HETATM   23  C   UNL     1       3.514  37.161  62.622  1.00  0.00     0.009 A 
HETATM   24  C   UNL     1       6.827  40.569  61.554  1.00  0.00     0.001 A 
HETATM   25  C   UNL     1       7.519  40.260  62.721  1.00  0.00     0.001 A 
ENDBRANCH   8  16
TORSDOF 1
ENDMDL
MODEL 10
REMARK VINA RESULT:      -7.4      3.776      5.704
REMARK  1 active torsions:
REMARK  status: ('A' for Active; 'I' for Inactive)
REMARK    1  A    between atoms: C_8  and  C_9 
ROOT
HETATM    1  C   UNL     1       4.178  31.142  52.258  1.00  0.00     0.073 C 
HETATM    2  C   UNL     1       4.924  30.637  51.075  1.00  0.00     0.062 C 
HETATM    3  N   UNL     1       5.879  31.396  50.530  1.00  0.00    -0.178 NA
HETATM    4  N   UNL     1       6.381  30.631  49.555  1.00  0.00    -0.262 N 
HETATM    5  H   UNL     1       7.148  31.002  49.007  1.00  0.00     0.191 HD
HETATM    6  C   UNL     1       5.690  29.468  49.362  1.00  0.00     0.134 C 
HETATM    7  C   UNL     1       4.786  29.375  50.406  1.00  0.00     0.032 C 
HETATM    8  C   UNL     1       3.919  28.238  50.855  1.00  0.00     0.119 C 
HETATM    9  S   UNL     1       3.203  27.104  49.630  1.00  0.00    -0.141 SA
HETATM   10  C   UNL     1       3.611  27.910  48.057  1.00  0.00     0.136 C 
HETATM   11  C   UNL     1       2.771  27.233  46.971  1.00  0.00     0.031 C 
HETATM   12  C   UNL     1       5.100  27.770  47.729  1.00  0.00     0.236 C 
HETATM   13  O   UNL     1       5.532  26.987  46.880  1.00  0.00    -0.272 OA
HETATM   14  N   UNL     1       5.988  28.632  48.318  1.00  0.00    -0.311 N 
HETATM   15  H   UNL     1       6.893  28.672  47.862  1.00  0.00     0.170 HD
ENDROOT
BRANCH   8  16
HETATM   16  C   UNL     1       4.753  27.463  51.873  1.00  0.00    -0.039 A 
HETATM   17  C   UNL     1       5.738  26.536  51.476  1.00  0.00     0.021 A 
HETATM   18  C   UNL     1       6.472  25.789  52.412  1.00  0.00    -0.025 A 
HETATM   19  C   UNL     1       6.224  25.971  53.788  1.00  0.00    -0.026 A 
HETATM   20  C   UNL     1       7.439  24.855  52.003  1.00  0.00     0.012 A 
HETATM   21  C   UNL     1       5.251  26.897  54.190  1.00  0.00     0.013 A 
HETATM   22  C   UNL     1       6.951  25.213  54.721  1.00  0.00     0.012 A 
HETATM   23  C   UNL     1       4.522  27.629  53.247  1.00  0.00     0.009 A 
HETATM   24  C   UNL     1       7.908  24.287  54.300  1.00  0.00     0.001 A 
HETATM   25  C   UNL     1       8.152  24.109  52.941  1.00  0.00     0.001 A 
ENDBRANCH   8  16
TORSDOF 1
ENDMDL
