MODEL 1
REMARK VINA RESULT:      -9.3      0.000      0.000
REMARK  9 active torsions:
REMARK  status: ('A' for Active; 'I' for Inactive)
REMARK    1  A    between atoms: C_6  and  N_7 
REMARK    2  A    between atoms: N_7  and  C_8 
REMARK    3  A    between atoms: C_10  and  S_11 
REMARK    4  A    between atoms: S_11  and  C_12 
REMARK    5  A    between atoms: C_15  and  N_16 
REMARK       I    between atoms: N_16  and  C_17 
REMARK    6  A    between atoms: C_17  and  C_18 
REMARK    7  A    between atoms: C_25  and  N_26 
REMARK    8  A    between atoms: C_34  and  C_35 
REMARK    9  A    between atoms: C_35  and  O_36 
ROOT
HETATM    1  C   UNL     1       7.194  30.705  58.225  1.00  0.00     0.152 A 
HETATM    2  N   UNL     1       6.132  31.527  58.312  1.00  0.00    -0.204 NA
HETATM    3  C   UNL     1       5.065  31.287  57.544  1.00  0.00     0.196 A 
HETATM    4  N   UNL     1       4.961  30.244  56.711  1.00  0.00    -0.209 NA
HETATM    5  C   UNL     1       5.993  29.380  56.645  1.00  0.00     0.128 A 
HETATM    6  C   UNL     1       7.159  29.594  57.385  1.00  0.00     0.125 A 
ENDROOT
BRANCH   3   7
HETATM    7  S   UNL     1       3.758  32.480  57.660  1.00  0.00    -0.050 SA
BRANCH   7   8
HETATM    8  C   UNL     1       3.779  33.070  59.337  1.00  0.00     0.008 A 
HETATM    9  C   UNL     1       3.441  32.269  60.432  1.00  0.00     0.021 A 
HETATM   10  C   UNL     1       3.531  32.767  61.737  1.00  0.00     0.031 A 
HETATM   11  C   UNL     1       4.002  34.059  61.971  1.00  0.00     0.034 A 
HETATM   12  C   UNL     1       4.375  34.850  60.883  1.00  0.00     0.031 A 
HETATM   13  C   UNL     1       4.253  34.365  59.577  1.00  0.00     0.021 A 
BRANCH  11  14
HETATM   14  N   UNL     1       4.177  34.598  63.259  1.00  0.00    -0.327 N 
HETATM   15  C   UNL     1       4.524  33.909  64.400  1.00  0.00     0.226 C 
HETATM   16  O   UNL     1       4.606  32.694  64.524  1.00  0.00    -0.273 OA
HETATM   17  H   UNL     1       4.007  35.589  63.356  1.00  0.00     0.169 HD
BRANCH  15  18
HETATM   18  C   UNL     1       4.813  34.768  65.585  1.00  0.00     0.078 A 
HETATM   19  C   UNL     1       4.550  36.253  65.668  1.00  0.00     0.015 A 
HETATM   20  C   UNL     1       3.656  35.298  66.402  1.00  0.00     0.015 A 
ENDBRANCH  15  18
ENDBRANCH  11  14
ENDBRANCH   7   8
ENDBRANCH   3   7
BRANCH   1  21
HETATM   21  N   UNL     1       8.306  30.975  59.043  1.00  0.00    -0.323 N 
HETATM   22  H   UNL     1       9.104  31.355  58.547  1.00  0.00     0.169 HD
BRANCH  21  23
HETATM   23  C   UNL     1       8.396  31.129  60.379  1.00  0.00     0.151 A 
HETATM   24  N   UNL     1       8.851  30.154  61.169  1.00  0.00    -0.157 NA
HETATM   25  N   UNL     1       8.757  30.661  62.410  1.00  0.00    -0.281 N 
HETATM   26  C   UNL     1       8.228  31.919  62.451  1.00  0.00     0.027 A 
HETATM   27  H   UNL     1       9.063  30.084  63.187  1.00  0.00     0.189 HD
HETATM   28  C   UNL     1       8.001  32.654  63.712  1.00  0.00     0.070 C 
HETATM   29  C   UNL     1       7.987  32.250  61.136  1.00  0.00     0.078 A 
ENDBRANCH  21  23
ENDBRANCH   1  21
BRANCH   5  30
HETATM   30  N   UNL     1       5.830  28.277  55.790  1.00  0.00    -0.264 NA
HETATM   31  C   UNL     1       5.181  27.099  56.394  1.00  0.00     0.125 C 
HETATM   32  C   UNL     1       5.453  25.865  55.508  1.00  0.00     0.249 C 
HETATM   33  N   UNL     1       4.955  26.111  54.083  1.00  0.00    -0.073 N 
HETATM   34  H   UNL     1       3.938  26.254  54.132  1.00  0.00     0.279 HD
HETATM   35  C   UNL     1       5.210  24.929  53.198  1.00  0.00     0.269 C 
HETATM   36  C   UNL     1       5.557  27.395  53.501  1.00  0.00     0.249 C 
HETATM   37  C   UNL     1       5.319  28.598  54.441  1.00  0.00     0.125 C 
ENDBRANCH   5  30
BRANCH   6  38
HETATM   38  C   UNL     1       8.331  28.713  57.206  1.00  0.00     0.300 C 
HETATM   39  O   UNL     1       8.478  27.636  57.759  1.00  0.00    -0.259 OA
BRANCH  38  40
HETATM   40  O   UNL     1       9.245  29.333  56.422  1.00  0.00    -0.322 OA
HETATM   41  C   UNL     1      10.589  29.366  56.916  1.00  0.00     0.213 C 
ENDBRANCH  38  40
ENDBRANCH   6  38
TORSDOF 9
ENDMDL
MODEL 2
REMARK VINA RESULT:      -8.6      2.381      4.035
REMARK  9 active torsions:
REMARK  status: ('A' for Active; 'I' for Inactive)
REMARK    1  A    between atoms: C_6  and  N_7 
REMARK    2  A    between atoms: N_7  and  C_8 
REMARK    3  A    between atoms: C_10  and  S_11 
REMARK    4  A    between atoms: S_11  and  C_12 
REMARK    5  A    between atoms: C_15  and  N_16 
REMARK       I    between atoms: N_16  and  C_17 
REMARK    6  A    between atoms: C_17  and  C_18 
REMARK    7  A    between atoms: C_25  and  N_26 
REMARK    8  A    between atoms: C_34  and  C_35 
REMARK    9  A    between atoms: C_35  and  O_36 
ROOT
HETATM    1  C   UNL     1       5.818  30.774  57.595  1.00  0.00     0.152 A 
HETATM    2  N   UNL     1       6.844  31.099  58.402  1.00  0.00    -0.204 NA
HETATM    3  C   UNL     1       7.790  30.188  58.644  1.00  0.00     0.196 A 
HETATM    4  N   UNL     1       7.812  28.967  58.095  1.00  0.00    -0.209 NA
HETATM    5  C   UNL     1       6.821  28.636  57.244  1.00  0.00     0.128 A 
HETATM    6  C   UNL     1       5.773  29.524  56.981  1.00  0.00     0.125 A 
ENDROOT
BRANCH   3   7
HETATM    7  S   UNL     1       9.046  30.679  59.796  1.00  0.00    -0.050 SA
BRANCH   7   8
HETATM    8  C   UNL     1       8.214  31.608  61.063  1.00  0.00     0.008 A 
HETATM    9  C   UNL     1       8.562  31.537  62.414  1.00  0.00     0.021 A 
HETATM   10  C   UNL     1       7.912  32.335  63.363  1.00  0.00     0.031 A 
HETATM   11  C   UNL     1       6.935  33.249  62.969  1.00  0.00     0.034 A 
HETATM   12  C   UNL     1       6.610  33.351  61.615  1.00  0.00     0.031 A 
HETATM   13  C   UNL     1       7.235  32.528  60.672  1.00  0.00     0.021 A 
BRANCH  11  14
HETATM   14  N   UNL     1       6.290  34.126  63.862  1.00  0.00    -0.327 N 
HETATM   15  C   UNL     1       5.226  33.828  64.685  1.00  0.00     0.226 C 
HETATM   16  O   UNL     1       4.570  32.795  64.686  1.00  0.00    -0.273 OA
HETATM   17  H   UNL     1       6.630  35.077  63.879  1.00  0.00     0.169 HD
BRANCH  15  18
HETATM   18  C   UNL     1       4.865  34.905  65.652  1.00  0.00     0.078 A 
HETATM   19  C   UNL     1       3.863  34.766  66.774  1.00  0.00     0.015 A 
HETATM   20  C   UNL     1       5.330  34.783  67.086  1.00  0.00     0.015 A 
ENDBRANCH  15  18
ENDBRANCH  11  14
ENDBRANCH   7   8
ENDBRANCH   3   7
BRANCH   1  21
HETATM   21  N   UNL     1       4.834  31.749  57.353  1.00  0.00    -0.323 N 
HETATM   22  H   UNL     1       4.247  31.555  56.550  1.00  0.00     0.169 HD
BRANCH  21  23
HETATM   23  C   UNL     1       4.323  32.701  58.160  1.00  0.00     0.151 A 
HETATM   24  N   UNL     1       3.345  32.435  59.027  1.00  0.00    -0.157 NA
HETATM   25  N   UNL     1       3.086  33.618  59.609  1.00  0.00    -0.281 N 
HETATM   26  C   UNL     1       3.842  34.645  59.124  1.00  0.00     0.027 A 
HETATM   27  H   UNL     1       2.367  33.652  60.325  1.00  0.00     0.189 HD
HETATM   28  C   UNL     1       3.700  36.039  59.594  1.00  0.00     0.070 C 
HETATM   29  C   UNL     1       4.663  34.072  58.178  1.00  0.00     0.078 A 
ENDBRANCH  21  23
ENDBRANCH   1  21
BRANCH   5  30
HETATM   30  N   UNL     1       6.900  27.362  56.658  1.00  0.00    -0.264 NA
HETATM   31  C   UNL     1       7.580  27.308  55.350  1.00  0.00     0.125 C 
HETATM   32  C   UNL     1       7.220  25.980  54.652  1.00  0.00     0.249 C 
HETATM   33  N   UNL     1       7.605  24.791  55.535  1.00  0.00    -0.073 N 
HETATM   34  H   UNL     1       8.624  24.821  55.664  1.00  0.00     0.279 HD
HETATM   35  C   UNL     1       7.263  23.487  54.881  1.00  0.00     0.269 C 
HETATM   36  C   UNL     1       6.975  24.910  56.927  1.00  0.00     0.249 C 
HETATM   37  C   UNL     1       7.304  26.274  57.573  1.00  0.00     0.125 C 
ENDBRANCH   5  30
BRANCH   6  38
HETATM   38  C   UNL     1       4.628  29.103  56.150  1.00  0.00     0.300 C 
HETATM   39  O   UNL     1       3.844  28.217  56.448  1.00  0.00    -0.259 OA
BRANCH  38  40
HETATM   40  O   UNL     1       4.650  29.779  54.976  1.00  0.00    -0.322 OA
HETATM   41  C   UNL     1       4.605  28.985  53.785  1.00  0.00     0.213 C 
ENDBRANCH  38  40
ENDBRANCH   6  38
TORSDOF 9
ENDMDL
MODEL 3
REMARK VINA RESULT:      -8.6      3.297     10.483
REMARK  9 active torsions:
REMARK  status: ('A' for Active; 'I' for Inactive)
REMARK    1  A    between atoms: C_6  and  N_7 
REMARK    2  A    between atoms: N_7  and  C_8 
REMARK    3  A    between atoms: C_10  and  S_11 
REMARK    4  A    between atoms: S_11  and  C_12 
REMARK    5  A    between atoms: C_15  and  N_16 
REMARK       I    between atoms: N_16  and  C_17 
REMARK    6  A    between atoms: C_17  and  C_18 
REMARK    7  A    between atoms: C_25  and  N_26 
REMARK    8  A    between atoms: C_34  and  C_35 
REMARK    9  A    between atoms: C_35  and  O_36 
ROOT
HETATM    1  C   UNL     1       5.331  30.299  55.627  1.00  0.00     0.152 A 
HETATM    2  N   UNL     1       6.343  29.481  55.969  1.00  0.00    -0.204 NA
HETATM    3  C   UNL     1       6.862  29.573  57.196  1.00  0.00     0.196 A 
HETATM    4  N   UNL     1       6.408  30.407  58.140  1.00  0.00    -0.209 NA
HETATM    5  C   UNL     1       5.363  31.201  57.837  1.00  0.00     0.128 A 
HETATM    6  C   UNL     1       4.800  31.191  56.557  1.00  0.00     0.125 A 
ENDROOT
BRANCH   3   7
HETATM    7  S   UNL     1       8.254  28.522  57.517  1.00  0.00    -0.050 SA
BRANCH   7   8
HETATM    8  C   UNL     1       7.875  26.960  56.757  1.00  0.00     0.008 A 
HETATM    9  C   UNL     1       7.393  26.844  55.451  1.00  0.00     0.021 A 
HETATM   10  C   UNL     1       7.168  25.586  54.880  1.00  0.00     0.031 A 
HETATM   11  C   UNL     1       7.462  24.423  55.592  1.00  0.00     0.034 A 
HETATM   12  C   UNL     1       7.979  24.533  56.885  1.00  0.00     0.031 A 
HETATM   13  C   UNL     1       8.172  25.791  57.467  1.00  0.00     0.021 A 
BRANCH  11  14
HETATM   14  N   UNL     1       7.320  23.130  55.056  1.00  0.00    -0.327 N 
HETATM   15  C   UNL     1       7.844  22.667  53.869  1.00  0.00     0.226 C 
HETATM   16  O   UNL     1       8.408  23.333  53.011  1.00  0.00    -0.273 OA
HETATM   17  H   UNL     1       6.753  22.485  55.588  1.00  0.00     0.169 HD
BRANCH  15  18
HETATM   18  C   UNL     1       7.681  21.202  53.643  1.00  0.00     0.078 A 
HETATM   19  C   UNL     1       8.588  20.346  52.791  1.00  0.00     0.015 A 
HETATM   20  C   UNL     1       8.664  20.250  54.286  1.00  0.00     0.015 A 
ENDBRANCH  15  18
ENDBRANCH  11  14
ENDBRANCH   7   8
ENDBRANCH   3   7
BRANCH   1  21
HETATM   21  N   UNL     1       4.799  30.184  54.331  1.00  0.00    -0.323 N 
HETATM   22  H   UNL     1       4.815  31.046  53.798  1.00  0.00     0.169 HD
BRANCH  21  23
HETATM   23  C   UNL     1       4.579  29.097  53.564  1.00  0.00     0.151 A 
HETATM   24  N   UNL     1       3.483  28.348  53.707  1.00  0.00    -0.157 NA
HETATM   25  N   UNL     1       3.639  27.357  52.812  1.00  0.00    -0.281 N 
HETATM   26  C   UNL     1       4.814  27.423  52.119  1.00  0.00     0.027 A 
HETATM   27  H   UNL     1       2.905  26.660  52.737  1.00  0.00     0.189 HD
HETATM   28  C   UNL     1       5.209  26.418  51.112  1.00  0.00     0.070 C 
HETATM   29  C   UNL     1       5.445  28.554  52.589  1.00  0.00     0.078 A 
ENDBRANCH  21  23
ENDBRANCH   1  21
BRANCH   5  30
HETATM   30  N   UNL     1       4.891  32.033  58.865  1.00  0.00    -0.264 NA
HETATM   31  C   UNL     1       3.619  31.616  59.484  1.00  0.00     0.125 C 
HETATM   32  C   UNL     1       3.023  32.807  60.262  1.00  0.00     0.249 C 
HETATM   33  N   UNL     1       4.017  33.313  61.309  1.00  0.00    -0.073 N 
HETATM   34  H   UNL     1       4.182  32.545  61.973  1.00  0.00     0.279 HD
HETATM   35  C   UNL     1       3.465  34.474  62.077  1.00  0.00     0.269 C 
HETATM   36  C   UNL     1       5.370  33.648  60.670  1.00  0.00     0.249 C 
HETATM   37  C   UNL     1       5.909  32.454  59.850  1.00  0.00     0.125 C 
ENDBRANCH   5  30
BRANCH   6  38
HETATM   38  C   UNL     1       3.741  32.155  56.198  1.00  0.00     0.300 C 
HETATM   39  O   UNL     1       2.545  31.924  56.256  1.00  0.00    -0.259 OA
BRANCH  38  40
HETATM   40  O   UNL     1       4.307  33.283  55.705  1.00  0.00    -0.322 OA
HETATM   41  C   UNL     1       3.473  34.446  55.662  1.00  0.00     0.213 C 
ENDBRANCH  38  40
ENDBRANCH   6  38
TORSDOF 9
ENDMDL
MODEL 4
REMARK VINA RESULT:      -8.5      4.667     10.018
REMARK  9 active torsions:
REMARK  status: ('A' for Active; 'I' for Inactive)
REMARK    1  A    between atoms: C_6  and  N_7 
REMARK    2  A    between atoms: N_7  and  C_8 
REMARK    3  A    between atoms: C_10  and  S_11 
REMARK    4  A    between atoms: S_11  and  C_12 
REMARK    5  A    between atoms: C_15  and  N_16 
REMARK       I    between atoms: N_16  and  C_17 
REMARK    6  A    between atoms: C_17  and  C_18 
REMARK    7  A    between atoms: C_25  and  N_26 
REMARK    8  A    between atoms: C_34  and  C_35 
REMARK    9  A    between atoms: C_35  and  O_36 
ROOT
HETATM    1  C   UNL     1       4.596  29.097  56.185  1.00  0.00     0.152 A 
HETATM    2  N   UNL     1       4.663  28.585  54.943  1.00  0.00    -0.204 NA
HETATM    3  C   UNL     1       4.256  29.331  53.913  1.00  0.00     0.196 A 
HETATM    4  N   UNL     1       3.818  30.592  54.029  1.00  0.00    -0.209 NA
HETATM    5  C   UNL     1       3.789  31.143  55.257  1.00  0.00     0.128 A 
HETATM    6  C   UNL     1       4.158  30.405  56.386  1.00  0.00     0.125 A 
ENDROOT
BRANCH   3   7
HETATM    7  S   UNL     1       4.291  28.533  52.330  1.00  0.00    -0.050 SA
BRANCH   7   8
HETATM    8  C   UNL     1       5.231  27.040  52.554  1.00  0.00     0.008 A 
HETATM    9  C   UNL     1       4.701  25.765  52.342  1.00  0.00     0.021 A 
HETATM   10  C   UNL     1       5.502  24.625  52.476  1.00  0.00     0.031 A 
HETATM   11  C   UNL     1       6.858  24.746  52.780  1.00  0.00     0.034 A 
HETATM   12  C   UNL     1       7.402  26.020  52.956  1.00  0.00     0.031 A 
HETATM   13  C   UNL     1       6.593  27.157  52.856  1.00  0.00     0.021 A 
BRANCH  11  14
HETATM   14  N   UNL     1       7.733  23.647  52.865  1.00  0.00    -0.327 N 
HETATM   15  C   UNL     1       7.872  22.785  53.931  1.00  0.00     0.226 C 
HETATM   16  O   UNL     1       7.362  22.902  55.037  1.00  0.00    -0.273 OA
HETATM   17  H   UNL     1       8.337  23.493  52.070  1.00  0.00     0.169 HD
BRANCH  15  18
HETATM   18  C   UNL     1       8.748  21.605  53.670  1.00  0.00     0.078 A 
HETATM   19  C   UNL     1       8.599  20.250  54.321  1.00  0.00     0.015 A 
HETATM   20  C   UNL     1       8.185  20.437  52.891  1.00  0.00     0.015 A 
ENDBRANCH  15  18
ENDBRANCH  11  14
ENDBRANCH   7   8
ENDBRANCH   3   7
BRANCH   1  21
HETATM   21  N   UNL     1       5.032  28.295  57.254  1.00  0.00    -0.323 N 
HETATM   22  H   UNL     1       4.521  28.440  58.117  1.00  0.00     0.169 HD
BRANCH  21  23
HETATM   23  C   UNL     1       5.764  27.162  57.261  1.00  0.00     0.151 A 
HETATM   24  N   UNL     1       5.192  25.957  57.214  1.00  0.00    -0.157 NA
HETATM   25  N   UNL     1       6.223  25.098  57.277  1.00  0.00    -0.281 N 
HETATM   26  C   UNL     1       7.439  25.707  57.396  1.00  0.00     0.027 A 
HETATM   27  H   UNL     1       6.020  24.104  57.245  1.00  0.00     0.189 HD
HETATM   28  C   UNL     1       8.705  24.955  57.516  1.00  0.00     0.070 C 
HETATM   29  C   UNL     1       7.168  27.057  57.384  1.00  0.00     0.078 A 
ENDBRANCH  21  23
ENDBRANCH   1  21
BRANCH   5  30
HETATM   30  N   UNL     1       3.362  32.479  55.333  1.00  0.00    -0.264 NA
HETATM   31  C   UNL     1       4.294  33.474  54.770  1.00  0.00     0.125 C 
HETATM   32  C   UNL     1       3.912  34.874  55.293  1.00  0.00     0.249 C 
HETATM   33  N   UNL     1       2.460  35.200  54.937  1.00  0.00    -0.073 N 
HETATM   34  H   UNL     1       2.389  35.209  53.912  1.00  0.00     0.279 HD
HETATM   35  C   UNL     1       2.061  36.554  55.438  1.00  0.00     0.269 C 
HETATM   36  C   UNL     1       1.510  34.107  55.439  1.00  0.00     0.249 C 
HETATM   37  C   UNL     1       1.955  32.712  54.946  1.00  0.00     0.125 C 
ENDBRANCH   5  30
BRANCH   6  38
HETATM   38  C   UNL     1       4.000  30.976  57.738  1.00  0.00     0.300 C 
HETATM   39  O   UNL     1       3.094  30.697  58.506  1.00  0.00    -0.259 OA
BRANCH  38  40
HETATM   40  O   UNL     1       4.949  31.920  57.942  1.00  0.00    -0.322 OA
HETATM   41  C   UNL     1       6.165  31.477  58.557  1.00  0.00     0.213 C 
ENDBRANCH  38  40
ENDBRANCH   6  38
TORSDOF 9
ENDMDL
MODEL 5
REMARK VINA RESULT:      -8.4      2.783      8.993
REMARK  9 active torsions:
REMARK  status: ('A' for Active; 'I' for Inactive)
REMARK    1  A    between atoms: C_6  and  N_7 
REMARK    2  A    between atoms: N_7  and  C_8 
REMARK    3  A    between atoms: C_10  and  S_11 
REMARK    4  A    between atoms: S_11  and  C_12 
REMARK    5  A    between atoms: C_15  and  N_16 
REMARK       I    between atoms: N_16  and  C_17 
REMARK    6  A    between atoms: C_17  and  C_18 
REMARK    7  A    between atoms: C_25  and  N_26 
REMARK    8  A    between atoms: C_34  and  C_35 
REMARK    9  A    between atoms: C_35  and  O_36 
ROOT
HETATM    1  C   UNL     1       6.193  32.248  59.883  1.00  0.00     0.152 A 
HETATM    2  N   UNL     1       5.744  32.960  58.833  1.00  0.00    -0.204 NA
HETATM    3  C   UNL     1       4.942  34.003  59.055  1.00  0.00     0.196 A 
HETATM    4  N   UNL     1       4.580  34.424  60.274  1.00  0.00    -0.209 NA
HETATM    5  C   UNL     1       5.057  33.757  61.342  1.00  0.00     0.128 A 
HETATM    6  C   UNL     1       5.865  32.627  61.183  1.00  0.00     0.125 A 
ENDROOT
BRANCH   3   7
HETATM    7  S   UNL     1       4.326  34.816  57.603  1.00  0.00    -0.050 SA
BRANCH   7   8
HETATM    8  C   UNL     1       3.964  33.526  56.435  1.00  0.00     0.008 A 
HETATM    9  C   UNL     1       3.037  32.510  56.683  1.00  0.00     0.021 A 
HETATM   10  C   UNL     1       2.747  31.552  55.704  1.00  0.00     0.031 A 
HETATM   11  C   UNL     1       3.346  31.621  54.446  1.00  0.00     0.034 A 
HETATM   12  C   UNL     1       4.246  32.656  54.181  1.00  0.00     0.031 A 
HETATM   13  C   UNL     1       4.561  33.592  55.171  1.00  0.00     0.021 A 
BRANCH  11  14
HETATM   14  N   UNL     1       3.051  30.729  53.398  1.00  0.00    -0.327 N 
HETATM   15  C   UNL     1       3.674  29.529  53.137  1.00  0.00     0.226 C 
HETATM   16  O   UNL     1       4.678  29.093  53.683  1.00  0.00    -0.273 OA
HETATM   17  H   UNL     1       2.322  31.016  52.760  1.00  0.00     0.169 HD
BRANCH  15  18
HETATM   18  C   UNL     1       3.031  28.712  52.066  1.00  0.00     0.078 A 
HETATM   19  C   UNL     1       2.254  29.267  50.896  1.00  0.00     0.015 A 
HETATM   20  C   UNL     1       3.634  28.722  50.680  1.00  0.00     0.015 A 
ENDBRANCH  15  18
ENDBRANCH  11  14
ENDBRANCH   7   8
ENDBRANCH   3   7
BRANCH   1  21
HETATM   21  N   UNL     1       7.038  31.154  59.626  1.00  0.00    -0.323 N 
HETATM   22  H   UNL     1       6.566  30.257  59.619  1.00  0.00     0.169 HD
BRANCH  21  23
HETATM   23  C   UNL     1       8.268  31.104  59.076  1.00  0.00     0.151 A 
HETATM   24  N   UNL     1       9.108  32.139  59.139  1.00  0.00    -0.157 NA
HETATM   25  N   UNL     1      10.192  31.729  58.460  1.00  0.00    -0.281 N 
HETATM   26  C   UNL     1      10.068  30.476  57.932  1.00  0.00     0.027 A 
HETATM   27  H   UNL     1      10.979  32.366  58.386  1.00  0.00     0.189 HD
HETATM   28  C   UNL     1      11.124  29.840  57.118  1.00  0.00     0.070 C 
HETATM   29  C   UNL     1       8.821  30.043  58.324  1.00  0.00     0.078 A 
ENDBRANCH  21  23
ENDBRANCH   1  21
BRANCH   5  30
HETATM   30  N   UNL     1       4.688  34.253  62.604  1.00  0.00    -0.264 NA
HETATM   31  C   UNL     1       5.265  35.562  62.963  1.00  0.00     0.125 C 
HETATM   32  C   UNL     1       5.132  35.769  64.486  1.00  0.00     0.249 C 
HETATM   33  N   UNL     1       3.667  35.665  64.913  1.00  0.00    -0.073 N 
HETATM   34  H   UNL     1       3.154  36.420  64.440  1.00  0.00     0.279 HD
HETATM   35  C   UNL     1       3.509  35.859  66.391  1.00  0.00     0.269 C 
HETATM   36  C   UNL     1       3.047  34.344  64.445  1.00  0.00     0.249 C 
HETATM   37  C   UNL     1       3.251  34.139  62.927  1.00  0.00     0.125 C 
ENDBRANCH   5  30
BRANCH   6  38
HETATM   38  C   UNL     1       6.275  31.830  62.356  1.00  0.00     0.300 C 
HETATM   39  O   UNL     1       5.515  31.164  63.040  1.00  0.00    -0.259 OA
BRANCH  38  40
HETATM   40  O   UNL     1       7.590  32.037  62.605  1.00  0.00    -0.322 OA
HETATM   41  C   UNL     1       7.902  32.838  63.750  1.00  0.00     0.213 C 
ENDBRANCH  38  40
ENDBRANCH   6  38
TORSDOF 9
ENDMDL
MODEL 6
REMARK VINA RESULT:      -8.0      2.920      5.212
REMARK  9 active torsions:
REMARK  status: ('A' for Active; 'I' for Inactive)
REMARK    1  A    between atoms: C_6  and  N_7 
REMARK    2  A    between atoms: N_7  and  C_8 
REMARK    3  A    between atoms: C_10  and  S_11 
REMARK    4  A    between atoms: S_11  and  C_12 
REMARK    5  A    between atoms: C_15  and  N_16 
REMARK       I    between atoms: N_16  and  C_17 
REMARK    6  A    between atoms: C_17  and  C_18 
REMARK    7  A    between atoms: C_25  and  N_26 
REMARK    8  A    between atoms: C_34  and  C_35 
REMARK    9  A    between atoms: C_35  and  O_36 
ROOT
HETATM    1  C   UNL     1       6.760  29.041  55.794  1.00  0.00     0.152 A 
HETATM    2  N   UNL     1       7.701  29.700  56.493  1.00  0.00    -0.204 NA
HETATM    3  C   UNL     1       8.593  28.998  57.197  1.00  0.00     0.196 A 
HETATM    4  N   UNL     1       8.643  27.660  57.221  1.00  0.00    -0.209 NA
HETATM    5  C   UNL     1       7.741  26.979  56.488  1.00  0.00     0.128 A 
HETATM    6  C   UNL     1       6.750  27.648  55.763  1.00  0.00     0.125 A 
ENDROOT
BRANCH   3   7
HETATM    7  S   UNL     1       9.730  29.958  58.162  1.00  0.00    -0.050 SA
BRANCH   7   8
HETATM    8  C   UNL     1       8.773  30.677  59.477  1.00  0.00     0.008 A 
HETATM    9  C   UNL     1       9.081  30.503  60.828  1.00  0.00     0.021 A 
HETATM   10  C   UNL     1       8.328  31.140  61.822  1.00  0.00     0.031 A 
HETATM   11  C   UNL     1       7.283  31.997  61.477  1.00  0.00     0.034 A 
HETATM   12  C   UNL     1       6.994  32.203  60.126  1.00  0.00     0.031 A 
HETATM   13  C   UNL     1       7.725  31.539  59.135  1.00  0.00     0.021 A 
BRANCH  11  14
HETATM   14  N   UNL     1       6.529  32.718  62.421  1.00  0.00    -0.327 N 
HETATM   15  C   UNL     1       5.528  32.223  63.228  1.00  0.00     0.226 C 
HETATM   16  O   UNL     1       5.026  31.108  63.170  1.00  0.00    -0.273 OA
HETATM   17  H   UNL     1       6.730  33.705  62.494  1.00  0.00     0.169 HD
BRANCH  15  18
HETATM   18  C   UNL     1       5.027  33.178  64.259  1.00  0.00     0.078 A 
HETATM   19  C   UNL     1       5.225  34.676  64.228  1.00  0.00     0.015 A 
HETATM   20  C   UNL     1       3.878  34.096  63.908  1.00  0.00     0.015 A 
ENDBRANCH  15  18
ENDBRANCH  11  14
ENDBRANCH   7   8
ENDBRANCH   3   7
BRANCH   1  21
HETATM   21  N   UNL     1       5.832  29.800  55.058  1.00  0.00    -0.323 N 
HETATM   22  H   UNL     1       5.911  29.693  54.054  1.00  0.00     0.169 HD
BRANCH  21  23
HETATM   23  C   UNL     1       4.672  30.374  55.435  1.00  0.00     0.151 A 
HETATM   24  N   UNL     1       4.033  30.003  56.547  1.00  0.00    -0.157 NA
HETATM   25  N   UNL     1       2.923  30.760  56.561  1.00  0.00    -0.281 N 
HETATM   26  C   UNL     1       2.808  31.585  55.479  1.00  0.00     0.027 A 
HETATM   27  H   UNL     1       2.280  30.651  57.338  1.00  0.00     0.189 HD
HETATM   28  C   UNL     1       1.650  32.480  55.272  1.00  0.00     0.070 C 
HETATM   29  C   UNL     1       3.940  31.356  54.729  1.00  0.00     0.078 A 
ENDBRANCH  21  23
ENDBRANCH   1  21
BRANCH   5  30
HETATM   30  N   UNL     1       7.850  25.579  56.507  1.00  0.00    -0.264 NA
HETATM   31  C   UNL     1       8.092  24.945  55.197  1.00  0.00     0.125 C 
HETATM   32  C   UNL     1       7.766  23.440  55.298  1.00  0.00     0.249 C 
HETATM   33  N   UNL     1       8.600  22.786  56.401  1.00  0.00    -0.073 N 
HETATM   34  H   UNL     1       9.589  22.884  56.139  1.00  0.00     0.279 HD
HETATM   35  C   UNL     1       8.299  21.323  56.524  1.00  0.00     0.269 C 
HETATM   36  C   UNL     1       8.419  23.516  57.737  1.00  0.00     0.249 C 
HETATM   37  C   UNL     1       8.695  25.029  57.587  1.00  0.00     0.125 C 
ENDBRANCH   5  30
BRANCH   6  38
HETATM   38  C   UNL     1       5.690  26.890  55.069  1.00  0.00     0.300 C 
HETATM   39  O   UNL     1       4.907  26.133  55.619  1.00  0.00    -0.259 OA
BRANCH  38  40
HETATM   40  O   UNL     1       5.793  27.090  53.734  1.00  0.00    -0.322 OA
HETATM   41  C   UNL     1       5.287  26.046  52.894  1.00  0.00     0.213 C 
ENDBRANCH  38  40
ENDBRANCH   6  38
TORSDOF 9
ENDMDL
MODEL 7
REMARK VINA RESULT:      -8.0      2.467      9.898
REMARK  9 active torsions:
REMARK  status: ('A' for Active; 'I' for Inactive)
REMARK    1  A    between atoms: C_6  and  N_7 
REMARK    2  A    between atoms: N_7  and  C_8 
REMARK    3  A    between atoms: C_10  and  S_11 
REMARK    4  A    between atoms: S_11  and  C_12 
REMARK    5  A    between atoms: C_15  and  N_16 
REMARK       I    between atoms: N_16  and  C_17 
REMARK    6  A    between atoms: C_17  and  C_18 
REMARK    7  A    between atoms: C_25  and  N_26 
REMARK    8  A    between atoms: C_34  and  C_35 
REMARK    9  A    between atoms: C_35  and  O_36 
ROOT
HETATM    1  C   UNL     1       5.195  32.225  58.283  1.00  0.00     0.152 A 
HETATM    2  N   UNL     1       6.264  31.409  58.231  1.00  0.00    -0.204 NA
HETATM    3  C   UNL     1       7.055  31.311  59.303  1.00  0.00     0.196 A 
HETATM    4  N   UNL     1       6.830  31.948  60.459  1.00  0.00    -0.209 NA
HETATM    5  C   UNL     1       5.739  32.732  60.551  1.00  0.00     0.128 A 
HETATM    6  C   UNL     1       4.892  32.917  59.454  1.00  0.00     0.125 A 
ENDROOT
BRANCH   3   7
HETATM    7  S   UNL     1       8.488  30.287  59.103  1.00  0.00    -0.050 SA
BRANCH   7   8
HETATM    8  C   UNL     1       8.165  29.260  57.687  1.00  0.00     0.008 A 
HETATM    9  C   UNL     1       8.574  29.593  56.394  1.00  0.00     0.021 A 
HETATM   10  C   UNL     1       8.345  28.720  55.324  1.00  0.00     0.031 A 
HETATM   11  C   UNL     1       7.741  27.481  55.538  1.00  0.00     0.034 A 
HETATM   12  C   UNL     1       7.363  27.128  56.835  1.00  0.00     0.031 A 
HETATM   13  C   UNL     1       7.562  28.015  57.899  1.00  0.00     0.021 A 
BRANCH  11  14
HETATM   14  N   UNL     1       7.540  26.531  54.520  1.00  0.00    -0.327 N 
HETATM   15  C   UNL     1       6.398  25.795  54.292  1.00  0.00     0.226 C 
HETATM   16  O   UNL     1       5.410  25.737  55.014  1.00  0.00    -0.273 OA
HETATM   17  H   UNL     1       8.326  26.356  53.909  1.00  0.00     0.169 HD
BRANCH  15  18
HETATM   18  C   UNL     1       6.410  24.997  53.032  1.00  0.00     0.078 A 
HETATM   19  C   UNL     1       7.611  24.800  52.138  1.00  0.00     0.015 A 
HETATM   20  C   UNL     1       7.144  23.675  53.013  1.00  0.00     0.015 A 
ENDBRANCH  15  18
ENDBRANCH  11  14
ENDBRANCH   7   8
ENDBRANCH   3   7
BRANCH   1  21
HETATM   21  N   UNL     1       4.375  32.311  57.143  1.00  0.00    -0.323 N 
HETATM   22  H   UNL     1       3.870  33.186  57.061  1.00  0.00     0.169 HD
BRANCH  21  23
HETATM   23  C   UNL     1       4.385  31.601  55.998  1.00  0.00     0.151 A 
HETATM   24  N   UNL     1       4.609  32.178  54.815  1.00  0.00    -0.157 NA
HETATM   25  N   UNL     1       4.504  31.173  53.930  1.00  0.00    -0.281 N 
HETATM   26  C   UNL     1       4.188  29.972  54.497  1.00  0.00     0.027 A 
HETATM   27  H   UNL     1       4.649  31.384  52.948  1.00  0.00     0.189 HD
HETATM   28  C   UNL     1       3.988  28.739  53.708  1.00  0.00     0.070 C 
HETATM   29  C   UNL     1       4.109  30.223  55.849  1.00  0.00     0.078 A 
ENDBRANCH  21  23
ENDBRANCH   1  21
BRANCH   5  30
HETATM   30  N   UNL     1       5.517  33.351  61.792  1.00  0.00    -0.264 NA
HETATM   31  C   UNL     1       5.629  32.469  62.968  1.00  0.00     0.125 C 
HETATM   32  C   UNL     1       4.957  33.154  64.177  1.00  0.00     0.249 C 
HETATM   33  N   UNL     1       5.593  34.521  64.437  1.00  0.00    -0.073 N 
HETATM   34  H   UNL     1       6.583  34.361  64.667  1.00  0.00     0.279 HD
HETATM   35  C   UNL     1       4.957  35.210  65.605  1.00  0.00     0.269 C 
HETATM   36  C   UNL     1       5.563  35.393  63.178  1.00  0.00     0.249 C 
HETATM   37  C   UNL     1       6.188  34.655  61.973  1.00  0.00     0.125 C 
ENDBRANCH   5  30
BRANCH   6  38
HETATM   38  C   UNL     1       3.774  33.879  59.525  1.00  0.00     0.300 C 
HETATM   39  O   UNL     1       3.825  35.030  59.126  1.00  0.00    -0.259 OA
BRANCH  38  40
HETATM   40  O   UNL     1       2.737  33.315  60.188  1.00  0.00    -0.322 OA
HETATM   41  C   UNL     1       2.027  34.163  61.098  1.00  0.00     0.213 C 
ENDBRANCH  38  40
ENDBRANCH   6  38
TORSDOF 9
ENDMDL
MODEL 8
REMARK VINA RESULT:      -7.9      6.584     10.847
REMARK  9 active torsions:
REMARK  status: ('A' for Active; 'I' for Inactive)
REMARK    1  A    between atoms: C_6  and  N_7 
REMARK    2  A    between atoms: N_7  and  C_8 
REMARK    3  A    between atoms: C_10  and  S_11 
REMARK    4  A    between atoms: S_11  and  C_12 
REMARK    5  A    between atoms: C_15  and  N_16 
REMARK       I    between atoms: N_16  and  C_17 
REMARK    6  A    between atoms: C_17  and  C_18 
REMARK    7  A    between atoms: C_25  and  N_26 
REMARK    8  A    between atoms: C_34  and  C_35 
REMARK    9  A    between atoms: C_35  and  O_36 
ROOT
HETATM    1  C   UNL     1       3.740  29.148  53.266  1.00  0.00     0.152 A 
HETATM    2  N   UNL     1       4.139  28.677  54.462  1.00  0.00    -0.204 NA
HETATM    3  C   UNL     1       4.444  29.546  55.428  1.00  0.00     0.196 A 
HETATM    4  N   UNL     1       4.338  30.875  55.302  1.00  0.00    -0.209 NA
HETATM    5  C   UNL     1       3.892  31.367  54.130  1.00  0.00     0.128 A 
HETATM    6  C   UNL     1       3.598  30.518  53.058  1.00  0.00     0.125 A 
ENDROOT
BRANCH   3   7
HETATM    7  S   UNL     1       5.053  28.832  56.933  1.00  0.00    -0.050 SA
BRANCH   7   8
HETATM    8  C   UNL     1       5.800  27.285  56.475  1.00  0.00     0.008 A 
HETATM    9  C   UNL     1       5.223  26.045  56.758  1.00  0.00     0.021 A 
HETATM   10  C   UNL     1       5.826  24.859  56.322  1.00  0.00     0.031 A 
HETATM   11  C   UNL     1       6.993  24.897  55.559  1.00  0.00     0.034 A 
HETATM   12  C   UNL     1       7.554  26.136  55.242  1.00  0.00     0.031 A 
HETATM   13  C   UNL     1       6.970  27.319  55.707  1.00  0.00     0.021 A 
BRANCH  11  14
HETATM   14  N   UNL     1       7.613  23.748  55.036  1.00  0.00    -0.327 N 
HETATM   15  C   UNL     1       7.497  23.259  53.753  1.00  0.00     0.226 C 
HETATM   16  O   UNL     1       6.730  23.658  52.886  1.00  0.00    -0.273 OA
HETATM   17  H   UNL     1       8.183  23.215  55.678  1.00  0.00     0.169 HD
BRANCH  15  18
HETATM   18  C   UNL     1       8.410  22.124  53.431  1.00  0.00     0.078 A 
HETATM   19  C   UNL     1       8.696  20.953  54.341  1.00  0.00     0.015 A 
HETATM   20  C   UNL     1       7.812  20.765  53.143  1.00  0.00     0.015 A 
ENDBRANCH  15  18
ENDBRANCH  11  14
ENDBRANCH   7   8
ENDBRANCH   3   7
BRANCH   1  21
HETATM   21  N   UNL     1       3.422  28.215  52.262  1.00  0.00    -0.323 N 
HETATM   22  H   UNL     1       2.433  28.008  52.187  1.00  0.00     0.169 HD
BRANCH  21  23
HETATM   23  C   UNL     1       4.129  27.802  51.191  1.00  0.00     0.151 A 
HETATM   24  N   UNL     1       5.376  27.340  51.308  1.00  0.00    -0.157 NA
HETATM   25  N   UNL     1       5.749  27.071  50.045  1.00  0.00    -0.281 N 
HETATM   26  C   UNL     1       4.798  27.373  49.114  1.00  0.00     0.027 A 
HETATM   27  H   UNL     1       6.678  26.691  49.892  1.00  0.00     0.189 HD
HETATM   28  C   UNL     1       5.008  27.191  47.663  1.00  0.00     0.070 C 
HETATM   29  C   UNL     1       3.726  27.849  49.837  1.00  0.00     0.078 A 
ENDBRANCH  21  23
ENDBRANCH   1  21
BRANCH   5  30
HETATM   30  N   UNL     1       3.756  32.763  54.049  1.00  0.00    -0.264 NA
HETATM   31  C   UNL     1       2.517  33.313  54.629  1.00  0.00     0.125 C 
HETATM   32  C   UNL     1       2.307  34.747  54.101  1.00  0.00     0.249 C 
HETATM   33  N   UNL     1       3.518  35.621  54.433  1.00  0.00    -0.073 N 
HETATM   34  H   UNL     1       3.595  35.663  55.458  1.00  0.00     0.279 HD
HETATM   35  C   UNL     1       3.342  37.020  53.928  1.00  0.00     0.269 C 
HETATM   36  C   UNL     1       4.814  34.989  53.914  1.00  0.00     0.249 C 
HETATM   37  C   UNL     1       4.963  33.534  54.412  1.00  0.00     0.125 C 
ENDBRANCH   5  30
BRANCH   6  38
HETATM   38  C   UNL     1       3.236  31.075  51.740  1.00  0.00     0.300 C 
HETATM   39  O   UNL     1       2.211  30.809  51.134  1.00  0.00    -0.259 OA
BRANCH  38  40
HETATM   40  O   UNL     1       4.256  31.836  51.276  1.00  0.00    -0.322 OA
HETATM   41  C   UNL     1       5.227  31.170  50.460  1.00  0.00     0.213 C 
ENDBRANCH  38  40
ENDBRANCH   6  38
TORSDOF 9
ENDMDL
MODEL 9
REMARK VINA RESULT:      -7.7      3.352      7.464
REMARK  9 active torsions:
REMARK  status: ('A' for Active; 'I' for Inactive)
REMARK    1  A    between atoms: C_6  and  N_7 
REMARK    2  A    between atoms: N_7  and  C_8 
REMARK    3  A    between atoms: C_10  and  S_11 
REMARK    4  A    between atoms: S_11  and  C_12 
REMARK    5  A    between atoms: C_15  and  N_16 
REMARK       I    between atoms: N_16  and  C_17 
REMARK    6  A    between atoms: C_17  and  C_18 
REMARK    7  A    between atoms: C_25  and  N_26 
REMARK    8  A    between atoms: C_34  and  C_35 
REMARK    9  A    between atoms: C_35  and  O_36 
ROOT
HETATM    1  C   UNL     1       3.991  28.019  52.296  1.00  0.00     0.152 A 
HETATM    2  N   UNL     1       3.527  29.179  52.795  1.00  0.00    -0.204 NA
HETATM    3  C   UNL     1       3.842  29.515  54.049  1.00  0.00     0.196 A 
HETATM    4  N   UNL     1       4.636  28.785  54.843  1.00  0.00    -0.209 NA
HETATM    5  C   UNL     1       5.153  27.644  54.347  1.00  0.00     0.128 A 
HETATM    6  C   UNL     1       4.829  27.207  53.059  1.00  0.00     0.125 A 
ENDROOT
BRANCH   3   7
HETATM    7  S   UNL     1       3.103  31.012  54.646  1.00  0.00    -0.050 SA
BRANCH   7   8
HETATM    8  C   UNL     1       3.831  31.317  56.239  1.00  0.00     0.008 A 
HETATM    9  C   UNL     1       3.390  30.697  57.411  1.00  0.00     0.021 A 
HETATM   10  C   UNL     1       4.038  30.928  58.631  1.00  0.00     0.031 A 
HETATM   11  C   UNL     1       5.164  31.749  58.689  1.00  0.00     0.034 A 
HETATM   12  C   UNL     1       5.632  32.342  57.514  1.00  0.00     0.031 A 
HETATM   13  C   UNL     1       4.964  32.137  56.302  1.00  0.00     0.021 A 
BRANCH  11  14
HETATM   14  N   UNL     1       5.899  31.972  59.868  1.00  0.00    -0.327 N 
HETATM   15  C   UNL     1       7.183  31.548  60.132  1.00  0.00     0.226 C 
HETATM   16  O   UNL     1       7.858  30.791  59.447  1.00  0.00    -0.273 OA
HETATM   17  H   UNL     1       5.423  32.474  60.604  1.00  0.00     0.169 HD
BRANCH  15  18
HETATM   18  C   UNL     1       7.771  32.084  61.394  1.00  0.00     0.078 A 
HETATM   19  C   UNL     1       7.079  32.103  62.737  1.00  0.00     0.015 A 
HETATM   20  C   UNL     1       8.176  31.113  62.481  1.00  0.00     0.015 A 
ENDBRANCH  15  18
ENDBRANCH  11  14
ENDBRANCH   7   8
ENDBRANCH   3   7
BRANCH   1  21
HETATM   21  N   UNL     1       3.649  27.685  50.974  1.00  0.00    -0.323 N 
HETATM   22  H   UNL     1       2.738  27.253  50.877  1.00  0.00     0.169 HD
BRANCH  21  23
HETATM   23  C   UNL     1       4.151  28.120  49.800  1.00  0.00     0.151 A 
HETATM   24  N   UNL     1       5.198  27.528  49.222  1.00  0.00    -0.157 NA
HETATM   25  N   UNL     1       5.420  28.255  48.114  1.00  0.00    -0.281 N 
HETATM   26  C   UNL     1       4.571  29.315  47.973  1.00  0.00     0.027 A 
HETATM   27  H   UNL     1       6.180  27.974  47.502  1.00  0.00     0.189 HD
HETATM   28  C   UNL     1       4.657  30.268  46.847  1.00  0.00     0.070 C 
HETATM   29  C   UNL     1       3.728  29.248  49.060  1.00  0.00     0.078 A 
ENDBRANCH  21  23
ENDBRANCH   1  21
BRANCH   5  30
HETATM   30  N   UNL     1       6.012  26.927  55.196  1.00  0.00    -0.264 NA
HETATM   31  C   UNL     1       7.013  27.738  55.915  1.00  0.00     0.125 C 
HETATM   32  C   UNL     1       8.123  26.809  56.449  1.00  0.00     0.249 C 
HETATM   33  N   UNL     1       7.527  25.726  57.349  1.00  0.00    -0.073 N 
HETATM   34  H   UNL     1       7.089  26.199  58.151  1.00  0.00     0.279 HD
HETATM   35  C   UNL     1       8.584  24.806  57.879  1.00  0.00     0.269 C 
HETATM   36  C   UNL     1       6.416  24.956  56.626  1.00  0.00     0.249 C 
HETATM   37  C   UNL     1       5.353  25.919  56.052  1.00  0.00     0.125 C 
ENDBRANCH   5  30
BRANCH   6  38
HETATM   38  C   UNL     1       5.296  25.893  52.575  1.00  0.00     0.300 C 
HETATM   39  O   UNL     1       4.777  24.826  52.858  1.00  0.00    -0.259 OA
BRANCH  38  40
HETATM   40  O   UNL     1       6.436  26.055  51.862  1.00  0.00    -0.322 OA
HETATM   41  C   UNL     1       7.482  25.109  52.112  1.00  0.00     0.213 C 
ENDBRANCH  38  40
ENDBRANCH   6  38
TORSDOF 9
ENDMDL
MODEL 10
REMARK VINA RESULT:      -7.6      4.352      8.612
REMARK  9 active torsions:
REMARK  status: ('A' for Active; 'I' for Inactive)
REMARK    1  A    between atoms: C_6  and  N_7 
REMARK    2  A    between atoms: N_7  and  C_8 
REMARK    3  A    between atoms: C_10  and  S_11 
REMARK    4  A    between atoms: S_11  and  C_12 
REMARK    5  A    between atoms: C_15  and  N_16 
REMARK       I    between atoms: N_16  and  C_17 
REMARK    6  A    between atoms: C_17  and  C_18 
REMARK    7  A    between atoms: C_25  and  N_26 
REMARK    8  A    between atoms: C_34  and  C_35 
REMARK    9  A    between atoms: C_35  and  O_36 
ROOT
HETATM    1  C   UNL     1       5.862  32.229  59.600  1.00  0.00     0.152 A 
HETATM    2  N   UNL     1       5.182  32.824  58.603  1.00  0.00    -0.204 NA
HETATM    3  C   UNL     1       4.380  33.852  58.893  1.00  0.00     0.196 A 
HETATM    4  N   UNL     1       4.236  34.368  60.120  1.00  0.00    -0.209 NA
HETATM    5  C   UNL     1       4.945  33.819  61.126  1.00  0.00     0.128 A 
HETATM    6  C   UNL     1       5.769  32.712  60.904  1.00  0.00     0.125 A 
ENDROOT
BRANCH   3   7
HETATM    7  S   UNL     1       3.454  34.505  57.529  1.00  0.00    -0.050 SA
BRANCH   7   8
HETATM    8  C   UNL     1       4.577  35.548  56.627  1.00  0.00     0.008 A 
HETATM    9  C   UNL     1       5.194  35.156  55.437  1.00  0.00     0.021 A 
HETATM   10  C   UNL     1       6.025  36.039  54.737  1.00  0.00     0.031 A 
HETATM   11  C   UNL     1       6.215  37.343  55.193  1.00  0.00     0.034 A 
HETATM   12  C   UNL     1       5.571  37.752  56.362  1.00  0.00     0.031 A 
HETATM   13  C   UNL     1       4.769  36.859  57.080  1.00  0.00     0.021 A 
BRANCH  11  14
HETATM   14  N   UNL     1       6.984  38.300  54.504  1.00  0.00    -0.327 N 
HETATM   15  C   UNL     1       8.115  38.936  54.966  1.00  0.00     0.226 C 
HETATM   16  O   UNL     1       8.570  38.885  56.101  1.00  0.00    -0.273 OA
HETATM   17  H   UNL     1       6.654  38.561  53.585  1.00  0.00     0.169 HD
BRANCH  15  18
HETATM   18  C   UNL     1       8.823  39.768  53.949  1.00  0.00     0.078 A 
HETATM   19  C   UNL     1      10.281  40.158  54.006  1.00  0.00     0.015 A 
HETATM   20  C   UNL     1       9.830  39.105  53.037  1.00  0.00     0.015 A 
ENDBRANCH  15  18
ENDBRANCH  11  14
ENDBRANCH   7   8
ENDBRANCH   3   7
BRANCH   1  21
HETATM   21  N   UNL     1       6.702  31.149  59.273  1.00  0.00    -0.323 N 
HETATM   22  H   UNL     1       6.209  30.291  59.056  1.00  0.00     0.169 HD
BRANCH  21  23
HETATM   23  C   UNL     1       7.992  31.127  58.882  1.00  0.00     0.151 A 
HETATM   24  N   UNL     1       8.796  32.179  59.054  1.00  0.00    -0.157 NA
HETATM   25  N   UNL     1       9.965  31.794  58.515  1.00  0.00    -0.281 N 
HETATM   26  C   UNL     1       9.935  30.542  57.973  1.00  0.00     0.027 A 
HETATM   27  H   UNL     1      10.742  32.447  58.543  1.00  0.00     0.189 HD
HETATM   28  C   UNL     1      11.098  29.931  57.297  1.00  0.00     0.070 C 
HETATM   29  C   UNL     1       8.657  30.081  58.203  1.00  0.00     0.078 A 
ENDBRANCH  21  23
ENDBRANCH   1  21
BRANCH   5  30
HETATM   30  N   UNL     1       4.798  34.413  62.390  1.00  0.00    -0.264 NA
HETATM   31  C   UNL     1       5.205  35.828  62.477  1.00  0.00     0.125 C 
HETATM   32  C   UNL     1       5.394  36.207  63.960  1.00  0.00     0.249 C 
HETATM   33  N   UNL     1       4.109  35.943  64.747  1.00  0.00    -0.073 N 
HETATM   34  H   UNL     1       3.376  36.546  64.352  1.00  0.00     0.279 HD
HETATM   35  C   UNL     1       4.266  36.299  66.194  1.00  0.00     0.269 C 
HETATM   36  C   UNL     1       3.638  34.495  64.568  1.00  0.00     0.249 C 
HETATM   37  C   UNL     1       3.517  34.130  63.071  1.00  0.00     0.125 C 
ENDBRANCH   5  30
BRANCH   6  38
HETATM   38  C   UNL     1       6.440  32.040  62.035  1.00  0.00     0.300 C 
HETATM   39  O   UNL     1       5.884  31.295  62.825  1.00  0.00    -0.259 OA
BRANCH  38  40
HETATM   40  O   UNL     1       7.725  32.460  62.111  1.00  0.00    -0.322 OA
HETATM   41  C   UNL     1       8.690  31.482  62.515  1.00  0.00     0.213 C 
ENDBRANCH  38  40
ENDBRANCH   6  38
TORSDOF 9
ENDMDL
