MODEL 1
REMARK VINA RESULT:      -9.7      0.000      0.000
REMARK  7 active torsions:
REMARK  status: ('A' for Active; 'I' for Inactive)
REMARK    1  A    between atoms: O_2  and  C_3 
REMARK    2  A    between atoms: C_5  and  C_6 
REMARK    3  A    between atoms: C_8  and  C_9 
REMARK    4  A    between atoms: C_9  and  N_10 
REMARK    5  A    between atoms: N_10  and  C_13 
REMARK    6  A    between atoms: C_13  and  C_14 
REMARK    7  A    between atoms: C_24  and  O_25 
ROOT
HETATM    1  C   UNL     1       7.302  27.816  56.150  1.00  0.00    -0.007 A 
HETATM    2  C   UNL     1       7.363  27.573  54.764  1.00  0.00     0.025 A 
HETATM    3  C   UNL     1       6.493  26.674  54.122  1.00  0.00     0.001 A 
HETATM    4  C   UNL     1       5.530  26.019  54.891  1.00  0.00     0.073 A 
HETATM    5  C   UNL     1       5.426  26.252  56.257  1.00  0.00     0.038 A 
HETATM    6  C   UNL     1       6.310  27.141  56.880  1.00  0.00     0.016 A 
ENDROOT
BRANCH   3   7
HETATM    7  C   UNL     1       6.650  26.399  52.656  1.00  0.00     0.274 C 
BRANCH   7   8
HETATM    8  N   UNL     1       6.847  24.953  52.363  1.00  0.00    -0.067 N 
HETATM    9  H   UNL     1       6.148  24.401  52.872  1.00  0.00     0.277 HD
HETATM   10  H   UNL     1       6.667  24.779  51.367  1.00  0.00     0.277 HD
BRANCH   8  11
HETATM   11  C   UNL     1       8.198  24.413  52.693  1.00  0.00     0.272 C 
BRANCH  11  12
HETATM   12  C   UNL     1       8.064  23.081  53.387  1.00  0.00    -0.022 A 
HETATM   13  C   UNL     1       8.197  22.951  54.802  1.00  0.00    -0.018 A 
HETATM   14  C   UNL     1       8.155  21.649  55.365  1.00  0.00    -0.025 A 
HETATM   15  C   UNL     1       8.374  24.039  55.693  1.00  0.00     0.013 A 
HETATM   16  C   UNL     1       8.295  21.473  56.750  1.00  0.00     0.012 A 
HETATM   17  C   UNL     1       7.971  20.532  54.539  1.00  0.00     0.012 A 
HETATM   18  C   UNL     1       8.473  22.565  57.598  1.00  0.00     0.001 A 
HETATM   19  C   UNL     1       8.507  23.847  57.070  1.00  0.00     0.001 A 
HETATM   20  C   UNL     1       7.832  20.673  53.162  1.00  0.00     0.002 A 
HETATM   21  C   UNL     1       7.884  21.937  52.587  1.00  0.00     0.010 A 
ENDBRANCH  11  12
ENDBRANCH   8  11
ENDBRANCH   7   8
ENDBRANCH   3   7
BRANCH   4  22
HETATM   22  O   UNL     1       4.715  25.114  54.277  1.00  0.00    -0.360 OA
HETATM   23  H   UNL     1       4.619  24.333  54.858  1.00  0.00     0.217 HD
ENDBRANCH   4  22
BRANCH   1  24
HETATM   24  C   UNL     1       8.280  28.724  56.787  1.00  0.00     0.070 A 
HETATM   25  N   UNL     1       8.045  28.984  58.102  1.00  0.00    -0.224 NA
HETATM   26  C   UNL     1       8.903  29.819  58.734  1.00  0.00     0.164 A 
HETATM   27  C   UNL     1       9.994  30.412  58.123  1.00  0.00     0.058 A 
HETATM   28  C   UNL     1      10.228  30.133  56.785  1.00  0.00     0.007 A 
HETATM   29  C   UNL     1       9.364  29.278  56.106  1.00  0.00     0.032 A 
BRANCH  26  30
HETATM   30  O   UNL     1       8.718  30.123  60.066  1.00  0.00    -0.339 OA
HETATM   31  C   UNL     1       7.933  31.289  60.281  1.00  0.00     0.211 C 
ENDBRANCH  26  30
ENDBRANCH   1  24
TORSDOF 7
ENDMDL
MODEL 2
REMARK VINA RESULT:      -9.7      1.213      2.253
REMARK  7 active torsions:
REMARK  status: ('A' for Active; 'I' for Inactive)
REMARK    1  A    between atoms: O_2  and  C_3 
REMARK    2  A    between atoms: C_5  and  C_6 
REMARK    3  A    between atoms: C_8  and  C_9 
REMARK    4  A    between atoms: C_9  and  N_10 
REMARK    5  A    between atoms: N_10  and  C_13 
REMARK    6  A    between atoms: C_13  and  C_14 
REMARK    7  A    between atoms: C_24  and  O_25 
ROOT
HETATM    1  C   UNL     1       6.990  28.611  55.419  1.00  0.00    -0.007 A 
HETATM    2  C   UNL     1       7.175  27.989  54.169  1.00  0.00     0.025 A 
HETATM    3  C   UNL     1       6.104  27.445  53.437  1.00  0.00     0.001 A 
HETATM    4  C   UNL     1       4.819  27.545  53.969  1.00  0.00     0.073 A 
HETATM    5  C   UNL     1       4.596  28.174  55.189  1.00  0.00     0.038 A 
HETATM    6  C   UNL     1       5.676  28.697  55.908  1.00  0.00     0.016 A 
ENDROOT
BRANCH   3   7
HETATM    7  C   UNL     1       6.369  26.729  52.146  1.00  0.00     0.274 C 
BRANCH   7   8
HETATM    8  N   UNL     1       7.091  25.442  52.343  1.00  0.00    -0.067 N 
HETATM    9  H   UNL     1       7.445  25.105  51.441  1.00  0.00     0.277 HD
HETATM   10  H   UNL     1       7.921  25.603  52.925  1.00  0.00     0.277 HD
BRANCH   8  11
HETATM   11  C   UNL     1       6.288  24.349  52.966  1.00  0.00     0.272 C 
BRANCH  11  12
HETATM   12  C   UNL     1       7.008  23.808  54.175  1.00  0.00    -0.022 A 
HETATM   13  C   UNL     1       7.653  22.536  54.162  1.00  0.00    -0.018 A 
HETATM   14  C   UNL     1       8.224  22.058  55.370  1.00  0.00    -0.025 A 
HETATM   15  C   UNL     1       7.763  21.705  53.018  1.00  0.00     0.013 A 
HETATM   16  C   UNL     1       8.856  20.805  55.406  1.00  0.00     0.012 A 
HETATM   17  C   UNL     1       8.159  22.836  56.534  1.00  0.00     0.012 A 
HETATM   18  C   UNL     1       8.941  20.011  54.265  1.00  0.00     0.001 A 
HETATM   19  C   UNL     1       8.399  20.463  53.071  1.00  0.00     0.001 A 
HETATM   20  C   UNL     1       7.537  24.081  56.530  1.00  0.00     0.002 A 
HETATM   21  C   UNL     1       6.960  24.563  55.363  1.00  0.00     0.010 A 
ENDBRANCH  11  12
ENDBRANCH   8  11
ENDBRANCH   7   8
ENDBRANCH   3   7
BRANCH   4  22
HETATM   22  O   UNL     1       3.785  26.980  53.281  1.00  0.00    -0.360 OA
HETATM   23  H   UNL     1       4.133  26.590  52.455  1.00  0.00     0.217 HD
ENDBRANCH   4  22
BRANCH   1  24
HETATM   24  C   UNL     1       8.156  29.112  56.177  1.00  0.00     0.070 A 
HETATM   25  N   UNL     1       7.927  29.327  57.501  1.00  0.00    -0.224 NA
HETATM   26  C   UNL     1       8.957  29.798  58.243  1.00  0.00     0.164 A 
HETATM   27  C   UNL     1      10.216  30.065  57.734  1.00  0.00     0.058 A 
HETATM   28  C   UNL     1      10.441  29.832  56.385  1.00  0.00     0.007 A 
HETATM   29  C   UNL     1       9.401  29.349  55.595  1.00  0.00     0.032 A 
BRANCH  26  30
HETATM   30  O   UNL     1       8.787  30.038  59.590  1.00  0.00    -0.339 OA
HETATM   31  C   UNL     1       9.305  31.291  60.016  1.00  0.00     0.211 C 
ENDBRANCH  26  30
ENDBRANCH   1  24
TORSDOF 7
ENDMDL
MODEL 3
REMARK VINA RESULT:      -9.1      2.193      4.821
REMARK  7 active torsions:
REMARK  status: ('A' for Active; 'I' for Inactive)
REMARK    1  A    between atoms: O_2  and  C_3 
REMARK    2  A    between atoms: C_5  and  C_6 
REMARK    3  A    between atoms: C_8  and  C_9 
REMARK    4  A    between atoms: C_9  and  N_10 
REMARK    5  A    between atoms: N_10  and  C_13 
REMARK    6  A    between atoms: C_13  and  C_14 
REMARK    7  A    between atoms: C_24  and  O_25 
ROOT
HETATM    1  C   UNL     1       8.667  30.992  59.426  1.00  0.00    -0.007 A 
HETATM    2  C   UNL     1       7.950  29.977  58.763  1.00  0.00     0.025 A 
HETATM    3  C   UNL     1       8.394  29.416  57.551  1.00  0.00     0.001 A 
HETATM    4  C   UNL     1       9.592  29.877  57.007  1.00  0.00     0.073 A 
HETATM    5  C   UNL     1      10.338  30.861  57.646  1.00  0.00     0.038 A 
HETATM    6  C   UNL     1       9.873  31.416  58.844  1.00  0.00     0.016 A 
ENDROOT
BRANCH   3   7
HETATM    7  C   UNL     1       7.553  28.390  56.852  1.00  0.00     0.274 C 
BRANCH   7   8
HETATM    8  N   UNL     1       8.256  27.087  56.694  1.00  0.00    -0.067 N 
HETATM    9  H   UNL     1       8.883  27.130  55.884  1.00  0.00     0.277 HD
HETATM   10  H   UNL     1       8.862  26.926  57.507  1.00  0.00     0.277 HD
BRANCH   8  11
HETATM   11  C   UNL     1       7.367  25.899  56.533  1.00  0.00     0.272 C 
BRANCH  11  12
HETATM   12  C   UNL     1       7.479  25.360  55.130  1.00  0.00    -0.022 A 
HETATM   13  C   UNL     1       7.644  23.967  54.867  1.00  0.00    -0.018 A 
HETATM   14  C   UNL     1       7.839  23.553  53.524  1.00  0.00    -0.025 A 
HETATM   15  C   UNL     1       7.629  22.958  55.862  1.00  0.00     0.013 A 
HETATM   16  C   UNL     1       8.019  22.195  53.222  1.00  0.00     0.012 A 
HETATM   17  C   UNL     1       7.853  24.502  52.492  1.00  0.00     0.012 A 
HETATM   18  C   UNL     1       8.004  21.228  54.225  1.00  0.00     0.001 A 
HETATM   19  C   UNL     1       7.805  21.609  55.543  1.00  0.00     0.001 A 
HETATM   20  C   UNL     1       7.680  25.856  52.760  1.00  0.00     0.002 A 
HETATM   21  C   UNL     1       7.500  26.285  54.069  1.00  0.00     0.010 A 
ENDBRANCH  11  12
ENDBRANCH   8  11
ENDBRANCH   7   8
ENDBRANCH   3   7
BRANCH   4  22
HETATM   22  O   UNL     1      10.000  29.365  55.810  1.00  0.00    -0.360 OA
HETATM   23  H   UNL     1       9.789  30.009  55.104  1.00  0.00     0.217 HD
ENDBRANCH   4  22
BRANCH   1  24
HETATM   24  C   UNL     1       8.127  31.592  60.665  1.00  0.00     0.070 A 
HETATM   25  N   UNL     1       6.852  32.055  60.566  1.00  0.00    -0.224 NA
HETATM   26  C   UNL     1       6.309  32.625  61.667  1.00  0.00     0.164 A 
HETATM   27  C   UNL     1       6.973  32.758  62.874  1.00  0.00     0.058 A 
HETATM   28  C   UNL     1       8.269  32.274  62.966  1.00  0.00     0.007 A 
HETATM   29  C   UNL     1       8.856  31.682  61.850  1.00  0.00     0.032 A 
BRANCH  26  30
HETATM   30  O   UNL     1       5.020  33.115  61.629  1.00  0.00    -0.339 OA
HETATM   31  C   UNL     1       4.034  32.152  61.976  1.00  0.00     0.211 C 
ENDBRANCH  26  30
ENDBRANCH   1  24
TORSDOF 7
ENDMDL
MODEL 4
REMARK VINA RESULT:      -8.8      2.459      5.244
REMARK  7 active torsions:
REMARK  status: ('A' for Active; 'I' for Inactive)
REMARK    1  A    between atoms: O_2  and  C_3 
REMARK    2  A    between atoms: C_5  and  C_6 
REMARK    3  A    between atoms: C_8  and  C_9 
REMARK    4  A    between atoms: C_9  and  N_10 
REMARK    5  A    between atoms: N_10  and  C_13 
REMARK    6  A    between atoms: C_13  and  C_14 
REMARK    7  A    between atoms: C_24  and  O_25 
ROOT
HETATM    1  C   UNL     1       8.901  31.043  59.516  1.00  0.00    -0.007 A 
HETATM    2  C   UNL     1       8.432  29.903  58.833  1.00  0.00     0.025 A 
HETATM    3  C   UNL     1       9.030  29.443  57.646  1.00  0.00     0.001 A 
HETATM    4  C   UNL     1      10.133  30.136  57.147  1.00  0.00     0.073 A 
HETATM    5  C   UNL     1      10.637  31.251  57.807  1.00  0.00     0.038 A 
HETATM    6  C   UNL     1      10.020  31.701  58.980  1.00  0.00     0.016 A 
ENDROOT
BRANCH   3   7
HETATM    7  C   UNL     1       8.445  28.268  56.921  1.00  0.00     0.274 C 
BRANCH   7   8
HETATM    8  N   UNL     1       7.410  27.559  57.723  1.00  0.00    -0.067 N 
HETATM    9  H   UNL     1       7.864  26.995  58.449  1.00  0.00     0.277 HD
HETATM   10  H   UNL     1       6.836  28.248  58.225  1.00  0.00     0.277 HD
BRANCH   8  11
HETATM   11  C   UNL     1       6.497  26.671  56.945  1.00  0.00     0.272 C 
BRANCH  11  12
HETATM   12  C   UNL     1       7.282  25.543  56.326  1.00  0.00    -0.022 A 
HETATM   13  C   UNL     1       7.357  25.362  54.913  1.00  0.00    -0.018 A 
HETATM   14  C   UNL     1       8.035  24.219  54.415  1.00  0.00    -0.025 A 
HETATM   15  C   UNL     1       6.794  26.249  53.961  1.00  0.00     0.013 A 
HETATM   16  C   UNL     1       8.121  23.995  53.033  1.00  0.00     0.012 A 
HETATM   17  C   UNL     1       8.624  23.310  55.304  1.00  0.00     0.012 A 
HETATM   18  C   UNL     1       7.551  24.884  52.124  1.00  0.00     0.001 A 
HETATM   19  C   UNL     1       6.892  26.013  52.588  1.00  0.00     0.001 A 
HETATM   20  C   UNL     1       8.554  23.503  56.680  1.00  0.00     0.002 A 
HETATM   21  C   UNL     1       7.884  24.608  57.190  1.00  0.00     0.010 A 
ENDBRANCH  11  12
ENDBRANCH   8  11
ENDBRANCH   7   8
ENDBRANCH   3   7
BRANCH   4  22
HETATM   22  O   UNL     1      10.686  29.718  55.972  1.00  0.00    -0.360 OA
HETATM   23  H   UNL     1      11.311  30.401  55.658  1.00  0.00     0.217 HD
ENDBRANCH   4  22
BRANCH   1  24
HETATM   24  C   UNL     1       8.200  31.521  60.726  1.00  0.00     0.070 A 
HETATM   25  N   UNL     1       6.888  31.831  60.540  1.00  0.00    -0.224 NA
HETATM   26  C   UNL     1       6.197  32.286  61.613  1.00  0.00     0.164 A 
HETATM   27  C   UNL     1       6.747  32.447  62.872  1.00  0.00     0.058 A 
HETATM   28  C   UNL     1       8.083  32.119  63.052  1.00  0.00     0.007 A 
HETATM   29  C   UNL     1       8.820  31.649  61.969  1.00  0.00     0.032 A 
BRANCH  26  30
HETATM   30  O   UNL     1       4.865  32.618  61.488  1.00  0.00    -0.339 OA
HETATM   31  C   UNL     1       4.278  33.084  62.696  1.00  0.00     0.211 C 
ENDBRANCH  26  30
ENDBRANCH   1  24
TORSDOF 7
ENDMDL
MODEL 5
REMARK VINA RESULT:      -8.6      2.471      7.599
REMARK  7 active torsions:
REMARK  status: ('A' for Active; 'I' for Inactive)
REMARK    1  A    between atoms: O_2  and  C_3 
REMARK    2  A    between atoms: C_5  and  C_6 
REMARK    3  A    between atoms: C_8  and  C_9 
REMARK    4  A    between atoms: C_9  and  N_10 
REMARK    5  A    between atoms: N_10  and  C_13 
REMARK    6  A    between atoms: C_13  and  C_14 
REMARK    7  A    between atoms: C_24  and  O_25 
ROOT
HETATM    1  C   UNL     1       6.344  24.858  54.019  1.00  0.00    -0.007 A 
HETATM    2  C   UNL     1       6.103  26.145  54.539  1.00  0.00     0.025 A 
HETATM    3  C   UNL     1       5.377  27.116  53.826  1.00  0.00     0.001 A 
HETATM    4  C   UNL     1       4.868  26.778  52.573  1.00  0.00     0.073 A 
HETATM    5  C   UNL     1       5.066  25.509  52.039  1.00  0.00     0.038 A 
HETATM    6  C   UNL     1       5.803  24.561  52.757  1.00  0.00     0.016 A 
ENDROOT
BRANCH   3   7
HETATM    7  C   UNL     1       5.213  28.494  54.397  1.00  0.00     0.274 C 
BRANCH   7   8
HETATM    8  N   UNL     1       6.487  29.044  54.937  1.00  0.00    -0.067 N 
HETATM    9  H   UNL     1       7.254  28.392  54.740  1.00  0.00     0.277 HD
HETATM   10  H   UNL     1       6.723  29.910  54.437  1.00  0.00     0.277 HD
BRANCH   8  11
HETATM   11  C   UNL     1       6.486  29.336  56.400  1.00  0.00     0.272 C 
BRANCH  11  12
HETATM   12  C   UNL     1       7.880  29.679  56.857  1.00  0.00    -0.022 A 
HETATM   13  C   UNL     1       8.120  30.544  57.966  1.00  0.00    -0.018 A 
HETATM   14  C   UNL     1       9.461  30.895  58.270  1.00  0.00    -0.025 A 
HETATM   15  C   UNL     1       7.104  31.086  58.792  1.00  0.00     0.013 A 
HETATM   16  C   UNL     1       9.742  31.753  59.344  1.00  0.00     0.012 A 
HETATM   17  C   UNL     1      10.513  30.382  57.498  1.00  0.00     0.012 A 
HETATM   18  C   UNL     1       8.718  32.274  60.133  1.00  0.00     0.001 A 
HETATM   19  C   UNL     1       7.401  31.936  59.860  1.00  0.00     0.001 A 
HETATM   20  C   UNL     1      10.267  29.531  56.425  1.00  0.00     0.002 A 
HETATM   21  C   UNL     1       8.961  29.185  56.102  1.00  0.00     0.010 A 
ENDBRANCH  11  12
ENDBRANCH   8  11
ENDBRANCH   7   8
ENDBRANCH   3   7
BRANCH   4  22
HETATM   22  O   UNL     1       4.202  27.732  51.863  1.00  0.00    -0.360 OA
HETATM   23  H   UNL     1       3.245  27.532  51.888  1.00  0.00     0.217 HD
ENDBRANCH   4  22
BRANCH   1  24
HETATM   24  C   UNL     1       7.165  23.893  54.781  1.00  0.00     0.070 A 
HETATM   25  N   UNL     1       7.241  22.650  54.233  1.00  0.00    -0.224 NA
HETATM   26  C   UNL     1       7.971  21.722  54.894  1.00  0.00     0.164 A 
HETATM   27  C   UNL     1       8.640  21.967  56.080  1.00  0.00     0.058 A 
HETATM   28  C   UNL     1       8.563  23.241  56.625  1.00  0.00     0.007 A 
HETATM   29  C   UNL     1       7.819  24.218  55.969  1.00  0.00     0.032 A 
BRANCH  26  30
HETATM   30  O   UNL     1       8.084  20.443  54.390  1.00  0.00    -0.339 OA
HETATM   31  C   UNL     1       8.479  20.401  53.025  1.00  0.00     0.211 C 
ENDBRANCH  26  30
ENDBRANCH   1  24
TORSDOF 7
ENDMDL
MODEL 6
REMARK VINA RESULT:      -8.5      2.186      8.860
REMARK  7 active torsions:
REMARK  status: ('A' for Active; 'I' for Inactive)
REMARK    1  A    between atoms: O_2  and  C_3 
REMARK    2  A    between atoms: C_5  and  C_6 
REMARK    3  A    between atoms: C_8  and  C_9 
REMARK    4  A    between atoms: C_9  and  N_10 
REMARK    5  A    between atoms: N_10  and  C_13 
REMARK    6  A    between atoms: C_13  and  C_14 
REMARK    7  A    between atoms: C_24  and  O_25 
ROOT
HETATM    1  C   UNL     1       6.725  25.374  55.668  1.00  0.00    -0.007 A 
HETATM    2  C   UNL     1       7.579  26.468  55.915  1.00  0.00     0.025 A 
HETATM    3  C   UNL     1       7.150  27.610  56.615  1.00  0.00     0.001 A 
HETATM    4  C   UNL     1       5.839  27.644  57.089  1.00  0.00     0.073 A 
HETATM    5  C   UNL     1       4.976  26.573  56.884  1.00  0.00     0.038 A 
HETATM    6  C   UNL     1       5.417  25.451  56.174  1.00  0.00     0.016 A 
ENDROOT
BRANCH   3   7
HETATM    7  C   UNL     1       8.080  28.774  56.785  1.00  0.00     0.274 C 
BRANCH   7   8
HETATM    8  N   UNL     1       8.124  29.270  58.189  1.00  0.00    -0.067 N 
HETATM    9  H   UNL     1       7.225  29.086  58.647  1.00  0.00     0.277 HD
HETATM   10  H   UNL     1       8.821  28.732  58.718  1.00  0.00     0.277 HD
BRANCH   8  11
HETATM   11  C   UNL     1       8.439  30.720  58.343  1.00  0.00     0.272 C 
BRANCH  11  12
HETATM   12  C   UNL     1       8.279  31.130  59.785  1.00  0.00    -0.022 A 
HETATM   13  C   UNL     1       7.202  31.959  60.219  1.00  0.00    -0.018 A 
HETATM   14  C   UNL     1       7.179  32.379  61.574  1.00  0.00    -0.025 A 
HETATM   15  C   UNL     1       6.145  32.400  59.384  1.00  0.00     0.013 A 
HETATM   16  C   UNL     1       6.146  33.206  62.040  1.00  0.00     0.012 A 
HETATM   17  C   UNL     1       8.190  31.968  62.454  1.00  0.00     0.012 A 
HETATM   18  C   UNL     1       5.124  33.627  61.192  1.00  0.00     0.001 A 
HETATM   19  C   UNL     1       5.122  33.220  59.865  1.00  0.00     0.001 A 
HETATM   20  C   UNL     1       9.229  31.150  62.021  1.00  0.00     0.002 A 
HETATM   21  C   UNL     1       9.279  30.738  60.696  1.00  0.00     0.010 A 
ENDBRANCH  11  12
ENDBRANCH   8  11
ENDBRANCH   7   8
ENDBRANCH   3   7
BRANCH   4  22
HETATM   22  O   UNL     1       5.409  28.769  57.729  1.00  0.00    -0.360 OA
HETATM   23  H   UNL     1       4.600  29.093  57.285  1.00  0.00     0.217 HD
ENDBRANCH   4  22
BRANCH   1  24
HETATM   24  C   UNL     1       7.206  24.224  54.875  1.00  0.00     0.070 A 
HETATM   25  N   UNL     1       7.236  23.040  55.546  1.00  0.00    -0.224 NA
HETATM   26  C   UNL     1       7.679  21.953  54.872  1.00  0.00     0.164 A 
HETATM   27  C   UNL     1       8.095  21.980  53.552  1.00  0.00     0.058 A 
HETATM   28  C   UNL     1       8.051  23.190  52.875  1.00  0.00     0.007 A 
HETATM   29  C   UNL     1       7.601  24.327  53.541  1.00  0.00     0.032 A 
BRANCH  26  30
HETATM   30  O   UNL     1       7.734  20.725  55.498  1.00  0.00    -0.339 OA
HETATM   31  C   UNL     1       8.568  20.710  56.649  1.00  0.00     0.211 C 
ENDBRANCH  26  30
ENDBRANCH   1  24
TORSDOF 7
ENDMDL
MODEL 7
REMARK VINA RESULT:      -8.5      2.094      8.583
REMARK  7 active torsions:
REMARK  status: ('A' for Active; 'I' for Inactive)
REMARK    1  A    between atoms: O_2  and  C_3 
REMARK    2  A    between atoms: C_5  and  C_6 
REMARK    3  A    between atoms: C_8  and  C_9 
REMARK    4  A    between atoms: C_9  and  N_10 
REMARK    5  A    between atoms: N_10  and  C_13 
REMARK    6  A    between atoms: C_13  and  C_14 
REMARK    7  A    between atoms: C_24  and  O_25 
ROOT
HETATM    1  C   UNL     1       7.505  24.709  55.234  1.00  0.00    -0.007 A 
HETATM    2  C   UNL     1       7.037  25.605  56.216  1.00  0.00     0.025 A 
HETATM    3  C   UNL     1       6.807  26.965  55.940  1.00  0.00     0.001 A 
HETATM    4  C   UNL     1       7.037  27.427  54.644  1.00  0.00     0.073 A 
HETATM    5  C   UNL     1       7.477  26.566  53.644  1.00  0.00     0.038 A 
HETATM    6  C   UNL     1       7.713  25.219  53.943  1.00  0.00     0.016 A 
ENDROOT
BRANCH   3   7
HETATM    7  C   UNL     1       6.379  27.888  57.041  1.00  0.00     0.274 C 
BRANCH   7   8
HETATM    8  N   UNL     1       7.506  28.277  57.932  1.00  0.00    -0.067 N 
HETATM    9  H   UNL     1       7.185  28.289  58.907  1.00  0.00     0.277 HD
HETATM   10  H   UNL     1       8.238  27.558  57.890  1.00  0.00     0.277 HD
BRANCH   8  11
HETATM   11  C   UNL     1       8.132  29.598  57.631  1.00  0.00     0.272 C 
BRANCH  11  12
HETATM   12  C   UNL     1       7.436  30.686  58.407  1.00  0.00    -0.022 A 
HETATM   13  C   UNL     1       7.874  31.086  59.704  1.00  0.00    -0.018 A 
HETATM   14  C   UNL     1       7.105  32.049  60.408  1.00  0.00    -0.025 A 
HETATM   15  C   UNL     1       9.033  30.583  60.348  1.00  0.00     0.013 A 
HETATM   16  C   UNL     1       7.492  32.462  61.692  1.00  0.00     0.012 A 
HETATM   17  C   UNL     1       5.954  32.594  59.822  1.00  0.00     0.012 A 
HETATM   18  C   UNL     1       8.634  31.943  62.299  1.00  0.00     0.001 A 
HETATM   19  C   UNL     1       9.406  31.008  61.625  1.00  0.00     0.001 A 
HETATM   20  C   UNL     1       5.543  32.203  58.551  1.00  0.00     0.002 A 
HETATM   21  C   UNL     1       6.273  31.252  57.849  1.00  0.00     0.010 A 
ENDBRANCH  11  12
ENDBRANCH   8  11
ENDBRANCH   7   8
ENDBRANCH   3   7
BRANCH   4  22
HETATM   22  O   UNL     1       6.856  28.754  54.386  1.00  0.00    -0.360 OA
HETATM   23  H   UNL     1       7.711  29.139  54.106  1.00  0.00     0.217 HD
ENDBRANCH   4  22
BRANCH   1  24
HETATM   24  C   UNL     1       7.790  23.303  55.591  1.00  0.00     0.070 A 
HETATM   25  N   UNL     1       7.624  22.412  54.576  1.00  0.00    -0.224 NA
HETATM   26  C   UNL     1       7.860  21.107  54.848  1.00  0.00     0.164 A 
HETATM   27  C   UNL     1       8.260  20.637  56.087  1.00  0.00     0.058 A 
HETATM   28  C   UNL     1       8.435  21.556  57.112  1.00  0.00     0.007 A 
HETATM   29  C   UNL     1       8.199  22.905  56.863  1.00  0.00     0.032 A 
BRANCH  26  30
HETATM   30  O   UNL     1       7.708  20.155  53.862  1.00  0.00    -0.339 OA
HETATM   31  C   UNL     1       8.454  20.431  52.683  1.00  0.00     0.211 C 
ENDBRANCH  26  30
ENDBRANCH   1  24
TORSDOF 7
ENDMDL
MODEL 8
REMARK VINA RESULT:      -8.4      3.528     10.320
REMARK  7 active torsions:
REMARK  status: ('A' for Active; 'I' for Inactive)
REMARK    1  A    between atoms: O_2  and  C_3 
REMARK    2  A    between atoms: C_5  and  C_6 
REMARK    3  A    between atoms: C_8  and  C_9 
REMARK    4  A    between atoms: C_9  and  N_10 
REMARK    5  A    between atoms: N_10  and  C_13 
REMARK    6  A    between atoms: C_13  and  C_14 
REMARK    7  A    between atoms: C_24  and  O_25 
ROOT
HETATM    1  C   UNL     1       8.283  28.625  57.509  1.00  0.00    -0.007 A 
HETATM    2  C   UNL     1       7.866  29.592  58.445  1.00  0.00     0.025 A 
HETATM    3  C   UNL     1       8.628  30.741  58.724  1.00  0.00     0.001 A 
HETATM    4  C   UNL     1       9.825  30.928  58.033  1.00  0.00     0.073 A 
HETATM    5  C   UNL     1      10.256  30.006  57.086  1.00  0.00     0.038 A 
HETATM    6  C   UNL     1       9.491  28.862  56.832  1.00  0.00     0.016 A 
ENDROOT
BRANCH   3   7
HETATM    7  C   UNL     1       8.171  31.701  59.782  1.00  0.00     0.274 C 
BRANCH   7   8
HETATM    8  N   UNL     1       7.555  31.013  60.951  1.00  0.00    -0.067 N 
HETATM    9  H   UNL     1       6.559  30.853  60.769  1.00  0.00     0.277 HD
HETATM   10  H   UNL     1       7.972  30.080  61.056  1.00  0.00     0.277 HD
BRANCH   8  11
HETATM   11  C   UNL     1       7.683  31.730  62.253  1.00  0.00     0.272 C 
BRANCH  11  12
HETATM   12  C   UNL     1       6.371  32.378  62.614  1.00  0.00    -0.022 A 
HETATM   13  C   UNL     1       6.175  33.042  63.861  1.00  0.00    -0.018 A 
HETATM   14  C   UNL     1       4.881  33.540  64.164  1.00  0.00    -0.025 A 
HETATM   15  C   UNL     1       7.190  33.241  64.830  1.00  0.00     0.013 A 
HETATM   16  C   UNL     1       4.640  34.188  65.384  1.00  0.00     0.012 A 
HETATM   17  C   UNL     1       3.836  33.386  63.242  1.00  0.00     0.012 A 
HETATM   18  C   UNL     1       5.659  34.361  66.319  1.00  0.00     0.001 A 
HETATM   19  C   UNL     1       6.935  33.892  66.039  1.00  0.00     0.001 A 
HETATM   20  C   UNL     1       4.043  32.745  62.024  1.00  0.00     0.002 A 
HETATM   21  C   UNL     1       5.298  32.239  61.713  1.00  0.00     0.010 A 
ENDBRANCH  11  12
ENDBRANCH   8  11
ENDBRANCH   7   8
ENDBRANCH   3   7
BRANCH   4  22
HETATM   22  O   UNL     1      10.585  32.019  58.335  1.00  0.00    -0.360 OA
HETATM   23  H   UNL     1       9.995  32.789  58.460  1.00  0.00     0.217 HD
ENDBRANCH   4  22
BRANCH   1  24
HETATM   24  C   UNL     1       7.478  27.404  57.297  1.00  0.00     0.070 A 
HETATM   25  N   UNL     1       8.184  26.241  57.333  1.00  0.00    -0.224 NA
HETATM   26  C   UNL     1       7.499  25.090  57.133  1.00  0.00     0.164 A 
HETATM   27  C   UNL     1       6.136  25.034  56.900  1.00  0.00     0.058 A 
HETATM   28  C   UNL     1       5.425  26.225  56.875  1.00  0.00     0.007 A 
HETATM   29  C   UNL     1       6.101  27.426  57.077  1.00  0.00     0.032 A 
BRANCH  26  30
HETATM   30  O   UNL     1       8.158  23.879  57.156  1.00  0.00    -0.339 OA
HETATM   31  C   UNL     1       8.238  23.250  55.884  1.00  0.00     0.211 C 
ENDBRANCH  26  30
ENDBRANCH   1  24
TORSDOF 7
ENDMDL
MODEL 9
REMARK VINA RESULT:      -8.3      2.707      7.303
REMARK  7 active torsions:
REMARK  status: ('A' for Active; 'I' for Inactive)
REMARK    1  A    between atoms: O_2  and  C_3 
REMARK    2  A    between atoms: C_5  and  C_6 
REMARK    3  A    between atoms: C_8  and  C_9 
REMARK    4  A    between atoms: C_9  and  N_10 
REMARK    5  A    between atoms: N_10  and  C_13 
REMARK    6  A    between atoms: C_13  and  C_14 
REMARK    7  A    between atoms: C_24  and  O_25 
ROOT
HETATM    1  C   UNL     1       7.731  25.126  55.756  1.00  0.00    -0.007 A 
HETATM    2  C   UNL     1       7.405  26.423  55.312  1.00  0.00     0.025 A 
HETATM    3  C   UNL     1       7.284  27.509  56.198  1.00  0.00     0.001 A 
HETATM    4  C   UNL     1       7.511  27.286  57.556  1.00  0.00     0.073 A 
HETATM    5  C   UNL     1       7.857  26.024  58.026  1.00  0.00     0.038 A 
HETATM    6  C   UNL     1       7.960  24.954  57.131  1.00  0.00     0.016 A 
ENDROOT
BRANCH   3   7
HETATM    7  C   UNL     1       6.864  28.852  55.680  1.00  0.00     0.274 C 
BRANCH   7   8
HETATM    8  N   UNL     1       5.431  29.149  55.953  1.00  0.00    -0.067 N 
HETATM    9  H   UNL     1       5.266  29.148  56.966  1.00  0.00     0.277 HD
HETATM   10  H   UNL     1       5.214  30.102  55.637  1.00  0.00     0.277 HD
BRANCH   8  11
HETATM   11  C   UNL     1       4.454  28.214  55.320  1.00  0.00     0.272 C 
BRANCH  11  12
HETATM   12  C   UNL     1       4.199  28.627  53.893  1.00  0.00    -0.022 A 
HETATM   13  C   UNL     1       4.461  27.753  52.796  1.00  0.00    -0.018 A 
HETATM   14  C   UNL     1       4.286  28.253  51.480  1.00  0.00    -0.025 A 
HETATM   15  C   UNL     1       4.890  26.408  52.929  1.00  0.00     0.013 A 
HETATM   16  C   UNL     1       4.545  27.432  50.372  1.00  0.00     0.012 A 
HETATM   17  C   UNL     1       3.852  29.571  51.281  1.00  0.00     0.012 A 
HETATM   18  C   UNL     1       4.972  26.116  50.537  1.00  0.00     0.001 A 
HETATM   19  C   UNL     1       5.139  25.604  51.816  1.00  0.00     0.001 A 
HETATM   20  C   UNL     1       3.589  30.410  52.359  1.00  0.00     0.002 A 
HETATM   21  C   UNL     1       3.766  29.946  53.656  1.00  0.00     0.010 A 
ENDBRANCH  11  12
ENDBRANCH   8  11
ENDBRANCH   7   8
ENDBRANCH   3   7
BRANCH   4  22
HETATM   22  O   UNL     1       7.350  28.328  58.421  1.00  0.00    -0.360 OA
HETATM   23  H   UNL     1       8.227  28.585  58.771  1.00  0.00     0.217 HD
ENDBRANCH   4  22
BRANCH   1  24
HETATM   24  C   UNL     1       7.786  24.006  54.793  1.00  0.00     0.070 A 
HETATM   25  N   UNL     1       7.713  22.768  55.352  1.00  0.00    -0.224 NA
HETATM   26  C   UNL     1       7.770  21.704  54.518  1.00  0.00     0.164 A 
HETATM   27  C   UNL     1       7.894  21.806  53.143  1.00  0.00     0.058 A 
HETATM   28  C   UNL     1       7.958  23.074  52.583  1.00  0.00     0.007 A 
HETATM   29  C   UNL     1       7.902  24.189  53.415  1.00  0.00     0.032 A 
BRANCH  26  30
HETATM   30  O   UNL     1       7.703  20.423  55.025  1.00  0.00    -0.339 OA
HETATM   31  C   UNL     1       8.742  20.120  55.947  1.00  0.00     0.211 C 
ENDBRANCH  26  30
ENDBRANCH   1  24
TORSDOF 7
ENDMDL
MODEL 10
REMARK VINA RESULT:      -8.3      2.034      7.520
REMARK  7 active torsions:
REMARK  status: ('A' for Active; 'I' for Inactive)
REMARK    1  A    between atoms: O_2  and  C_3 
REMARK    2  A    between atoms: C_5  and  C_6 
REMARK    3  A    between atoms: C_8  and  C_9 
REMARK    4  A    between atoms: C_9  and  N_10 
REMARK    5  A    between atoms: N_10  and  C_13 
REMARK    6  A    between atoms: C_13  and  C_14 
REMARK    7  A    between atoms: C_24  and  O_25 
ROOT
HETATM    1  C   UNL     1       6.453  24.956  55.272  1.00  0.00    -0.007 A 
HETATM    2  C   UNL     1       6.483  26.256  54.727  1.00  0.00     0.025 A 
HETATM    3  C   UNL     1       5.722  27.310  55.264  1.00  0.00     0.001 A 
HETATM    4  C   UNL     1       4.929  27.054  56.382  1.00  0.00     0.073 A 
HETATM    5  C   UNL     1       4.893  25.790  56.960  1.00  0.00     0.038 A 
HETATM    6  C   UNL     1       5.647  24.750  56.403  1.00  0.00     0.016 A 
ENDROOT
BRANCH   3   7
HETATM    7  C   UNL     1       5.737  28.655  54.600  1.00  0.00     0.274 C 
BRANCH   7   8
HETATM    8  N   UNL     1       6.519  29.663  55.367  1.00  0.00    -0.067 N 
HETATM    9  H   UNL     1       7.399  29.860  54.877  1.00  0.00     0.277 HD
HETATM   10  H   UNL     1       6.005  30.552  55.383  1.00  0.00     0.277 HD
BRANCH   8  11
HETATM   11  C   UNL     1       6.842  29.285  56.774  1.00  0.00     0.272 C 
BRANCH  11  12
HETATM   12  C   UNL     1       8.245  29.720  57.113  1.00  0.00    -0.022 A 
HETATM   13  C   UNL     1       8.523  30.576  58.220  1.00  0.00    -0.018 A 
HETATM   14  C   UNL     1       9.858  31.017  58.413  1.00  0.00    -0.025 A 
HETATM   15  C   UNL     1       7.550  31.025  59.149  1.00  0.00     0.013 A 
HETATM   16  C   UNL     1      10.173  31.871  59.481  1.00  0.00     0.012 A 
HETATM   17  C   UNL     1      10.868  30.600  57.536  1.00  0.00     0.012 A 
HETATM   18  C   UNL     1       9.192  32.298  60.372  1.00  0.00     0.001 A 
HETATM   19  C   UNL     1       7.882  31.871  60.209  1.00  0.00     0.001 A 
HETATM   20  C   UNL     1      10.587  29.755  56.466  1.00  0.00     0.002 A 
HETATM   21  C   UNL     1       9.285  29.322  56.251  1.00  0.00     0.010 A 
ENDBRANCH  11  12
ENDBRANCH   8  11
ENDBRANCH   7   8
ENDBRANCH   3   7
BRANCH   4  22
HETATM   22  O   UNL     1       4.158  28.064  56.877  1.00  0.00    -0.360 OA
HETATM   23  H   UNL     1       3.332  27.683  57.236  1.00  0.00     0.217 HD
ENDBRANCH   4  22
BRANCH   1  24
HETATM   24  C   UNL     1       7.223  23.868  54.633  1.00  0.00     0.070 A 
HETATM   25  N   UNL     1       7.781  22.979  55.499  1.00  0.00    -0.224 NA
HETATM   26  C   UNL     1       8.508  21.967  54.971  1.00  0.00     0.164 A 
HETATM   27  C   UNL     1       8.708  21.788  53.613  1.00  0.00     0.058 A 
HETATM   28  C   UNL     1       8.126  22.695  52.739  1.00  0.00     0.007 A 
HETATM   29  C   UNL     1       7.373  23.748  53.252  1.00  0.00     0.032 A 
BRANCH  26  30
HETATM   30  O   UNL     1       9.100  21.035  55.797  1.00  0.00    -0.339 OA
HETATM   31  C   UNL     1       8.449  20.891  57.052  1.00  0.00     0.211 C 
ENDBRANCH  26  30
ENDBRANCH   1  24
TORSDOF 7
ENDMDL
