MODEL 1
REMARK VINA RESULT:     -10.5      0.000      0.000
REMARK  8 active torsions:
REMARK  status: ('A' for Active; 'I' for Inactive)
REMARK    1  A    between atoms: C_7  and  C_8 
REMARK    2  A    between atoms: C_11  and  O_12 
REMARK    3  A    between atoms: O_12  and  C_13 
REMARK    4  A    between atoms: C_13  and  C_14 
REMARK       I    between atoms: C_14  and  N_15 
REMARK    5  A    between atoms: N_15  and  N_16 
REMARK       I    between atoms: N_16  and  C_17 
REMARK    6  A    between atoms: C_17  and  C_18 
REMARK    7  A    between atoms: C_18  and  N_19 
REMARK       I    between atoms: N_19  and  C_20 
REMARK    8  A    between atoms: C_20  and  C_21 
ROOT
HETATM    1  C   UNL     1       4.915  33.335  64.534  1.00  0.00     0.023 A 
HETATM    2  C   UNL     1       5.664  33.870  65.585  1.00  0.00     0.044 A 
HETATM    3  C   UNL     1       5.005  34.483  66.702  1.00  0.00     0.099 C 
HETATM    4  N   UNL     1       4.472  34.979  67.605  1.00  0.00    -0.191 NA
HETATM    5  C   UNL     1       7.058  33.806  65.539  1.00  0.00     0.023 A 
HETATM    6  C   UNL     1       7.698  33.210  64.446  1.00  0.00     0.014 A 
HETATM    7  C   UNL     1       6.964  32.665  63.379  1.00  0.00    -0.026 A 
HETATM    8  C   UNL     1       5.561  32.738  63.445  1.00  0.00     0.014 A 
ENDROOT
BRANCH   7   9
HETATM    9  C   UNL     1       7.641  32.039  62.226  1.00  0.00    -0.026 A 
HETATM   10  C   UNL     1       7.361  32.436  60.910  1.00  0.00     0.015 A 
HETATM   11  C   UNL     1       8.003  31.837  59.820  1.00  0.00     0.037 A 
HETATM   12  C   UNL     1       8.950  30.831  60.016  1.00  0.00     0.069 A 
HETATM   13  C   UNL     1       9.239  30.421  61.317  1.00  0.00     0.037 A 
HETATM   14  C   UNL     1       8.590  31.019  62.406  1.00  0.00     0.015 A 
BRANCH  12  15
HETATM   15  O   UNL     1       9.502  30.325  58.871  1.00  0.00    -0.342 OA
BRANCH  15  16
HETATM   16  C   UNL     1       8.728  30.454  57.683  1.00  0.00     0.280 C 
BRANCH  16  17
HETATM   17  C   UNL     1       8.350  29.101  57.089  1.00  0.00     0.260 C 
HETATM   18  N   UNL     1       7.342  28.432  57.756  1.00  0.00    -0.266 N 
HETATM   19  H   UNL     1       7.084  28.731  58.699  1.00  0.00     0.190 HD
HETATM   20  O   UNL     1       8.925  28.632  56.106  1.00  0.00    -0.269 OA
BRANCH  18  21
HETATM   21  N   UNL     1       7.155  27.076  57.455  1.00  0.00    -0.266 N 
HETATM   22  C   UNL     1       5.944  26.686  56.919  1.00  0.00     0.253 C 
HETATM   23  O   UNL     1       5.139  27.480  56.430  1.00  0.00    -0.270 OA
HETATM   24  H   UNL     1       7.790  26.411  57.899  1.00  0.00     0.190 HD
BRANCH  22  25
HETATM   25  C   UNL     1       5.733  25.176  56.883  1.00  0.00     0.227 C 
BRANCH  25  26
HETATM   26  N   UNL     1       6.956  24.503  56.498  1.00  0.00    -0.352 N 
HETATM   27  C   UNL     1       7.142  24.085  55.198  1.00  0.00     0.222 C 
HETATM   28  O   UNL     1       6.305  24.291  54.325  1.00  0.00    -0.273 OA
HETATM   29  H   UNL     1       7.511  24.081  57.232  1.00  0.00     0.162 HD
BRANCH  27  30
HETATM   30  C   UNL     1       8.455  23.329  54.968  1.00  0.00     0.078 C 
HETATM   31  C   UNL     1       8.665  22.200  55.988  1.00  0.00     0.014 C 
HETATM   32  C   UNL     1       7.809  20.964  55.713  1.00  0.00     0.001 C 
HETATM   33  C   UNL     1       7.954  20.475  54.276  1.00  0.00     0.000 C 
HETATM   34  C   UNL     1       7.675  21.590  53.276  1.00  0.00     0.001 C 
HETATM   35  C   UNL     1       8.568  22.804  53.529  1.00  0.00     0.014 C 
ENDBRANCH  27  30
ENDBRANCH  25  26
ENDBRANCH  22  25
ENDBRANCH  18  21
ENDBRANCH  16  17
ENDBRANCH  15  16
ENDBRANCH  12  15
ENDBRANCH   7   9
TORSDOF 8
ENDMDL
MODEL 2
REMARK VINA RESULT:     -10.5      1.654      2.052
REMARK  8 active torsions:
REMARK  status: ('A' for Active; 'I' for Inactive)
REMARK    1  A    between atoms: C_7  and  C_8 
REMARK    2  A    between atoms: C_11  and  O_12 
REMARK    3  A    between atoms: O_12  and  C_13 
REMARK    4  A    between atoms: C_13  and  C_14 
REMARK       I    between atoms: C_14  and  N_15 
REMARK    5  A    between atoms: N_15  and  N_16 
REMARK       I    between atoms: N_16  and  C_17 
REMARK    6  A    between atoms: C_17  and  C_18 
REMARK    7  A    between atoms: C_18  and  N_19 
REMARK       I    between atoms: N_19  and  C_20 
REMARK    8  A    between atoms: C_20  and  C_21 
ROOT
HETATM    1  C   UNL     1       4.868  33.523  65.123  1.00  0.00     0.023 A 
HETATM    2  C   UNL     1       5.739  33.885  66.153  1.00  0.00     0.044 A 
HETATM    3  C   UNL     1       5.221  34.287  67.428  1.00  0.00     0.099 C 
HETATM    4  N   UNL     1       4.802  34.613  68.460  1.00  0.00    -0.191 NA
HETATM    5  C   UNL     1       7.117  33.855  65.931  1.00  0.00     0.023 A 
HETATM    6  C   UNL     1       7.619  33.464  64.684  1.00  0.00     0.014 A 
HETATM    7  C   UNL     1       6.761  33.095  63.634  1.00  0.00    -0.026 A 
HETATM    8  C   UNL     1       5.376  33.131  63.878  1.00  0.00     0.014 A 
ENDROOT
BRANCH   7   9
HETATM    9  C   UNL     1       7.293  32.687  62.319  1.00  0.00    -0.026 A 
HETATM   10  C   UNL     1       6.495  32.720  61.165  1.00  0.00     0.015 A 
HETATM   11  C   UNL     1       7.003  32.328  59.922  1.00  0.00     0.037 A 
HETATM   12  C   UNL     1       8.326  31.902  59.795  1.00  0.00     0.069 A 
HETATM   13  C   UNL     1       9.133  31.859  60.931  1.00  0.00     0.037 A 
HETATM   14  C   UNL     1       8.619  32.246  62.176  1.00  0.00     0.015 A 
BRANCH  12  15
HETATM   15  O   UNL     1       8.699  31.542  58.528  1.00  0.00    -0.342 OA
BRANCH  15  16
HETATM   16  C   UNL     1       9.682  30.518  58.424  1.00  0.00     0.280 C 
BRANCH  16  17
HETATM   17  C   UNL     1       9.812  29.985  56.999  1.00  0.00     0.260 C 
HETATM   18  N   UNL     1       8.614  29.762  56.349  1.00  0.00    -0.266 N 
HETATM   19  H   UNL     1       7.751  29.724  56.893  1.00  0.00     0.190 HD
HETATM   20  O   UNL     1      10.906  29.744  56.487  1.00  0.00    -0.269 OA
BRANCH  18  21
HETATM   21  N   UNL     1       8.649  29.001  55.173  1.00  0.00    -0.266 N 
HETATM   22  C   UNL     1       7.490  28.370  54.767  1.00  0.00     0.253 C 
HETATM   23  O   UNL     1       6.377  28.665  55.206  1.00  0.00    -0.270 OA
HETATM   24  H   UNL     1       9.569  28.713  54.834  1.00  0.00     0.190 HD
BRANCH  22  25
HETATM   25  C   UNL     1       7.688  27.354  53.647  1.00  0.00     0.227 C 
BRANCH  25  26
HETATM   26  N   UNL     1       7.318  26.028  54.095  1.00  0.00    -0.352 N 
HETATM   27  C   UNL     1       7.543  24.931  53.292  1.00  0.00     0.222 C 
HETATM   28  O   UNL     1       8.087  25.032  52.197  1.00  0.00    -0.273 OA
HETATM   29  H   UNL     1       6.633  25.959  54.838  1.00  0.00     0.162 HD
BRANCH  27  30
HETATM   30  C   UNL     1       7.032  23.612  53.880  1.00  0.00     0.078 C 
HETATM   31  C   UNL     1       7.646  22.387  53.185  1.00  0.00     0.014 C 
HETATM   32  C   UNL     1       9.090  22.110  53.602  1.00  0.00     0.001 C 
HETATM   33  C   UNL     1       9.246  22.049  55.117  1.00  0.00     0.000 C 
HETATM   34  C   UNL     1       8.694  23.302  55.786  1.00  0.00     0.001 C 
HETATM   35  C   UNL     1       7.236  23.546  55.401  1.00  0.00     0.014 C 
ENDBRANCH  27  30
ENDBRANCH  25  26
ENDBRANCH  22  25
ENDBRANCH  18  21
ENDBRANCH  16  17
ENDBRANCH  15  16
ENDBRANCH  12  15
ENDBRANCH   7   9
TORSDOF 8
ENDMDL
MODEL 3
REMARK VINA RESULT:      -9.9      2.740     12.209
REMARK  8 active torsions:
REMARK  status: ('A' for Active; 'I' for Inactive)
REMARK    1  A    between atoms: C_7  and  C_8 
REMARK    2  A    between atoms: C_11  and  O_12 
REMARK    3  A    between atoms: O_12  and  C_13 
REMARK    4  A    between atoms: C_13  and  C_14 
REMARK       I    between atoms: C_14  and  N_15 
REMARK    5  A    between atoms: N_15  and  N_16 
REMARK       I    between atoms: N_16  and  C_17 
REMARK    6  A    between atoms: C_17  and  C_18 
REMARK    7  A    between atoms: C_18  and  N_19 
REMARK       I    between atoms: N_19  and  C_20 
REMARK    8  A    between atoms: C_20  and  C_21 
ROOT
HETATM    1  C   UNL     1       7.471  23.143  53.138  1.00  0.00     0.023 A 
HETATM    2  C   UNL     1       8.161  22.107  53.772  1.00  0.00     0.044 A 
HETATM    3  C   UNL     1       8.351  20.852  53.105  1.00  0.00     0.099 C 
HETATM    4  N   UNL     1       8.505  19.837  52.565  1.00  0.00    -0.191 NA
HETATM    5  C   UNL     1       8.662  22.302  55.061  1.00  0.00     0.023 A 
HETATM    6  C   UNL     1       8.472  23.527  55.711  1.00  0.00     0.014 A 
HETATM    7  C   UNL     1       7.782  24.583  55.091  1.00  0.00    -0.026 A 
HETATM    8  C   UNL     1       7.287  24.367  53.792  1.00  0.00     0.014 A 
ENDROOT
BRANCH   7   9
HETATM    9  C   UNL     1       7.580  25.873  55.779  1.00  0.00    -0.026 A 
HETATM   10  C   UNL     1       7.095  26.998  55.096  1.00  0.00     0.015 A 
HETATM   11  C   UNL     1       6.910  28.220  55.752  1.00  0.00     0.037 A 
HETATM   12  C   UNL     1       7.194  28.349  57.112  1.00  0.00     0.069 A 
HETATM   13  C   UNL     1       7.680  27.242  57.808  1.00  0.00     0.037 A 
HETATM   14  C   UNL     1       7.870  26.021  57.146  1.00  0.00     0.015 A 
BRANCH  12  15
HETATM   15  O   UNL     1       6.974  29.594  57.634  1.00  0.00    -0.342 OA
BRANCH  15  16
HETATM   16  C   UNL     1       8.075  30.496  57.609  1.00  0.00     0.280 C 
BRANCH  16  17
HETATM   17  C   UNL     1       8.212  31.279  58.912  1.00  0.00     0.260 C 
HETATM   18  N   UNL     1       7.471  30.787  59.968  1.00  0.00    -0.266 N 
HETATM   19  H   UNL     1       6.719  30.120  59.782  1.00  0.00     0.190 HD
HETATM   20  O   UNL     1       8.910  32.290  58.999  1.00  0.00    -0.269 OA
BRANCH  18  21
HETATM   21  N   UNL     1       7.313  31.615  61.088  1.00  0.00    -0.266 N 
HETATM   22  C   UNL     1       8.040  31.324  62.225  1.00  0.00     0.253 C 
HETATM   23  O   UNL     1       9.016  30.572  62.223  1.00  0.00    -0.270 OA
HETATM   24  H   UNL     1       6.478  32.203  61.116  1.00  0.00     0.190 HD
BRANCH  22  25
HETATM   25  C   UNL     1       7.603  32.099  63.464  1.00  0.00     0.227 C 
BRANCH  25  26
HETATM   26  N   UNL     1       6.649  33.127  63.106  1.00  0.00    -0.352 N 
HETATM   27  C   UNL     1       5.306  32.954  63.363  1.00  0.00     0.222 C 
HETATM   28  O   UNL     1       4.879  31.950  63.924  1.00  0.00    -0.273 OA
HETATM   29  H   UNL     1       6.930  33.806  62.408  1.00  0.00     0.162 HD
BRANCH  27  30
HETATM   30  C   UNL     1       4.422  34.100  62.862  1.00  0.00     0.078 C 
HETATM   31  C   UNL     1       3.128  34.238  63.678  1.00  0.00     0.014 C 
HETATM   32  C   UNL     1       3.336  34.886  65.046  1.00  0.00     0.001 C 
HETATM   33  C   UNL     1       4.095  36.204  64.944  1.00  0.00     0.000 C 
HETATM   34  C   UNL     1       5.409  36.036  64.191  1.00  0.00     0.001 C 
HETATM   35  C   UNL     1       5.186  35.430  62.806  1.00  0.00     0.014 C 
ENDBRANCH  27  30
ENDBRANCH  25  26
ENDBRANCH  22  25
ENDBRANCH  18  21
ENDBRANCH  16  17
ENDBRANCH  15  16
ENDBRANCH  12  15
ENDBRANCH   7   9
TORSDOF 8
ENDMDL
MODEL 4
REMARK VINA RESULT:      -9.9      3.349     12.634
REMARK  8 active torsions:
REMARK  status: ('A' for Active; 'I' for Inactive)
REMARK    1  A    between atoms: C_7  and  C_8 
REMARK    2  A    between atoms: C_11  and  O_12 
REMARK    3  A    between atoms: O_12  and  C_13 
REMARK    4  A    between atoms: C_13  and  C_14 
REMARK       I    between atoms: C_14  and  N_15 
REMARK    5  A    between atoms: N_15  and  N_16 
REMARK       I    between atoms: N_16  and  C_17 
REMARK    6  A    between atoms: C_17  and  C_18 
REMARK    7  A    between atoms: C_18  and  N_19 
REMARK       I    between atoms: N_19  and  C_20 
REMARK    8  A    between atoms: C_20  and  C_21 
ROOT
HETATM    1  C   UNL     1       7.569  22.374  55.077  1.00  0.00     0.023 A 
HETATM    2  C   UNL     1       8.001  22.240  53.756  1.00  0.00     0.044 A 
HETATM    3  C   UNL     1       8.503  20.983  53.284  1.00  0.00     0.099 C 
HETATM    4  N   UNL     1       8.909  19.965  52.903  1.00  0.00    -0.191 NA
HETATM    5  C   UNL     1       7.941  23.340  52.898  1.00  0.00     0.023 A 
HETATM    6  C   UNL     1       7.453  24.567  53.363  1.00  0.00     0.014 A 
HETATM    7  C   UNL     1       7.013  24.723  54.688  1.00  0.00    -0.026 A 
HETATM    8  C   UNL     1       7.080  23.603  55.536  1.00  0.00     0.014 A 
ENDROOT
BRANCH   7   9
HETATM    9  C   UNL     1       6.502  26.019  55.177  1.00  0.00    -0.026 A 
HETATM   10  C   UNL     1       7.185  27.218  54.922  1.00  0.00     0.015 A 
HETATM   11  C   UNL     1       6.697  28.443  55.391  1.00  0.00     0.037 A 
HETATM   12  C   UNL     1       5.509  28.505  56.119  1.00  0.00     0.069 A 
HETATM   13  C   UNL     1       4.818  27.324  56.386  1.00  0.00     0.037 A 
HETATM   14  C   UNL     1       5.312  26.098  55.920  1.00  0.00     0.015 A 
BRANCH  12  15
HETATM   15  O   UNL     1       5.143  29.760  56.524  1.00  0.00    -0.342 OA
BRANCH  15  16
HETATM   16  C   UNL     1       3.758  29.966  56.778  1.00  0.00     0.280 C 
BRANCH  16  17
HETATM   17  C   UNL     1       3.518  31.041  57.836  1.00  0.00     0.260 C 
HETATM   18  N   UNL     1       3.528  30.588  59.140  1.00  0.00    -0.266 N 
HETATM   19  H   UNL     1       3.448  29.585  59.321  1.00  0.00     0.190 HD
HETATM   20  O   UNL     1       3.302  32.216  57.538  1.00  0.00    -0.269 OA
BRANCH  18  21
HETATM   21  N   UNL     1       3.023  31.445  60.127  1.00  0.00    -0.266 N 
HETATM   22  C   UNL     1       3.913  32.235  60.826  1.00  0.00     0.253 C 
HETATM   23  O   UNL     1       5.067  32.442  60.448  1.00  0.00    -0.270 OA
HETATM   24  H   UNL     1       2.085  31.246  60.478  1.00  0.00     0.190 HD
BRANCH  22  25
HETATM   25  C   UNL     1       3.315  32.920  62.050  1.00  0.00     0.227 C 
BRANCH  25  26
HETATM   26  N   UNL     1       4.283  33.812  62.654  1.00  0.00    -0.352 N 
HETATM   27  C   UNL     1       5.037  33.397  63.730  1.00  0.00     0.222 C 
HETATM   28  O   UNL     1       4.941  32.264  64.190  1.00  0.00    -0.273 OA
HETATM   29  H   UNL     1       4.176  34.805  62.485  1.00  0.00     0.162 HD
BRANCH  27  30
HETATM   30  C   UNL     1       5.963  34.479  64.297  1.00  0.00     0.078 C 
HETATM   31  C   UNL     1       5.299  35.863  64.318  1.00  0.00     0.014 C 
HETATM   32  C   UNL     1       4.277  36.032  65.442  1.00  0.00     0.001 C 
HETATM   33  C   UNL     1       4.852  35.650  66.800  1.00  0.00     0.000 C 
HETATM   34  C   UNL     1       5.446  34.247  66.782  1.00  0.00     0.001 C 
HETATM   35  C   UNL     1       6.500  34.101  65.686  1.00  0.00     0.014 C 
ENDBRANCH  27  30
ENDBRANCH  25  26
ENDBRANCH  22  25
ENDBRANCH  18  21
ENDBRANCH  16  17
ENDBRANCH  15  16
ENDBRANCH  12  15
ENDBRANCH   7   9
TORSDOF 8
ENDMDL
MODEL 5
REMARK VINA RESULT:      -9.5      2.993     11.962
REMARK  8 active torsions:
REMARK  status: ('A' for Active; 'I' for Inactive)
REMARK    1  A    between atoms: C_7  and  C_8 
REMARK    2  A    between atoms: C_11  and  O_12 
REMARK    3  A    between atoms: O_12  and  C_13 
REMARK    4  A    between atoms: C_13  and  C_14 
REMARK       I    between atoms: C_14  and  N_15 
REMARK    5  A    between atoms: N_15  and  N_16 
REMARK       I    between atoms: N_16  and  C_17 
REMARK    6  A    between atoms: C_17  and  C_18 
REMARK    7  A    between atoms: C_18  and  N_19 
REMARK       I    between atoms: N_19  and  C_20 
REMARK    8  A    between atoms: C_20  and  C_21 
ROOT
HETATM    1  C   UNL     1       7.901  23.430  52.909  1.00  0.00     0.023 A 
HETATM    2  C   UNL     1       7.955  22.350  53.792  1.00  0.00     0.044 A 
HETATM    3  C   UNL     1       8.182  21.023  53.297  1.00  0.00     0.099 C 
HETATM    4  N   UNL     1       8.366  19.950  52.897  1.00  0.00    -0.191 NA
HETATM    5  C   UNL     1       7.784  22.571  55.160  1.00  0.00     0.023 A 
HETATM    6  C   UNL     1       7.559  23.867  55.640  1.00  0.00     0.014 A 
HETATM    7  C   UNL     1       7.502  24.968  54.768  1.00  0.00    -0.026 A 
HETATM    8  C   UNL     1       7.678  24.724  53.395  1.00  0.00     0.014 A 
ENDROOT
BRANCH   7   9
HETATM    9  C   UNL     1       7.262  26.333  55.276  1.00  0.00    -0.026 A 
HETATM   10  C   UNL     1       6.729  27.336  54.453  1.00  0.00     0.015 A 
HETATM   11  C   UNL     1       6.508  28.630  54.938  1.00  0.00     0.037 A 
HETATM   12  C   UNL     1       6.803  28.954  56.263  1.00  0.00     0.069 A 
HETATM   13  C   UNL     1       7.337  27.972  57.095  1.00  0.00     0.037 A 
HETATM   14  C   UNL     1       7.564  26.678  56.604  1.00  0.00     0.015 A 
BRANCH  12  15
HETATM   15  O   UNL     1       6.545  30.252  56.612  1.00  0.00    -0.342 OA
BRANCH  15  16
HETATM   16  C   UNL     1       5.222  30.540  57.048  1.00  0.00     0.280 C 
BRANCH  16  17
HETATM   17  C   UNL     1       5.198  31.212  58.419  1.00  0.00     0.260 C 
HETATM   18  N   UNL     1       6.415  31.253  59.069  1.00  0.00    -0.266 N 
HETATM   19  H   UNL     1       7.175  30.652  58.745  1.00  0.00     0.190 HD
HETATM   20  O   UNL     1       4.160  31.654  58.914  1.00  0.00    -0.269 OA
BRANCH  18  21
HETATM   21  N   UNL     1       6.409  31.575  60.433  1.00  0.00    -0.266 N 
HETATM   22  C   UNL     1       7.615  31.605  61.104  1.00  0.00     0.253 C 
HETATM   23  O   UNL     1       8.703  31.650  60.527  1.00  0.00    -0.270 OA
HETATM   24  H   UNL     1       5.518  31.490  60.926  1.00  0.00     0.190 HD
BRANCH  22  25
HETATM   25  C   UNL     1       7.487  31.690  62.621  1.00  0.00     0.227 C 
BRANCH  25  26
HETATM   26  N   UNL     1       6.883  32.948  63.008  1.00  0.00    -0.352 N 
HETATM   27  C   UNL     1       5.622  32.976  63.561  1.00  0.00     0.222 C 
HETATM   28  O   UNL     1       4.985  31.949  63.774  1.00  0.00    -0.273 OA
HETATM   29  H   UNL     1       7.254  33.794  62.591  1.00  0.00     0.162 HD
BRANCH  27  30
HETATM   30  C   UNL     1       5.098  34.387  63.850  1.00  0.00     0.078 C 
HETATM   31  C   UNL     1       5.484  35.389  62.751  1.00  0.00     0.014 C 
HETATM   32  C   UNL     1       4.650  35.250  61.478  1.00  0.00     0.001 C 
HETATM   33  C   UNL     1       3.154  35.265  61.770  1.00  0.00     0.000 C 
HETATM   34  C   UNL     1       2.777  34.219  62.811  1.00  0.00     0.001 C 
HETATM   35  C   UNL     1       3.582  34.394  64.098  1.00  0.00     0.014 C 
ENDBRANCH  27  30
ENDBRANCH  25  26
ENDBRANCH  22  25
ENDBRANCH  18  21
ENDBRANCH  16  17
ENDBRANCH  15  16
ENDBRANCH  12  15
ENDBRANCH   7   9
TORSDOF 8
ENDMDL
MODEL 6
REMARK VINA RESULT:      -9.4      2.140      2.861
REMARK  8 active torsions:
REMARK  status: ('A' for Active; 'I' for Inactive)
REMARK    1  A    between atoms: C_7  and  C_8 
REMARK    2  A    between atoms: C_11  and  O_12 
REMARK    3  A    between atoms: O_12  and  C_13 
REMARK    4  A    between atoms: C_13  and  C_14 
REMARK       I    between atoms: C_14  and  N_15 
REMARK    5  A    between atoms: N_15  and  N_16 
REMARK       I    between atoms: N_16  and  C_17 
REMARK    6  A    between atoms: C_17  and  C_18 
REMARK    7  A    between atoms: C_18  and  N_19 
REMARK       I    between atoms: N_19  and  C_20 
REMARK    8  A    between atoms: C_20  and  C_21 
ROOT
HETATM    1  C   UNL     1       4.763  33.496  64.703  1.00  0.00     0.023 A 
HETATM    2  C   UNL     1       5.536  33.752  65.837  1.00  0.00     0.044 A 
HETATM    3  C   UNL     1       4.907  34.108  67.075  1.00  0.00     0.099 C 
HETATM    4  N   UNL     1       4.396  34.397  68.076  1.00  0.00    -0.191 NA
HETATM    5  C   UNL     1       6.927  33.660  65.756  1.00  0.00     0.023 A 
HETATM    6  C   UNL     1       7.539  33.314  64.546  1.00  0.00     0.014 A 
HETATM    7  C   UNL     1       6.780  33.052  63.392  1.00  0.00    -0.026 A 
HETATM    8  C   UNL     1       5.380  33.149  63.495  1.00  0.00     0.014 A 
ENDROOT
BRANCH   7   9
HETATM    9  C   UNL     1       7.427  32.691  62.116  1.00  0.00    -0.026 A 
HETATM   10  C   UNL     1       8.796  32.391  62.050  1.00  0.00     0.015 A 
HETATM   11  C   UNL     1       9.406  32.053  60.836  1.00  0.00     0.037 A 
HETATM   12  C   UNL     1       8.663  31.996  59.657  1.00  0.00     0.069 A 
HETATM   13  C   UNL     1       7.301  32.294  59.702  1.00  0.00     0.037 A 
HETATM   14  C   UNL     1       6.695  32.638  60.918  1.00  0.00     0.015 A 
BRANCH  12  15
HETATM   15  O   UNL     1       9.376  31.658  58.539  1.00  0.00    -0.342 OA
BRANCH  15  16
HETATM   16  C   UNL     1       9.755  30.292  58.417  1.00  0.00     0.280 C 
BRANCH  16  17
HETATM   17  C   UNL     1       8.633  29.429  57.845  1.00  0.00     0.260 C 
HETATM   18  N   UNL     1       7.924  30.007  56.810  1.00  0.00    -0.266 N 
HETATM   19  H   UNL     1       8.005  31.012  56.649  1.00  0.00     0.190 HD
HETATM   20  O   UNL     1       8.366  28.315  58.298  1.00  0.00    -0.269 OA
BRANCH  18  21
HETATM   21  N   UNL     1       6.709  29.409  56.446  1.00  0.00    -0.266 N 
HETATM   22  C   UNL     1       6.684  28.613  55.319  1.00  0.00     0.253 C 
HETATM   23  O   UNL     1       7.702  28.168  54.788  1.00  0.00    -0.270 OA
HETATM   24  H   UNL     1       5.858  29.808  56.846  1.00  0.00     0.190 HD
BRANCH  22  25
HETATM   25  C   UNL     1       5.282  28.236  54.850  1.00  0.00     0.227 C 
BRANCH  25  26
HETATM   26  N   UNL     1       5.317  27.003  54.091  1.00  0.00    -0.352 N 
HETATM   27  C   UNL     1       5.293  27.030  52.714  1.00  0.00     0.222 C 
HETATM   28  O   UNL     1       5.274  28.085  52.087  1.00  0.00    -0.273 OA
HETATM   29  H   UNL     1       5.049  26.151  54.569  1.00  0.00     0.162 HD
BRANCH  27  30
HETATM   30  C   UNL     1       5.264  25.644  52.062  1.00  0.00     0.078 C 
HETATM   31  C   UNL     1       6.520  25.368  51.222  1.00  0.00     0.014 C 
HETATM   32  C   UNL     1       7.755  25.039  52.061  1.00  0.00     0.001 C 
HETATM   33  C   UNL     1       7.482  23.929  53.069  1.00  0.00     0.000 C 
HETATM   34  C   UNL     1       6.274  24.250  53.941  1.00  0.00     0.001 C 
HETATM   35  C   UNL     1       5.033  24.531  53.095  1.00  0.00     0.014 C 
ENDBRANCH  27  30
ENDBRANCH  25  26
ENDBRANCH  22  25
ENDBRANCH  18  21
ENDBRANCH  16  17
ENDBRANCH  15  16
ENDBRANCH  12  15
ENDBRANCH   7   9
TORSDOF 8
ENDMDL
MODEL 7
REMARK VINA RESULT:      -9.3      2.129      2.741
REMARK  8 active torsions:
REMARK  status: ('A' for Active; 'I' for Inactive)
REMARK    1  A    between atoms: C_7  and  C_8 
REMARK    2  A    between atoms: C_11  and  O_12 
REMARK    3  A    between atoms: O_12  and  C_13 
REMARK    4  A    between atoms: C_13  and  C_14 
REMARK       I    between atoms: C_14  and  N_15 
REMARK    5  A    between atoms: N_15  and  N_16 
REMARK       I    between atoms: N_16  and  C_17 
REMARK    6  A    between atoms: C_17  and  C_18 
REMARK    7  A    between atoms: C_18  and  N_19 
REMARK       I    between atoms: N_19  and  C_20 
REMARK    8  A    between atoms: C_20  and  C_21 
ROOT
HETATM    1  C   UNL     1       4.493  34.209  66.202  1.00  0.00     0.023 A 
HETATM    2  C   UNL     1       5.706  34.225  66.895  1.00  0.00     0.044 A 
HETATM    3  C   UNL     1       5.743  34.608  68.276  1.00  0.00     0.099 C 
HETATM    4  N   UNL     1       5.773  34.919  69.394  1.00  0.00    -0.191 NA
HETATM    5  C   UNL     1       6.881  33.867  66.233  1.00  0.00     0.023 A 
HETATM    6  C   UNL     1       6.842  33.495  64.883  1.00  0.00     0.014 A 
HETATM    7  C   UNL     1       5.632  33.472  64.168  1.00  0.00    -0.026 A 
HETATM    8  C   UNL     1       4.460  33.835  64.854  1.00  0.00     0.014 A 
ENDROOT
BRANCH   7   9
HETATM    9  C   UNL     1       5.594  33.083  62.744  1.00  0.00    -0.026 A 
HETATM   10  C   UNL     1       4.378  32.898  62.069  1.00  0.00     0.015 A 
HETATM   11  C   UNL     1       4.347  32.525  60.721  1.00  0.00     0.037 A 
HETATM   12  C   UNL     1       5.531  32.337  60.007  1.00  0.00     0.069 A 
HETATM   13  C   UNL     1       6.749  32.512  60.661  1.00  0.00     0.037 A 
HETATM   14  C   UNL     1       6.777  32.880  62.014  1.00  0.00     0.015 A 
BRANCH  12  15
HETATM   15  O   UNL     1       5.365  31.970  58.699  1.00  0.00    -0.342 OA
BRANCH  15  16
HETATM   16  C   UNL     1       4.024  31.860  58.236  1.00  0.00     0.280 C 
BRANCH  16  17
HETATM   17  C   UNL     1       3.777  30.554  57.485  1.00  0.00     0.260 C 
HETATM   18  N   UNL     1       4.605  29.509  57.844  1.00  0.00    -0.266 N 
HETATM   19  H   UNL     1       5.454  29.706  58.375  1.00  0.00     0.190 HD
HETATM   20  O   UNL     1       2.921  30.457  56.603  1.00  0.00    -0.269 OA
BRANCH  18  21
HETATM   21  N   UNL     1       4.638  28.391  56.999  1.00  0.00    -0.266 N 
HETATM   22  C   UNL     1       5.707  28.255  56.136  1.00  0.00     0.253 C 
HETATM   23  O   UNL     1       6.757  28.888  56.262  1.00  0.00    -0.270 OA
HETATM   24  H   UNL     1       3.758  27.894  56.853  1.00  0.00     0.190 HD
BRANCH  22  25
HETATM   25  C   UNL     1       5.524  27.173  55.077  1.00  0.00     0.227 C 
BRANCH  25  26
HETATM   26  N   UNL     1       6.755  26.433  54.891  1.00  0.00    -0.352 N 
HETATM   27  C   UNL     1       6.722  25.099  54.550  1.00  0.00     0.222 C 
HETATM   28  O   UNL     1       5.665  24.504  54.362  1.00  0.00    -0.273 OA
HETATM   29  H   UNL     1       7.597  26.812  55.307  1.00  0.00     0.162 HD
BRANCH  27  30
HETATM   30  C   UNL     1       8.104  24.444  54.459  1.00  0.00     0.078 C 
HETATM   31  C   UNL     1       8.367  23.473  55.619  1.00  0.00     0.014 C 
HETATM   32  C   UNL     1       7.634  22.139  55.476  1.00  0.00     0.001 C 
HETATM   33  C   UNL     1       7.883  21.493  54.118  1.00  0.00     0.000 C 
HETATM   34  C   UNL     1       7.552  22.446  52.977  1.00  0.00     0.001 C 
HETATM   35  C   UNL     1       8.325  23.759  53.102  1.00  0.00     0.014 C 
ENDBRANCH  27  30
ENDBRANCH  25  26
ENDBRANCH  22  25
ENDBRANCH  18  21
ENDBRANCH  16  17
ENDBRANCH  15  16
ENDBRANCH  12  15
ENDBRANCH   7   9
TORSDOF 8
ENDMDL
MODEL 8
REMARK VINA RESULT:      -9.0      3.375     11.908
REMARK  8 active torsions:
REMARK  status: ('A' for Active; 'I' for Inactive)
REMARK    1  A    between atoms: C_7  and  C_8 
REMARK    2  A    between atoms: C_11  and  O_12 
REMARK    3  A    between atoms: O_12  and  C_13 
REMARK    4  A    between atoms: C_13  and  C_14 
REMARK       I    between atoms: C_14  and  N_15 
REMARK    5  A    between atoms: N_15  and  N_16 
REMARK       I    between atoms: N_16  and  C_17 
REMARK    6  A    between atoms: C_17  and  C_18 
REMARK    7  A    between atoms: C_18  and  N_19 
REMARK       I    between atoms: N_19  and  C_20 
REMARK    8  A    between atoms: C_20  and  C_21 
ROOT
HETATM    1  C   UNL     1       7.534  22.510  55.095  1.00  0.00     0.023 A 
HETATM    2  C   UNL     1       7.874  22.194  53.778  1.00  0.00     0.044 A 
HETATM    3  C   UNL     1       8.329  20.876  53.446  1.00  0.00     0.099 C 
HETATM    4  N   UNL     1       8.698  19.809  53.178  1.00  0.00    -0.191 NA
HETATM    5  C   UNL     1       7.771  23.173  52.787  1.00  0.00     0.023 A 
HETATM    6  C   UNL     1       7.329  24.460  53.115  1.00  0.00     0.014 A 
HETATM    7  C   UNL     1       6.980  24.798  54.434  1.00  0.00    -0.026 A 
HETATM    8  C   UNL     1       7.091  23.798  55.416  1.00  0.00     0.014 A 
ENDROOT
BRANCH   7   9
HETATM    9  C   UNL     1       6.518  26.158  54.777  1.00  0.00    -0.026 A 
HETATM   10  C   UNL     1       6.969  27.284  54.073  1.00  0.00     0.015 A 
HETATM   11  C   UNL     1       6.531  28.570  54.406  1.00  0.00     0.037 A 
HETATM   12  C   UNL     1       5.620  28.766  55.445  1.00  0.00     0.069 A 
HETATM   13  C   UNL     1       5.163  27.659  56.159  1.00  0.00     0.037 A 
HETATM   14  C   UNL     1       5.609  26.372  55.827  1.00  0.00     0.015 A 
BRANCH  12  15
HETATM   15  O   UNL     1       5.274  30.070  55.674  1.00  0.00    -0.342 OA
BRANCH  15  16
HETATM   16  C   UNL     1       5.881  30.700  56.796  1.00  0.00     0.280 C 
BRANCH  16  17
HETATM   17  C   UNL     1       4.851  31.226  57.791  1.00  0.00     0.260 C 
HETATM   18  N   UNL     1       4.977  32.564  58.109  1.00  0.00    -0.266 N 
HETATM   19  H   UNL     1       5.845  33.052  57.880  1.00  0.00     0.190 HD
HETATM   20  O   UNL     1       3.992  30.498  58.292  1.00  0.00    -0.269 OA
BRANCH  18  21
HETATM   21  N   UNL     1       4.269  33.034  59.224  1.00  0.00    -0.266 N 
HETATM   22  C   UNL     1       4.104  34.397  59.367  1.00  0.00     0.253 C 
HETATM   23  O   UNL     1       4.282  35.195  58.446  1.00  0.00    -0.270 OA
HETATM   24  H   UNL     1       4.163  32.390  60.010  1.00  0.00     0.190 HD
BRANCH  22  25
HETATM   25  C   UNL     1       3.572  34.823  60.732  1.00  0.00     0.227 C 
BRANCH  25  26
HETATM   26  N   UNL     1       3.924  33.845  61.740  1.00  0.00    -0.352 N 
HETATM   27  C   UNL     1       4.876  34.137  62.693  1.00  0.00     0.222 C 
HETATM   28  O   UNL     1       5.430  35.231  62.742  1.00  0.00    -0.273 OA
HETATM   29  H   UNL     1       3.703  32.875  61.550  1.00  0.00     0.162 HD
BRANCH  27  30
HETATM   30  C   UNL     1       5.186  32.975  63.642  1.00  0.00     0.078 C 
HETATM   31  C   UNL     1       5.549  31.686  62.888  1.00  0.00     0.014 C 
HETATM   32  C   UNL     1       6.963  31.698  62.308  1.00  0.00     0.001 C 
HETATM   33  C   UNL     1       8.008  32.065  63.354  1.00  0.00     0.000 C 
HETATM   34  C   UNL     1       7.669  33.381  64.045  1.00  0.00     0.001 C 
HETATM   35  C   UNL     1       6.272  33.344  64.663  1.00  0.00     0.014 C 
ENDBRANCH  27  30
ENDBRANCH  25  26
ENDBRANCH  22  25
ENDBRANCH  18  21
ENDBRANCH  16  17
ENDBRANCH  15  16
ENDBRANCH  12  15
ENDBRANCH   7   9
TORSDOF 8
ENDMDL
MODEL 9
REMARK VINA RESULT:      -9.0      2.042      2.462
REMARK  8 active torsions:
REMARK  status: ('A' for Active; 'I' for Inactive)
REMARK    1  A    between atoms: C_7  and  C_8 
REMARK    2  A    between atoms: C_11  and  O_12 
REMARK    3  A    between atoms: O_12  and  C_13 
REMARK    4  A    between atoms: C_13  and  C_14 
REMARK       I    between atoms: C_14  and  N_15 
REMARK    5  A    between atoms: N_15  and  N_16 
REMARK       I    between atoms: N_16  and  C_17 
REMARK    6  A    between atoms: C_17  and  C_18 
REMARK    7  A    between atoms: C_18  and  N_19 
REMARK       I    between atoms: N_19  and  C_20 
REMARK    8  A    between atoms: C_20  and  C_21 
ROOT
HETATM    1  C   UNL     1       6.654  34.054  63.884  1.00  0.00     0.023 A 
HETATM    2  C   UNL     1       5.607  34.934  63.598  1.00  0.00     0.044 A 
HETATM    3  C   UNL     1       5.151  35.861  64.592  1.00  0.00     0.099 C 
HETATM    4  N   UNL     1       4.782  36.611  65.397  1.00  0.00    -0.191 NA
HETATM    5  C   UNL     1       5.007  34.902  62.338  1.00  0.00     0.023 A 
HETATM    6  C   UNL     1       5.453  33.994  61.370  1.00  0.00     0.014 A 
HETATM    7  C   UNL     1       6.505  33.101  61.637  1.00  0.00    -0.026 A 
HETATM    8  C   UNL     1       7.097  33.150  62.912  1.00  0.00     0.014 A 
ENDROOT
BRANCH   7   9
HETATM    9  C   UNL     1       6.971  32.141  60.617  1.00  0.00    -0.026 A 
HETATM   10  C   UNL     1       6.318  32.013  59.382  1.00  0.00     0.015 A 
HETATM   11  C   UNL     1       6.762  31.099  58.419  1.00  0.00     0.037 A 
HETATM   12  C   UNL     1       7.877  30.295  58.660  1.00  0.00     0.069 A 
HETATM   13  C   UNL     1       8.537  30.406  59.883  1.00  0.00     0.037 A 
HETATM   14  C   UNL     1       8.086  31.318  60.848  1.00  0.00     0.015 A 
BRANCH  12  15
HETATM   15  O   UNL     1       8.205  29.441  57.643  1.00  0.00    -0.342 OA
BRANCH  15  16
HETATM   16  C   UNL     1       7.331  28.339  57.433  1.00  0.00     0.280 C 
BRANCH  16  17
HETATM   17  C   UNL     1       7.757  27.480  56.245  1.00  0.00     0.260 C 
HETATM   18  N   UNL     1       7.749  28.128  55.025  1.00  0.00    -0.266 N 
HETATM   19  H   UNL     1       7.252  29.015  54.934  1.00  0.00     0.190 HD
HETATM   20  O   UNL     1       8.055  26.291  56.368  1.00  0.00    -0.269 OA
BRANCH  18  21
HETATM   21  N   UNL     1       7.834  27.336  53.872  1.00  0.00    -0.266 N 
HETATM   22  C   UNL     1       6.662  26.874  53.308  1.00  0.00     0.253 C 
HETATM   23  O   UNL     1       5.556  27.343  53.580  1.00  0.00    -0.270 OA
HETATM   24  H   UNL     1       8.738  26.904  53.671  1.00  0.00     0.190 HD
BRANCH  22  25
HETATM   25  C   UNL     1       6.860  25.807  52.236  1.00  0.00     0.227 C 
BRANCH  25  26
HETATM   26  N   UNL     1       7.892  24.874  52.636  1.00  0.00    -0.352 N 
HETATM   27  C   UNL     1       7.587  23.802  53.446  1.00  0.00     0.222 C 
HETATM   28  O   UNL     1       6.441  23.583  53.826  1.00  0.00    -0.273 OA
HETATM   29  H   UNL     1       8.854  25.184  52.576  1.00  0.00     0.162 HD
BRANCH  27  30
HETATM   30  C   UNL     1       8.799  22.949  53.836  1.00  0.00     0.078 C 
HETATM   31  C   UNL     1       8.991  22.870  55.358  1.00  0.00     0.014 C 
HETATM   32  C   UNL     1       8.003  21.929  56.048  1.00  0.00     0.001 C 
HETATM   33  C   UNL     1       7.977  20.551  55.399  1.00  0.00     0.000 C 
HETATM   34  C   UNL     1       7.717  20.643  53.900  1.00  0.00     0.001 C 
HETATM   35  C   UNL     1       8.738  21.548  53.211  1.00  0.00     0.014 C 
ENDBRANCH  27  30
ENDBRANCH  25  26
ENDBRANCH  22  25
ENDBRANCH  18  21
ENDBRANCH  16  17
ENDBRANCH  15  16
ENDBRANCH  12  15
ENDBRANCH   7   9
TORSDOF 8
ENDMDL
MODEL 10
REMARK VINA RESULT:      -8.5      4.154     13.009
REMARK  8 active torsions:
REMARK  status: ('A' for Active; 'I' for Inactive)
REMARK    1  A    between atoms: C_7  and  C_8 
REMARK    2  A    between atoms: C_11  and  O_12 
REMARK    3  A    between atoms: O_12  and  C_13 
REMARK    4  A    between atoms: C_13  and  C_14 
REMARK       I    between atoms: C_14  and  N_15 
REMARK    5  A    between atoms: N_15  and  N_16 
REMARK       I    between atoms: N_16  and  C_17 
REMARK    6  A    between atoms: C_17  and  C_18 
REMARK    7  A    between atoms: C_18  and  N_19 
REMARK       I    between atoms: N_19  and  C_20 
REMARK    8  A    between atoms: C_20  and  C_21 
ROOT
HETATM    1  C   UNL     1       7.903  22.626  55.247  1.00  0.00     0.023 A 
HETATM    2  C   UNL     1       8.007  22.463  53.863  1.00  0.00     0.044 A 
HETATM    3  C   UNL     1       8.179  21.156  53.301  1.00  0.00     0.099 C 
HETATM    4  N   UNL     1       8.319  20.098  52.846  1.00  0.00    -0.191 NA
HETATM    5  C   UNL     1       7.943  23.584  53.033  1.00  0.00     0.023 A 
HETATM    6  C   UNL     1       7.777  24.860  53.585  1.00  0.00     0.014 A 
HETATM    7  C   UNL     1       7.670  25.045  54.974  1.00  0.00    -0.026 A 
HETATM    8  C   UNL     1       7.734  23.903  55.793  1.00  0.00     0.014 A 
ENDROOT
BRANCH   7   9
HETATM    9  C   UNL     1       7.498  26.391  55.555  1.00  0.00    -0.026 A 
HETATM   10  C   UNL     1       7.569  27.545  54.760  1.00  0.00     0.015 A 
HETATM   11  C   UNL     1       7.409  28.819  55.316  1.00  0.00     0.037 A 
HETATM   12  C   UNL     1       7.164  28.975  56.681  1.00  0.00     0.069 A 
HETATM   13  C   UNL     1       7.094  27.840  57.488  1.00  0.00     0.037 A 
HETATM   14  C   UNL     1       7.261  26.566  56.929  1.00  0.00     0.015 A 
BRANCH  12  15
HETATM   15  O   UNL     1       7.032  30.271  57.101  1.00  0.00    -0.342 OA
BRANCH  15  16
HETATM   16  C   UNL     1       5.943  30.546  57.975  1.00  0.00     0.280 C 
BRANCH  16  17
HETATM   17  C   UNL     1       6.281  31.629  58.996  1.00  0.00     0.260 C 
HETATM   18  N   UNL     1       5.300  31.868  59.939  1.00  0.00    -0.266 N 
HETATM   19  H   UNL     1       4.355  31.518  59.775  1.00  0.00     0.190 HD
HETATM   20  O   UNL     1       7.339  32.259  58.958  1.00  0.00    -0.269 OA
BRANCH  18  21
HETATM   21  N   UNL     1       5.412  33.035  60.706  1.00  0.00    -0.266 N 
HETATM   22  C   UNL     1       5.633  32.907  62.063  1.00  0.00     0.253 C 
HETATM   23  O   UNL     1       6.020  31.860  62.584  1.00  0.00    -0.270 OA
HETATM   24  H   UNL     1       5.046  33.896  60.297  1.00  0.00     0.190 HD
BRANCH  22  25
HETATM   25  C   UNL     1       5.466  34.203  62.850  1.00  0.00     0.227 C 
BRANCH  25  26
HETATM   26  N   UNL     1       5.777  35.345  62.015  1.00  0.00    -0.352 N 
HETATM   27  C   UNL     1       5.743  36.620  62.536  1.00  0.00     0.222 C 
HETATM   28  O   UNL     1       5.485  36.831  63.717  1.00  0.00    -0.273 OA
HETATM   29  H   UNL     1       5.710  35.225  61.011  1.00  0.00     0.162 HD
BRANCH  27  30
HETATM   30  C   UNL     1       6.027  37.722  61.510  1.00  0.00     0.078 C 
HETATM   31  C   UNL     1       4.766  38.139  60.739  1.00  0.00     0.014 C 
HETATM   32  C   UNL     1       3.820  39.024  61.551  1.00  0.00     0.001 C 
HETATM   33  C   UNL     1       4.540  40.219  62.165  1.00  0.00     0.000 C 
HETATM   34  C   UNL     1       5.749  39.783  62.983  1.00  0.00     0.001 C 
HETATM   35  C   UNL     1       6.713  38.938  62.150  1.00  0.00     0.014 C 
ENDBRANCH  27  30
ENDBRANCH  25  26
ENDBRANCH  22  25
ENDBRANCH  18  21
ENDBRANCH  16  17
ENDBRANCH  15  16
ENDBRANCH  12  15
ENDBRANCH   7   9
TORSDOF 8
ENDMDL
