MODEL 1
REMARK VINA RESULT:     -11.5      0.000      0.000
REMARK  6 active torsions:
REMARK  status: ('A' for Active; 'I' for Inactive)
REMARK    1  A    between atoms: C_2  and  N_3 
REMARK    2  A    between atoms: C_2  and  C_32 
REMARK       I    between atoms: N_3  and  C_4 
REMARK    3  A    between atoms: C_4  and  C_5 
REMARK    4  A    between atoms: C_6  and  N_7 
REMARK       I    between atoms: N_7  and  C_8 
REMARK    5  A    between atoms: C_8  and  C_9 
REMARK    6  A    between atoms: C_9  and  N_10 
ROOT
HETATM    1  N   UNL     1       4.805  29.220  57.514  1.00  0.00    -0.325 N 
HETATM    2  C   UNL     1       4.697  28.168  56.628  1.00  0.00     0.240 C 
HETATM    3  O   UNL     1       4.597  28.291  55.407  1.00  0.00    -0.271 OA
HETATM    4  H   UNL     1       5.205  29.033  58.436  1.00  0.00     0.169 HD
ENDROOT
BRANCH   1   5
HETATM    5  C   UNL     1       4.444  30.570  57.269  1.00  0.00     0.050 A 
HETATM    6  C   UNL     1       5.202  31.620  57.826  1.00  0.00     0.058 A 
HETATM    7  C   UNL     1       4.790  32.956  57.664  1.00  0.00     0.019 A 
HETATM    8  C   UNL     1       3.651  33.258  56.920  1.00  0.00     0.001 A 
HETATM    9  C   UNL     1       2.915  32.230  56.344  1.00  0.00     0.002 A 
HETATM   10  C   UNL     1       3.303  30.899  56.522  1.00  0.00     0.030 A 
BRANCH   6  11
HETATM   11  C   UNL     1       6.459  31.334  58.577  1.00  0.00     0.254 C 
HETATM   12  N   UNL     1       6.681  32.130  59.678  1.00  0.00    -0.349 N 
HETATM   13  H   UNL     1       6.029  32.867  59.904  1.00  0.00     0.163 HD
HETATM   14  O   UNL     1       7.231  30.467  58.180  1.00  0.00    -0.268 OA
BRANCH  12  15
HETATM   15  C   UNL     1       7.753  31.897  60.632  1.00  0.00     0.114 C 
HETATM   16  C   UNL     1       9.093  32.322  60.029  1.00  0.00     0.037 C 
BRANCH  15  17
HETATM   17  C   UNL     1       7.396  32.608  61.927  1.00  0.00    -0.036 A 
HETATM   18  C   UNL     1       6.446  33.643  61.894  1.00  0.00     0.009 A 
HETATM   19  C   UNL     1       6.124  34.360  63.047  1.00  0.00     0.001 A 
HETATM   20  C   UNL     1       6.757  34.061  64.252  1.00  0.00     0.000 A 
HETATM   21  C   UNL     1       7.712  33.049  64.301  1.00  0.00     0.001 A 
HETATM   22  C   UNL     1       8.035  32.330  63.146  1.00  0.00     0.009 A 
ENDBRANCH  15  17
ENDBRANCH  12  15
ENDBRANCH   6  11
ENDBRANCH   1   5
BRANCH   2  23
HETATM   23  C   UNL     1       4.896  26.781  57.236  1.00  0.00     0.240 C 
BRANCH  23  24
HETATM   24  N   UNL     1       6.149  26.142  56.892  1.00  0.00    -0.259 N 
HETATM   25  C   UNL     1       7.355  26.638  57.274  1.00  0.00     0.326 C 
HETATM   26  O   UNL     1       7.574  27.509  58.098  1.00  0.00    -0.247 OA
HETATM   27  N   UNL     1       8.333  26.055  56.505  1.00  0.00    -0.324 N 
HETATM   28  C   UNL     1       7.808  25.056  55.589  1.00  0.00     0.120 C 
HETATM   29  H   UNL     1       9.310  26.272  56.654  1.00  0.00     0.165 HD
HETATM   30  C   UNL     1       8.135  23.654  56.117  1.00  0.00     0.080 C 
HETATM   31  C   UNL     1       8.299  25.282  54.163  1.00  0.00     0.046 C 
HETATM   32  C   UNL     1       6.310  25.383  55.762  1.00  0.00     0.257 C 
HETATM   33  C   UNL     1       8.026  22.551  55.096  1.00  0.00    -0.049 A 
HETATM   34  C   UNL     1       7.890  22.815  53.723  1.00  0.00    -0.052 A 
HETATM   35  C   UNL     1       8.110  21.220  55.537  1.00  0.00     0.007 A 
HETATM   36  C   UNL     1       7.778  24.222  53.194  1.00  0.00     0.042 C 
HETATM   37  C   UNL     1       7.794  21.742  52.824  1.00  0.00     0.007 A 
HETATM   38  C   UNL     1       7.868  20.424  53.277  1.00  0.00     0.001 A 
HETATM   39  C   UNL     1       8.032  20.163  54.633  1.00  0.00     0.001 A 
HETATM   40  O   UNL     1       5.404  25.016  55.027  1.00  0.00    -0.270 OA
ENDBRANCH  23  24
ENDBRANCH   2  23
TORSDOF 6
ENDMDL
MODEL 2
REMARK VINA RESULT:     -11.3      4.869      8.296
REMARK  6 active torsions:
REMARK  status: ('A' for Active; 'I' for Inactive)
REMARK    1  A    between atoms: C_2  and  N_3 
REMARK    2  A    between atoms: C_2  and  C_32 
REMARK       I    between atoms: N_3  and  C_4 
REMARK    3  A    between atoms: C_4  and  C_5 
REMARK    4  A    between atoms: C_6  and  N_7 
REMARK       I    between atoms: N_7  and  C_8 
REMARK    5  A    between atoms: C_8  and  C_9 
REMARK    6  A    between atoms: C_9  and  N_10 
ROOT
HETATM    1  N   UNL     1       4.401  29.855  53.936  1.00  0.00    -0.325 N 
HETATM    2  C   UNL     1       3.883  28.585  54.082  1.00  0.00     0.240 C 
HETATM    3  O   UNL     1       3.178  28.018  53.245  1.00  0.00    -0.271 OA
HETATM    4  H   UNL     1       5.215  30.109  54.500  1.00  0.00     0.169 HD
ENDROOT
BRANCH   1   5
HETATM    5  C   UNL     1       3.939  30.858  53.046  1.00  0.00     0.050 A 
HETATM    6  C   UNL     1       4.241  30.780  51.671  1.00  0.00     0.058 A 
HETATM    7  C   UNL     1       3.867  31.822  50.803  1.00  0.00     0.019 A 
HETATM    8  C   UNL     1       3.161  32.923  51.284  1.00  0.00     0.001 A 
HETATM    9  C   UNL     1       2.834  32.992  52.633  1.00  0.00     0.002 A 
HETATM   10  C   UNL     1       3.225  31.974  53.506  1.00  0.00     0.030 A 
BRANCH   6  11
HETATM   11  C   UNL     1       4.943  29.588  51.113  1.00  0.00     0.254 C 
HETATM   12  N   UNL     1       4.136  28.676  50.472  1.00  0.00    -0.349 N 
HETATM   13  H   UNL     1       3.138  28.826  50.437  1.00  0.00     0.163 HD
HETATM   14  O   UNL     1       6.153  29.454  51.273  1.00  0.00    -0.268 OA
BRANCH  12  15
HETATM   15  C   UNL     1       4.649  27.544  49.717  1.00  0.00     0.114 C 
HETATM   16  C   UNL     1       5.046  26.414  50.670  1.00  0.00     0.037 C 
BRANCH  15  17
HETATM   17  C   UNL     1       3.605  27.152  48.685  1.00  0.00    -0.036 A 
HETATM   18  C   UNL     1       2.386  27.851  48.652  1.00  0.00     0.009 A 
HETATM   19  C   UNL     1       1.377  27.494  47.757  1.00  0.00     0.001 A 
HETATM   20  C   UNL     1       1.565  26.423  46.887  1.00  0.00     0.000 A 
HETATM   21  C   UNL     1       2.761  25.709  46.914  1.00  0.00     0.001 A 
HETATM   22  C   UNL     1       3.773  26.066  47.810  1.00  0.00     0.009 A 
ENDBRANCH  15  17
ENDBRANCH  12  15
ENDBRANCH   6  11
ENDBRANCH   1   5
BRANCH   2  23
HETATM   23  C   UNL     1       4.388  27.809  55.297  1.00  0.00     0.240 C 
BRANCH  23  24
HETATM   24  N   UNL     1       5.697  27.213  55.135  1.00  0.00    -0.259 N 
HETATM   25  C   UNL     1       6.845  27.939  55.179  1.00  0.00     0.326 C 
HETATM   26  O   UNL     1       6.984  29.089  55.560  1.00  0.00    -0.247 OA
HETATM   27  N   UNL     1       7.859  27.192  54.630  1.00  0.00    -0.324 N 
HETATM   28  C   UNL     1       7.429  25.858  54.244  1.00  0.00     0.120 C 
HETATM   29  H   UNL     1       8.806  27.547  54.595  1.00  0.00     0.165 HD
HETATM   30  C   UNL     1       7.949  24.836  55.263  1.00  0.00     0.080 C 
HETATM   31  C   UNL     1       7.835  25.526  52.812  1.00  0.00     0.046 C 
HETATM   32  C   UNL     1       5.910  26.077  54.398  1.00  0.00     0.257 C 
HETATM   33  C   UNL     1       7.941  23.406  54.788  1.00  0.00    -0.049 A 
HETATM   34  C   UNL     1       7.722  23.069  53.442  1.00  0.00    -0.052 A 
HETATM   35  C   UNL     1       8.208  22.390  55.720  1.00  0.00     0.007 A 
HETATM   36  C   UNL     1       7.415  24.115  52.402  1.00  0.00     0.042 C 
HETATM   37  C   UNL     1       7.728  21.717  53.065  1.00  0.00     0.007 A 
HETATM   38  C   UNL     1       7.983  20.716  54.003  1.00  0.00     0.001 A 
HETATM   39  C   UNL     1       8.229  21.053  55.330  1.00  0.00     0.001 A 
HETATM   40  O   UNL     1       5.030  25.352  53.954  1.00  0.00    -0.270 OA
ENDBRANCH  23  24
ENDBRANCH   2  23
TORSDOF 6
ENDMDL
MODEL 3
REMARK VINA RESULT:     -11.1      1.956      2.646
REMARK  6 active torsions:
REMARK  status: ('A' for Active; 'I' for Inactive)
REMARK    1  A    between atoms: C_2  and  N_3 
REMARK    2  A    between atoms: C_2  and  C_32 
REMARK       I    between atoms: N_3  and  C_4 
REMARK    3  A    between atoms: C_4  and  C_5 
REMARK    4  A    between atoms: C_6  and  N_7 
REMARK       I    between atoms: N_7  and  C_8 
REMARK    5  A    between atoms: C_8  and  C_9 
REMARK    6  A    between atoms: C_9  and  N_10 
ROOT
HETATM    1  N   UNL     1       4.365  29.045  54.934  1.00  0.00    -0.325 N 
HETATM    2  C   UNL     1       4.142  28.694  53.618  1.00  0.00     0.240 C 
HETATM    3  O   UNL     1       3.955  29.497  52.703  1.00  0.00    -0.271 OA
HETATM    4  H   UNL     1       4.824  28.364  55.541  1.00  0.00     0.169 HD
ENDROOT
BRANCH   1   5
HETATM    5  C   UNL     1       4.047  30.288  55.541  1.00  0.00     0.050 A 
HETATM    6  C   UNL     1       4.654  30.657  56.758  1.00  0.00     0.058 A 
HETATM    7  C   UNL     1       4.270  31.844  57.410  1.00  0.00     0.019 A 
HETATM    8  C   UNL     1       3.315  32.684  56.842  1.00  0.00     0.001 A 
HETATM    9  C   UNL     1       2.734  32.341  55.627  1.00  0.00     0.002 A 
HETATM   10  C   UNL     1       3.092  31.151  54.986  1.00  0.00     0.030 A 
BRANCH   6  11
HETATM   11  C   UNL     1       5.722  29.810  57.364  1.00  0.00     0.254 C 
HETATM   12  N   UNL     1       6.840  30.489  57.794  1.00  0.00    -0.349 N 
HETATM   13  H   UNL     1       6.904  31.488  57.657  1.00  0.00     0.163 HD
HETATM   14  O   UNL     1       5.586  28.592  57.419  1.00  0.00    -0.268 OA
BRANCH  12  15
HETATM   15  C   UNL     1       7.907  29.870  58.562  1.00  0.00     0.114 C 
HETATM   16  C   UNL     1       9.156  29.712  57.692  1.00  0.00     0.037 C 
BRANCH  15  17
HETATM   17  C   UNL     1       8.123  30.693  59.821  1.00  0.00    -0.036 A 
HETATM   18  C   UNL     1       7.226  31.735  60.114  1.00  0.00     0.009 A 
HETATM   19  C   UNL     1       7.413  32.551  61.230  1.00  0.00     0.001 A 
HETATM   20  C   UNL     1       8.507  32.347  62.067  1.00  0.00     0.000 A 
HETATM   21  C   UNL     1       9.415  31.329  61.786  1.00  0.00     0.001 A 
HETATM   22  C   UNL     1       9.229  30.510  60.668  1.00  0.00     0.009 A 
ENDBRANCH  15  17
ENDBRANCH  12  15
ENDBRANCH   6  11
ENDBRANCH   1   5
BRANCH   2  23
HETATM   23  C   UNL     1       4.323  27.211  53.299  1.00  0.00     0.240 C 
BRANCH  23  24
HETATM   24  N   UNL     1       5.649  26.692  53.559  1.00  0.00    -0.259 N 
HETATM   25  C   UNL     1       6.778  27.414  53.333  1.00  0.00     0.326 C 
HETATM   26  O   UNL     1       6.864  28.609  53.108  1.00  0.00    -0.247 OA
HETATM   27  N   UNL     1       7.851  26.556  53.309  1.00  0.00    -0.324 N 
HETATM   28  C   UNL     1       7.478  25.181  53.596  1.00  0.00     0.120 C 
HETATM   29  H   UNL     1       8.792  26.904  53.181  1.00  0.00     0.165 HD
HETATM   30  C   UNL     1       7.905  24.822  55.025  1.00  0.00     0.080 C 
HETATM   31  C   UNL     1       8.029  24.216  52.553  1.00  0.00     0.046 C 
HETATM   32  C   UNL     1       5.948  25.356  53.498  1.00  0.00     0.257 C 
HETATM   33  C   UNL     1       7.962  23.344  55.317  1.00  0.00    -0.049 A 
HETATM   34  C   UNL     1       7.883  22.379  54.300  1.00  0.00    -0.052 A 
HETATM   35  C   UNL     1       8.146  22.932  56.647  1.00  0.00     0.007 A 
HETATM   36  C   UNL     1       7.670  22.762  52.858  1.00  0.00     0.042 C 
HETATM   37  C   UNL     1       7.943  21.019  54.640  1.00  0.00     0.007 A 
HETATM   38  C   UNL     1       8.115  20.622  55.966  1.00  0.00     0.001 A 
HETATM   39  C   UNL     1       8.222  21.579  56.970  1.00  0.00     0.001 A 
HETATM   40  O   UNL     1       5.127  24.455  53.399  1.00  0.00    -0.270 OA
ENDBRANCH  23  24
ENDBRANCH   2  23
TORSDOF 6
ENDMDL
MODEL 4
REMARK VINA RESULT:     -11.0      2.136      4.159
REMARK  6 active torsions:
REMARK  status: ('A' for Active; 'I' for Inactive)
REMARK    1  A    between atoms: C_2  and  N_3 
REMARK    2  A    between atoms: C_2  and  C_32 
REMARK       I    between atoms: N_3  and  C_4 
REMARK    3  A    between atoms: C_4  and  C_5 
REMARK    4  A    between atoms: C_6  and  N_7 
REMARK       I    between atoms: N_7  and  C_8 
REMARK    5  A    between atoms: C_8  and  C_9 
REMARK    6  A    between atoms: C_9  and  N_10 
ROOT
HETATM    1  N   UNL     1       7.002  30.364  58.490  1.00  0.00    -0.325 N 
HETATM    2  C   UNL     1       7.587  30.105  57.267  1.00  0.00     0.240 C 
HETATM    3  O   UNL     1       8.791  29.909  57.096  1.00  0.00    -0.271 OA
HETATM    4  H   UNL     1       6.001  30.189  58.590  1.00  0.00     0.169 HD
ENDROOT
BRANCH   1   5
HETATM    5  C   UNL     1       7.660  30.826  59.659  1.00  0.00     0.050 A 
HETATM    6  C   UNL     1       7.275  32.044  60.254  1.00  0.00     0.058 A 
HETATM    7  C   UNL     1       7.990  32.551  61.356  1.00  0.00     0.019 A 
HETATM    8  C   UNL     1       9.059  31.837  61.894  1.00  0.00     0.001 A 
HETATM    9  C   UNL     1       9.425  30.622  61.329  1.00  0.00     0.002 A 
HETATM   10  C   UNL     1       8.737  30.124  60.219  1.00  0.00     0.030 A 
BRANCH   6  11
HETATM   11  C   UNL     1       6.099  32.804  59.741  1.00  0.00     0.254 C 
HETATM   12  N   UNL     1       5.229  33.265  60.704  1.00  0.00    -0.349 N 
HETATM   13  H   UNL     1       5.398  33.049  61.677  1.00  0.00     0.163 HD
HETATM   14  O   UNL     1       5.938  32.949  58.534  1.00  0.00    -0.268 OA
BRANCH  12  15
HETATM   15  C   UNL     1       4.125  34.165  60.421  1.00  0.00     0.114 C 
HETATM   16  C   UNL     1       2.793  33.426  60.567  1.00  0.00     0.037 C 
BRANCH  15  17
HETATM   17  C   UNL     1       4.265  35.383  61.320  1.00  0.00    -0.036 A 
HETATM   18  C   UNL     1       5.309  35.415  62.261  1.00  0.00     0.009 A 
HETATM   19  C   UNL     1       5.447  36.488  63.143  1.00  0.00     0.001 A 
HETATM   20  C   UNL     1       4.537  37.541  63.107  1.00  0.00     0.000 A 
HETATM   21  C   UNL     1       3.488  37.520  62.191  1.00  0.00     0.001 A 
HETATM   22  C   UNL     1       3.348  36.447  61.306  1.00  0.00     0.009 A 
ENDBRANCH  15  17
ENDBRANCH  12  15
ENDBRANCH   6  11
ENDBRANCH   1   5
BRANCH   2  23
HETATM   23  C   UNL     1       6.613  29.886  56.111  1.00  0.00     0.240 C 
BRANCH  23  24
HETATM   24  N   UNL     1       6.057  28.552  56.031  1.00  0.00    -0.259 N 
HETATM   25  C   UNL     1       4.793  28.257  56.435  1.00  0.00     0.326 C 
HETATM   26  O   UNL     1       3.896  29.038  56.700  1.00  0.00    -0.247 OA
HETATM   27  N   UNL     1       4.688  26.896  56.591  1.00  0.00    -0.324 N 
HETATM   28  C   UNL     1       5.903  26.191  56.219  1.00  0.00     0.120 C 
HETATM   29  H   UNL     1       3.811  26.470  56.862  1.00  0.00     0.165 HD
HETATM   30  C   UNL     1       5.706  25.512  54.857  1.00  0.00     0.080 C 
HETATM   31  C   UNL     1       6.350  25.220  57.306  1.00  0.00     0.046 C 
HETATM   32  C   UNL     1       6.828  27.420  56.101  1.00  0.00     0.257 C 
HETATM   33  C   UNL     1       6.703  24.428  54.539  1.00  0.00    -0.049 A 
HETATM   34  C   UNL     1       7.574  23.908  55.510  1.00  0.00    -0.052 A 
HETATM   35  C   UNL     1       6.721  23.896  53.240  1.00  0.00     0.007 A 
HETATM   36  C   UNL     1       7.611  24.450  56.916  1.00  0.00     0.042 C 
HETATM   37  C   UNL     1       8.479  22.898  55.148  1.00  0.00     0.007 A 
HETATM   38  C   UNL     1       8.495  22.386  53.851  1.00  0.00     0.001 A 
HETATM   39  C   UNL     1       7.611  22.881  52.897  1.00  0.00     0.001 A 
HETATM   40  O   UNL     1       8.050  27.399  56.059  1.00  0.00    -0.270 OA
ENDBRANCH  23  24
ENDBRANCH   2  23
TORSDOF 6
ENDMDL
MODEL 5
REMARK VINA RESULT:     -10.8      3.242      4.811
REMARK  6 active torsions:
REMARK  status: ('A' for Active; 'I' for Inactive)
REMARK    1  A    between atoms: C_2  and  N_3 
REMARK    2  A    between atoms: C_2  and  C_32 
REMARK       I    between atoms: N_3  and  C_4 
REMARK    3  A    between atoms: C_4  and  C_5 
REMARK    4  A    between atoms: C_6  and  N_7 
REMARK       I    between atoms: N_7  and  C_8 
REMARK    5  A    between atoms: C_8  and  C_9 
REMARK    6  A    between atoms: C_9  and  N_10 
ROOT
HETATM    1  N   UNL     1       5.039  30.260  52.277  1.00  0.00    -0.325 N 
HETATM    2  C   UNL     1       4.770  29.632  51.078  1.00  0.00     0.240 C 
HETATM    3  O   UNL     1       3.811  29.896  50.351  1.00  0.00    -0.271 OA
HETATM    4  H   UNL     1       5.994  30.218  52.638  1.00  0.00     0.169 HD
ENDROOT
BRANCH   1   5
HETATM    5  C   UNL     1       4.122  31.002  53.066  1.00  0.00     0.050 A 
HETATM    6  C   UNL     1       3.963  30.705  54.435  1.00  0.00     0.058 A 
HETATM    7  C   UNL     1       2.985  31.374  55.195  1.00  0.00     0.019 A 
HETATM    8  C   UNL     1       2.193  32.362  54.615  1.00  0.00     0.001 A 
HETATM    9  C   UNL     1       2.364  32.679  53.273  1.00  0.00     0.002 A 
HETATM   10  C   UNL     1       3.315  32.001  52.504  1.00  0.00     0.030 A 
BRANCH   6  11
HETATM   11  C   UNL     1       4.836  29.696  55.101  1.00  0.00     0.254 C 
HETATM   12  N   UNL     1       6.003  30.190  55.639  1.00  0.00    -0.349 N 
HETATM   13  H   UNL     1       6.229  31.169  55.533  1.00  0.00     0.163 HD
HETATM   14  O   UNL     1       4.512  28.512  55.111  1.00  0.00    -0.268 OA
BRANCH  12  15
HETATM   15  C   UNL     1       6.896  29.403  56.472  1.00  0.00     0.114 C 
HETATM   16  C   UNL     1       8.153  29.027  55.686  1.00  0.00     0.037 C 
BRANCH  15  17
HETATM   17  C   UNL     1       7.168  30.188  57.745  1.00  0.00    -0.036 A 
HETATM   18  C   UNL     1       8.221  29.781  58.583  1.00  0.00     0.009 A 
HETATM   19  C   UNL     1       8.475  30.438  59.787  1.00  0.00     0.001 A 
HETATM   20  C   UNL     1       7.673  31.506  60.181  1.00  0.00     0.000 A 
HETATM   21  C   UNL     1       6.616  31.915  59.372  1.00  0.00     0.001 A 
HETATM   22  C   UNL     1       6.360  31.258  58.164  1.00  0.00     0.009 A 
ENDBRANCH  15  17
ENDBRANCH  12  15
ENDBRANCH   6  11
ENDBRANCH   1   5
BRANCH   2  23
HETATM   23  C   UNL     1       5.856  28.679  50.583  1.00  0.00     0.240 C 
BRANCH  23  24
HETATM   24  N   UNL     1       5.656  27.291  50.943  1.00  0.00    -0.259 N 
HETATM   25  C   UNL     1       4.720  26.505  50.347  1.00  0.00     0.326 C 
HETATM   26  O   UNL     1       4.090  26.740  49.330  1.00  0.00    -0.247 OA
HETATM   27  N   UNL     1       4.511  25.398  51.133  1.00  0.00    -0.324 N 
HETATM   28  C   UNL     1       5.382  25.361  52.296  1.00  0.00     0.120 C 
HETATM   29  H   UNL     1       3.867  24.672  50.847  1.00  0.00     0.165 HD
HETATM   30  C   UNL     1       6.496  24.331  52.071  1.00  0.00     0.080 C 
HETATM   31  C   UNL     1       4.598  25.115  53.581  1.00  0.00     0.046 C 
HETATM   32  C   UNL     1       5.924  26.802  52.195  1.00  0.00     0.257 C 
HETATM   33  C   UNL     1       7.213  23.889  53.321  1.00  0.00    -0.049 A 
HETATM   34  C   UNL     1       6.732  24.196  54.604  1.00  0.00    -0.052 A 
HETATM   35  C   UNL     1       8.372  23.108  53.186  1.00  0.00     0.007 A 
HETATM   36  C   UNL     1       5.504  25.045  54.810  1.00  0.00     0.042 C 
HETATM   37  C   UNL     1       7.448  23.754  55.728  1.00  0.00     0.007 A 
HETATM   38  C   UNL     1       8.604  22.988  55.580  1.00  0.00     0.001 A 
HETATM   39  C   UNL     1       9.064  22.660  54.309  1.00  0.00     0.001 A 
HETATM   40  O   UNL     1       6.513  27.412  53.076  1.00  0.00    -0.270 OA
ENDBRANCH  23  24
ENDBRANCH   2  23
TORSDOF 6
ENDMDL
MODEL 6
REMARK VINA RESULT:     -10.7      1.989      5.057
REMARK  6 active torsions:
REMARK  status: ('A' for Active; 'I' for Inactive)
REMARK    1  A    between atoms: C_2  and  N_3 
REMARK    2  A    between atoms: C_2  and  C_32 
REMARK       I    between atoms: N_3  and  C_4 
REMARK    3  A    between atoms: C_4  and  C_5 
REMARK    4  A    between atoms: C_6  and  N_7 
REMARK       I    between atoms: N_7  and  C_8 
REMARK    5  A    between atoms: C_8  and  C_9 
REMARK    6  A    between atoms: C_9  and  N_10 
ROOT
HETATM    1  N   UNL     1       6.916  31.248  59.320  1.00  0.00    -0.325 N 
HETATM    2  C   UNL     1       7.689  30.301  58.680  1.00  0.00     0.240 C 
HETATM    3  O   UNL     1       8.450  29.518  59.250  1.00  0.00    -0.271 OA
HETATM    4  H   UNL     1       6.099  31.613  58.828  1.00  0.00     0.169 HD
ENDROOT
BRANCH   1   5
HETATM    5  C   UNL     1       7.118  31.757  60.629  1.00  0.00     0.050 A 
HETATM    6  C   UNL     1       6.163  32.614  61.212  1.00  0.00     0.058 A 
HETATM    7  C   UNL     1       6.407  33.196  62.470  1.00  0.00     0.019 A 
HETATM    8  C   UNL     1       7.575  32.903  63.169  1.00  0.00     0.001 A 
HETATM    9  C   UNL     1       8.508  32.036  62.613  1.00  0.00     0.002 A 
HETATM   10  C   UNL     1       8.285  31.474  61.353  1.00  0.00     0.030 A 
BRANCH   6  11
HETATM   11  C   UNL     1       4.875  32.901  60.516  1.00  0.00     0.254 C 
HETATM   12  N   UNL     1       4.671  34.219  60.175  1.00  0.00    -0.349 N 
HETATM   13  H   UNL     1       5.357  34.915  60.430  1.00  0.00     0.163 HD
HETATM   14  O   UNL     1       4.067  32.000  60.318  1.00  0.00    -0.268 OA
BRANCH  12  15
HETATM   15  C   UNL     1       3.566  34.670  59.346  1.00  0.00     0.114 C 
HETATM   16  C   UNL     1       2.825  35.817  60.036  1.00  0.00     0.037 C 
BRANCH  15  17
HETATM   17  C   UNL     1       4.117  35.019  57.973  1.00  0.00    -0.036 A 
HETATM   18  C   UNL     1       4.379  33.981  57.062  1.00  0.00     0.009 A 
HETATM   19  C   UNL     1       4.933  34.248  55.810  1.00  0.00     0.001 A 
HETATM   20  C   UNL     1       5.246  35.557  55.451  1.00  0.00     0.000 A 
HETATM   21  C   UNL     1       5.007  36.597  56.345  1.00  0.00     0.001 A 
HETATM   22  C   UNL     1       4.451  36.332  57.600  1.00  0.00     0.009 A 
ENDBRANCH  15  17
ENDBRANCH  12  15
ENDBRANCH   6  11
ENDBRANCH   1   5
BRANCH   2  23
HETATM   23  C   UNL     1       7.416  30.138  57.186  1.00  0.00     0.240 C 
BRANCH  23  24
HETATM   24  N   UNL     1       6.656  28.957  56.833  1.00  0.00    -0.259 N 
HETATM   25  C   UNL     1       5.347  28.800  57.163  1.00  0.00     0.326 C 
HETATM   26  O   UNL     1       4.578  29.650  57.578  1.00  0.00    -0.247 OA
HETATM   27  N   UNL     1       5.018  27.472  57.039  1.00  0.00    -0.324 N 
HETATM   28  C   UNL     1       6.118  26.665  56.537  1.00  0.00     0.120 C 
HETATM   29  H   UNL     1       4.075  27.152  57.214  1.00  0.00     0.165 HD
HETATM   30  C   UNL     1       5.865  26.314  55.065  1.00  0.00     0.080 C 
HETATM   31  C   UNL     1       6.360  25.436  57.406  1.00  0.00     0.046 C 
HETATM   32  C   UNL     1       7.232  27.723  56.675  1.00  0.00     0.257 C 
HETATM   33  C   UNL     1       6.686  25.165  54.538  1.00  0.00    -0.049 A 
HETATM   34  C   UNL     1       7.425  24.325  55.386  1.00  0.00    -0.052 A 
HETATM   35  C   UNL     1       6.667  24.908  53.157  1.00  0.00     0.007 A 
HETATM   36  C   UNL     1       7.495  24.562  56.873  1.00  0.00     0.042 C 
HETATM   37  C   UNL     1       8.168  23.272  54.830  1.00  0.00     0.007 A 
HETATM   38  C   UNL     1       8.150  23.034  53.456  1.00  0.00     0.001 A 
HETATM   39  C   UNL     1       7.395  23.849  52.619  1.00  0.00     0.001 A 
HETATM   40  O   UNL     1       8.435  27.509  56.635  1.00  0.00    -0.270 OA
ENDBRANCH  23  24
ENDBRANCH   2  23
TORSDOF 6
ENDMDL
MODEL 7
REMARK VINA RESULT:     -10.5      4.474      9.035
REMARK  6 active torsions:
REMARK  status: ('A' for Active; 'I' for Inactive)
REMARK    1  A    between atoms: C_2  and  N_3 
REMARK    2  A    between atoms: C_2  and  C_32 
REMARK       I    between atoms: N_3  and  C_4 
REMARK    3  A    between atoms: C_4  and  C_5 
REMARK    4  A    between atoms: C_6  and  N_7 
REMARK       I    between atoms: N_7  and  C_8 
REMARK    5  A    between atoms: C_8  and  C_9 
REMARK    6  A    between atoms: C_9  and  N_10 
ROOT
HETATM    1  N   UNL     1       5.568  29.369  54.820  1.00  0.00    -0.325 N 
HETATM    2  C   UNL     1       4.748  30.449  55.077  1.00  0.00     0.240 C 
HETATM    3  O   UNL     1       5.040  31.387  55.819  1.00  0.00    -0.271 OA
HETATM    4  H   UNL     1       5.398  28.828  53.970  1.00  0.00     0.169 HD
ENDROOT
BRANCH   1   5
HETATM    5  C   UNL     1       6.668  28.939  55.606  1.00  0.00     0.050 A 
HETATM    6  C   UNL     1       7.069  27.588  55.585  1.00  0.00     0.058 A 
HETATM    7  C   UNL     1       8.097  27.140  56.436  1.00  0.00     0.019 A 
HETATM    8  C   UNL     1       8.754  28.033  57.280  1.00  0.00     0.001 A 
HETATM    9  C   UNL     1       8.382  29.372  57.285  1.00  0.00     0.002 A 
HETATM   10  C   UNL     1       7.345  29.819  56.462  1.00  0.00     0.030 A 
BRANCH   6  11
HETATM   11  C   UNL     1       6.428  26.619  54.650  1.00  0.00     0.254 C 
HETATM   12  N   UNL     1       7.296  25.804  53.958  1.00  0.00    -0.349 N 
HETATM   13  H   UNL     1       8.292  25.916  54.080  1.00  0.00     0.163 HD
HETATM   14  O   UNL     1       5.209  26.610  54.512  1.00  0.00    -0.268 OA
BRANCH  12  15
HETATM   15  C   UNL     1       6.863  24.687  53.136  1.00  0.00     0.114 C 
HETATM   16  C   UNL     1       7.350  24.874  51.698  1.00  0.00     0.037 C 
BRANCH  15  17
HETATM   17  C   UNL     1       7.339  23.403  53.795  1.00  0.00    -0.036 A 
HETATM   18  C   UNL     1       7.772  22.342  52.981  1.00  0.00     0.009 A 
HETATM   19  C   UNL     1       8.169  21.125  53.538  1.00  0.00     0.001 A 
HETATM   20  C   UNL     1       8.128  20.945  54.918  1.00  0.00     0.000 A 
HETATM   21  C   UNL     1       7.689  21.980  55.740  1.00  0.00     0.001 A 
HETATM   22  C   UNL     1       7.291  23.199  55.184  1.00  0.00     0.009 A 
ENDBRANCH  15  17
ENDBRANCH  12  15
ENDBRANCH   6  11
ENDBRANCH   1   5
BRANCH   2  23
HETATM   23  C   UNL     1       3.481  30.522  54.227  1.00  0.00     0.240 C 
BRANCH  23  24
HETATM   24  N   UNL     1       3.712  30.587  52.799  1.00  0.00    -0.259 N 
HETATM   25  C   UNL     1       4.090  31.729  52.167  1.00  0.00     0.326 C 
HETATM   26  O   UNL     1       4.494  32.761  52.674  1.00  0.00    -0.247 OA
HETATM   27  N   UNL     1       3.864  31.582  50.820  1.00  0.00    -0.324 N 
HETATM   28  C   UNL     1       3.370  30.259  50.473  1.00  0.00     0.120 C 
HETATM   29  H   UNL     1       4.108  32.316  50.168  1.00  0.00     0.165 HD
HETATM   30  C   UNL     1       4.499  29.442  49.831  1.00  0.00     0.080 C 
HETATM   31  C   UNL     1       2.121  30.332  49.602  1.00  0.00     0.046 C 
HETATM   32  C   UNL     1       3.071  29.768  51.905  1.00  0.00     0.257 C 
HETATM   33  C   UNL     1       4.043  28.231  49.059  1.00  0.00    -0.049 A 
HETATM   34  C   UNL     1       2.693  28.014  48.739  1.00  0.00    -0.052 A 
HETATM   35  C   UNL     1       5.014  27.319  48.611  1.00  0.00     0.007 A 
HETATM   36  C   UNL     1       1.607  28.949  49.206  1.00  0.00     0.042 C 
HETATM   37  C   UNL     1       2.336  26.865  48.017  1.00  0.00     0.007 A 
HETATM   38  C   UNL     1       3.308  25.961  47.588  1.00  0.00     0.001 A 
HETATM   39  C   UNL     1       4.648  26.192  47.880  1.00  0.00     0.001 A 
HETATM   40  O   UNL     1       2.389  28.798  52.205  1.00  0.00    -0.270 OA
ENDBRANCH  23  24
ENDBRANCH   2  23
TORSDOF 6
ENDMDL
MODEL 8
REMARK VINA RESULT:     -10.4      2.505     10.899
REMARK  6 active torsions:
REMARK  status: ('A' for Active; 'I' for Inactive)
REMARK    1  A    between atoms: C_2  and  N_3 
REMARK    2  A    between atoms: C_2  and  C_32 
REMARK       I    between atoms: N_3  and  C_4 
REMARK    3  A    between atoms: C_4  and  C_5 
REMARK    4  A    between atoms: C_6  and  N_7 
REMARK       I    between atoms: N_7  and  C_8 
REMARK    5  A    between atoms: C_8  and  C_9 
REMARK    6  A    between atoms: C_9  and  N_10 
ROOT
HETATM    1  N   UNL     1       5.809  30.419  58.521  1.00  0.00    -0.325 N 
HETATM    2  C   UNL     1       5.009  31.480  58.150  1.00  0.00     0.240 C 
HETATM    3  O   UNL     1       5.196  32.182  57.155  1.00  0.00    -0.271 OA
HETATM    4  H   UNL     1       5.412  29.712  59.142  1.00  0.00     0.169 HD
ENDROOT
BRANCH   1   5
HETATM    5  C   UNL     1       7.143  30.181  58.100  1.00  0.00     0.050 A 
HETATM    6  C   UNL     1       7.431  29.111  57.229  1.00  0.00     0.058 A 
HETATM    7  C   UNL     1       8.763  28.814  56.887  1.00  0.00     0.019 A 
HETATM    8  C   UNL     1       9.808  29.597  57.373  1.00  0.00     0.001 A 
HETATM    9  C   UNL     1       9.529  30.671  58.209  1.00  0.00     0.002 A 
HETATM   10  C   UNL     1       8.211  30.956  58.574  1.00  0.00     0.030 A 
BRANCH   6  11
HETATM   11  C   UNL     1       6.331  28.290  56.643  1.00  0.00     0.254 C 
HETATM   12  N   UNL     1       6.432  28.051  55.291  1.00  0.00    -0.349 N 
HETATM   13  H   UNL     1       7.194  28.453  54.765  1.00  0.00     0.163 HD
HETATM   14  O   UNL     1       5.403  27.909  57.349  1.00  0.00    -0.268 OA
BRANCH  12  15
HETATM   15  C   UNL     1       5.560  27.136  54.573  1.00  0.00     0.114 C 
HETATM   16  C   UNL     1       4.800  27.886  53.477  1.00  0.00     0.037 C 
BRANCH  15  17
HETATM   17  C   UNL     1       6.404  25.978  54.067  1.00  0.00    -0.036 A 
HETATM   18  C   UNL     1       7.108  26.126  52.860  1.00  0.00     0.009 A 
HETATM   19  C   UNL     1       7.854  25.073  52.329  1.00  0.00     0.001 A 
HETATM   20  C   UNL     1       7.899  23.849  52.991  1.00  0.00     0.000 A 
HETATM   21  C   UNL     1       7.197  23.677  54.181  1.00  0.00     0.001 A 
HETATM   22  C   UNL     1       6.449  24.732  54.714  1.00  0.00     0.009 A 
ENDBRANCH  15  17
ENDBRANCH  12  15
ENDBRANCH   6  11
ENDBRANCH   1   5
BRANCH   2  23
HETATM   23  C   UNL     1       3.724  31.642  58.960  1.00  0.00     0.240 C 
BRANCH  23  24
HETATM   24  N   UNL     1       3.690  32.808  59.818  1.00  0.00    -0.259 N 
HETATM   25  C   UNL     1       3.179  34.002  59.414  1.00  0.00     0.326 C 
HETATM   26  O   UNL     1       2.505  34.226  58.424  1.00  0.00    -0.247 OA
HETATM   27  N   UNL     1       3.619  34.980  60.273  1.00  0.00    -0.324 N 
HETATM   28  C   UNL     1       4.418  34.452  61.367  1.00  0.00     0.120 C 
HETATM   29  H   UNL     1       3.325  35.941  60.160  1.00  0.00     0.165 HD
HETATM   30  C   UNL     1       3.583  34.445  62.654  1.00  0.00     0.080 C 
HETATM   31  C   UNL     1       5.736  35.202  61.519  1.00  0.00     0.046 C 
HETATM   32  C   UNL     1       4.605  33.023  60.816  1.00  0.00     0.257 C 
HETATM   33  C   UNL     1       4.382  34.321  63.926  1.00  0.00    -0.049 A 
HETATM   34  C   UNL     1       5.779  34.460  63.946  1.00  0.00    -0.052 A 
HETATM   35  C   UNL     1       3.692  34.105  65.130  1.00  0.00     0.007 A 
HETATM   36  C   UNL     1       6.573  34.676  62.684  1.00  0.00     0.042 C 
HETATM   37  C   UNL     1       6.463  34.333  65.165  1.00  0.00     0.007 A 
HETATM   38  C   UNL     1       5.767  34.107  66.353  1.00  0.00     0.001 A 
HETATM   39  C   UNL     1       4.380  33.999  66.337  1.00  0.00     0.001 A 
HETATM   40  O   UNL     1       5.421  32.202  61.209  1.00  0.00    -0.270 OA
ENDBRANCH  23  24
ENDBRANCH   2  23
TORSDOF 6
ENDMDL
MODEL 9
REMARK VINA RESULT:     -10.4      2.997     11.463
REMARK  6 active torsions:
REMARK  status: ('A' for Active; 'I' for Inactive)
REMARK    1  A    between atoms: C_2  and  N_3 
REMARK    2  A    between atoms: C_2  and  C_32 
REMARK       I    between atoms: N_3  and  C_4 
REMARK    3  A    between atoms: C_4  and  C_5 
REMARK    4  A    between atoms: C_6  and  N_7 
REMARK       I    between atoms: N_7  and  C_8 
REMARK    5  A    between atoms: C_8  and  C_9 
REMARK    6  A    between atoms: C_9  and  N_10 
ROOT
HETATM    1  N   UNL     1       7.017  30.749  59.032  1.00  0.00    -0.325 N 
HETATM    2  C   UNL     1       6.199  31.857  58.962  1.00  0.00     0.240 C 
HETATM    3  O   UNL     1       6.237  32.698  58.062  1.00  0.00    -0.271 OA
HETATM    4  H   UNL     1       6.709  29.959  59.603  1.00  0.00     0.169 HD
ENDROOT
BRANCH   1   5
HETATM    5  C   UNL     1       8.253  30.568  58.358  1.00  0.00     0.050 A 
HETATM    6  C   UNL     1       8.383  29.568  57.373  1.00  0.00     0.058 A 
HETATM    7  C   UNL     1       9.632  29.324  56.772  1.00  0.00     0.019 A 
HETATM    8  C   UNL     1      10.743  30.091  57.116  1.00  0.00     0.001 A 
HETATM    9  C   UNL     1      10.615  31.098  58.065  1.00  0.00     0.002 A 
HETATM   10  C   UNL     1       9.384  31.329  58.685  1.00  0.00     0.030 A 
BRANCH   6  11
HETATM   11  C   UNL     1       7.201  28.769  56.939  1.00  0.00     0.254 C 
HETATM   12  N   UNL     1       7.045  28.639  55.578  1.00  0.00    -0.349 N 
HETATM   13  H   UNL     1       7.690  29.100  54.952  1.00  0.00     0.163 HD
HETATM   14  O   UNL     1       6.427  28.311  57.774  1.00  0.00    -0.268 OA
BRANCH  12  15
HETATM   15  C   UNL     1       6.062  27.762  54.964  1.00  0.00     0.114 C 
HETATM   16  C   UNL     1       5.359  28.484  53.813  1.00  0.00     0.037 C 
BRANCH  15  17
HETATM   17  C   UNL     1       6.764  26.476  54.559  1.00  0.00    -0.036 A 
HETATM   18  C   UNL     1       7.323  26.384  53.273  1.00  0.00     0.009 A 
HETATM   19  C   UNL     1       7.932  25.206  52.837  1.00  0.00     0.001 A 
HETATM   20  C   UNL     1       7.980  24.095  53.675  1.00  0.00     0.000 A 
HETATM   21  C   UNL     1       7.418  24.162  54.948  1.00  0.00     0.001 A 
HETATM   22  C   UNL     1       6.809  25.342  55.386  1.00  0.00     0.009 A 
ENDBRANCH  15  17
ENDBRANCH  12  15
ENDBRANCH   6  11
ENDBRANCH   1   5
BRANCH   2  23
HETATM   23  C   UNL     1       5.075  31.905  59.995  1.00  0.00     0.240 C 
BRANCH  23  24
HETATM   24  N   UNL     1       5.287  32.839  61.080  1.00  0.00    -0.259 N 
HETATM   25  C   UNL     1       5.674  32.447  62.323  1.00  0.00     0.326 C 
HETATM   26  O   UNL     1       6.099  31.355  62.659  1.00  0.00    -0.247 OA
HETATM   27  N   UNL     1       5.427  33.472  63.204  1.00  0.00    -0.324 N 
HETATM   28  C   UNL     1       4.910  34.663  62.551  1.00  0.00     0.120 C 
HETATM   29  H   UNL     1       5.673  33.387  64.181  1.00  0.00     0.165 HD
HETATM   30  C   UNL     1       6.017  35.720  62.460  1.00  0.00     0.080 C 
HETATM   31  C   UNL     1       3.650  35.181  63.236  1.00  0.00     0.046 C 
HETATM   32  C   UNL     1       4.623  34.035  61.171  1.00  0.00     0.257 C 
HETATM   33  C   UNL     1       5.534  37.123  62.193  1.00  0.00    -0.049 A 
HETATM   34  C   UNL     1       4.177  37.473  62.279  1.00  0.00    -0.052 A 
HETATM   35  C   UNL     1       6.485  38.112  61.896  1.00  0.00     0.007 A 
HETATM   36  C   UNL     1       3.111  36.451  62.578  1.00  0.00     0.042 C 
HETATM   37  C   UNL     1       3.793  38.798  62.018  1.00  0.00     0.007 A 
HETATM   38  C   UNL     1       4.746  39.769  61.713  1.00  0.00     0.001 A 
HETATM   39  C   UNL     1       6.094  39.428  61.657  1.00  0.00     0.001 A 
HETATM   40  O   UNL     1       3.931  34.523  60.289  1.00  0.00    -0.270 OA
ENDBRANCH  23  24
ENDBRANCH   2  23
TORSDOF 6
ENDMDL
MODEL 10
REMARK VINA RESULT:     -10.3      6.307      9.310
REMARK  6 active torsions:
REMARK  status: ('A' for Active; 'I' for Inactive)
REMARK    1  A    between atoms: C_2  and  N_3 
REMARK    2  A    between atoms: C_2  and  C_32 
REMARK       I    between atoms: N_3  and  C_4 
REMARK    3  A    between atoms: C_4  and  C_5 
REMARK    4  A    between atoms: C_6  and  N_7 
REMARK       I    between atoms: N_7  and  C_8 
REMARK    5  A    between atoms: C_8  and  C_9 
REMARK    6  A    between atoms: C_9  and  N_10 
ROOT
HETATM    1  N   UNL     1       4.364  28.048  50.587  1.00  0.00    -0.325 N 
HETATM    2  C   UNL     1       5.556  28.703  50.820  1.00  0.00     0.240 C 
HETATM    3  O   UNL     1       6.181  29.339  49.970  1.00  0.00    -0.271 OA
HETATM    4  H   UNL     1       3.766  27.837  51.388  1.00  0.00     0.169 HD
ENDROOT
BRANCH   1   5
HETATM    5  C   UNL     1       3.851  27.654  49.324  1.00  0.00     0.050 A 
HETATM    6  C   UNL     1       3.183  28.590  48.507  1.00  0.00     0.058 A 
HETATM    7  C   UNL     1       2.590  28.179  47.299  1.00  0.00     0.019 A 
HETATM    8  C   UNL     1       2.688  26.855  46.878  1.00  0.00     0.001 A 
HETATM    9  C   UNL     1       3.369  25.934  47.664  1.00  0.00     0.002 A 
HETATM   10  C   UNL     1       3.939  26.328  48.878  1.00  0.00     0.030 A 
BRANCH   6  11
HETATM   11  C   UNL     1       3.112  30.027  48.899  1.00  0.00     0.254 C 
HETATM   12  N   UNL     1       4.165  30.806  48.477  1.00  0.00    -0.349 N 
HETATM   13  H   UNL     1       4.930  30.384  47.970  1.00  0.00     0.163 HD
HETATM   14  O   UNL     1       2.178  30.434  49.584  1.00  0.00    -0.268 OA
BRANCH  12  15
HETATM   15  C   UNL     1       4.195  32.253  48.608  1.00  0.00     0.114 C 
HETATM   16  C   UNL     1       4.380  32.644  50.076  1.00  0.00     0.037 C 
BRANCH  15  17
HETATM   17  C   UNL     1       5.271  32.791  47.679  1.00  0.00    -0.036 A 
HETATM   18  C   UNL     1       5.126  32.605  46.293  1.00  0.00     0.009 A 
HETATM   19  C   UNL     1       6.112  33.034  45.404  1.00  0.00     0.001 A 
HETATM   20  C   UNL     1       7.266  33.647  45.887  1.00  0.00     0.000 A 
HETATM   21  C   UNL     1       7.434  33.827  47.257  1.00  0.00     0.001 A 
HETATM   22  C   UNL     1       6.447  33.398  48.149  1.00  0.00     0.009 A 
ENDBRANCH  15  17
ENDBRANCH  12  15
ENDBRANCH   6  11
ENDBRANCH   1   5
BRANCH   2  23
HETATM   23  C   UNL     1       5.994  28.759  52.282  1.00  0.00     0.240 C 
BRANCH  23  24
HETATM   24  N   UNL     1       5.725  27.557  53.043  1.00  0.00    -0.259 N 
HETATM   25  C   UNL     1       4.542  27.337  53.676  1.00  0.00     0.326 C 
HETATM   26  O   UNL     1       3.500  27.954  53.540  1.00  0.00    -0.247 OA
HETATM   27  N   UNL     1       4.717  26.331  54.595  1.00  0.00    -0.324 N 
HETATM   28  C   UNL     1       6.057  25.768  54.567  1.00  0.00     0.120 C 
HETATM   29  H   UNL     1       3.942  25.998  55.154  1.00  0.00     0.165 HD
HETATM   30  C   UNL     1       6.024  24.401  53.872  1.00  0.00     0.080 C 
HETATM   31  C   UNL     1       6.676  25.712  55.959  1.00  0.00     0.046 C 
HETATM   32  C   UNL     1       6.711  26.836  53.666  1.00  0.00     0.257 C 
HETATM   33  C   UNL     1       7.227  23.531  54.129  1.00  0.00    -0.049 A 
HETATM   34  C   UNL     1       8.172  23.838  55.122  1.00  0.00    -0.052 A 
HETATM   35  C   UNL     1       7.374  22.354  53.377  1.00  0.00     0.007 A 
HETATM   36  C   UNL     1       8.075  25.095  55.948  1.00  0.00     0.042 C 
HETATM   37  C   UNL     1       9.270  22.985  55.311  1.00  0.00     0.007 A 
HETATM   38  C   UNL     1       9.411  21.824  54.549  1.00  0.00     0.001 A 
HETATM   39  C   UNL     1       8.459  21.505  53.586  1.00  0.00     0.001 A 
HETATM   40  O   UNL     1       7.912  27.010  53.512  1.00  0.00    -0.270 OA
ENDBRANCH  23  24
ENDBRANCH   2  23
TORSDOF 6
ENDMDL
