MODEL 1
REMARK VINA RESULT:      -9.3      0.000      0.000
REMARK  8 active torsions:
REMARK  status: ('A' for Active; 'I' for Inactive)
REMARK    1  A    between atoms: C_2  and  N_3 
REMARK    2  A    between atoms: C_9  and  C_10 
REMARK    3  A    between atoms: C_16  and  C_17 
REMARK       I    between atoms: C_17  and  N_18 
REMARK    4  A    between atoms: N_18  and  C_19 
REMARK    5  A    between atoms: C_19  and  C_20 
REMARK    6  A    between atoms: C_20  and  C_21 
REMARK    7  A    between atoms: C_23  and  O_24 
REMARK    8  A    between atoms: C_25  and  O_26 
ROOT
HETATM    1  N   UNL     1       7.956  23.212  55.704  1.00  0.00    -0.248 N 
HETATM    2  N   UNL     1       8.563  23.186  56.916  1.00  0.00    -0.182 NA
HETATM    3  C   UNL     1       8.596  24.472  57.278  1.00  0.00     0.155 A 
HETATM    4  C   UNL     1       7.982  25.326  56.338  1.00  0.00     0.046 A 
HETATM    5  C   UNL     1       7.587  24.475  55.314  1.00  0.00     0.159 A 
HETATM    6  N   UNL     1       6.980  24.821  54.162  1.00  0.00    -0.228 NA
HETATM    7  C   UNL     1       6.752  26.150  54.022  1.00  0.00     0.077 A 
HETATM    8  C   UNL     1       7.111  27.101  54.970  1.00  0.00     0.051 A 
HETATM    9  C   UNL     1       7.725  26.691  56.161  1.00  0.00     0.049 A 
ENDROOT
BRANCH   9  10
HETATM   10  C   UNL     1       8.116  27.723  57.138  1.00  0.00     0.252 C 
HETATM   11  N   UNL     1       8.983  28.708  56.705  1.00  0.00    -0.357 N 
HETATM   12  H   UNL     1       9.489  28.547  55.842  1.00  0.00     0.162 HD
HETATM   13  O   UNL     1       7.706  27.635  58.289  1.00  0.00    -0.268 OA
BRANCH  11  14
HETATM   14  C   UNL     1       9.592  29.599  57.680  1.00  0.00     0.127 C 
BRANCH  14  15
HETATM   15  C   UNL     1       8.792  30.886  57.880  1.00  0.00     0.058 C 
BRANCH  15  16
HETATM   16  C   UNL     1       8.568  31.153  59.350  1.00  0.00    -0.054 A 
HETATM   17  C   UNL     1       8.976  30.212  60.310  1.00  0.00     0.046 A 
HETATM   18  C   UNL     1       8.824  30.500  61.662  1.00  0.00     0.099 A 
HETATM   19  C   UNL     1       8.272  31.712  62.067  1.00  0.00     0.098 A 
HETATM   20  C   UNL     1       7.861  32.651  61.133  1.00  0.00     0.040 A 
HETATM   21  C   UNL     1       8.012  32.373  59.772  1.00  0.00     0.010 A 
BRANCH  18  22
HETATM   22  O   UNL     1       9.218  29.625  62.637  1.00  0.00    -0.358 OA
HETATM   23  H   UNL     1       8.553  29.645  63.347  1.00  0.00     0.218 HD
ENDBRANCH  18  22
BRANCH  19  24
HETATM   24  O   UNL     1       8.139  31.991  63.397  1.00  0.00    -0.358 OA
HETATM   25  H   UNL     1       7.704  31.198  63.768  1.00  0.00     0.218 HD
ENDBRANCH  19  24
ENDBRANCH  15  16
ENDBRANCH  14  15
ENDBRANCH  11  14
ENDBRANCH   9  10
BRANCH   7  26
HETATM   26  C   UNL     1       6.108  26.499  52.744  1.00  0.00     0.033 A 
HETATM   27  S   UNL     1       5.707  28.127  52.353  1.00  0.00    -0.100 SA
HETATM   28  C   UNL     1       5.053  27.686  50.839  1.00  0.00     0.050 A 
HETATM   29  C   UNL     1       5.116  26.329  50.625  1.00  0.00     0.008 A 
HETATM   30  C   UNL     1       5.713  25.647  51.725  1.00  0.00     0.021 A 
ENDBRANCH   7  26
BRANCH   1  31
HETATM   31  C   UNL     1       7.795  21.969  54.957  1.00  0.00     0.104 C 
HETATM   32  C   UNL     1       7.791  20.747  55.876  1.00  0.00     0.034 C 
HETATM   33  C   UNL     1       8.826  21.829  53.838  1.00  0.00     0.034 C 
ENDBRANCH   1  31
TORSDOF 8
ENDMDL
MODEL 2
REMARK VINA RESULT:      -9.2      4.033      8.747
REMARK  8 active torsions:
REMARK  status: ('A' for Active; 'I' for Inactive)
REMARK    1  A    between atoms: C_2  and  N_3 
REMARK    2  A    between atoms: C_9  and  C_10 
REMARK    3  A    between atoms: C_16  and  C_17 
REMARK       I    between atoms: C_17  and  N_18 
REMARK    4  A    between atoms: N_18  and  C_19 
REMARK    5  A    between atoms: C_19  and  C_20 
REMARK    6  A    between atoms: C_20  and  C_21 
REMARK    7  A    between atoms: C_23  and  O_24 
REMARK    8  A    between atoms: C_25  and  O_26 
ROOT
HETATM    1  N   UNL     1       7.712  30.271  58.390  1.00  0.00    -0.248 N 
HETATM    2  N   UNL     1       8.442  29.163  58.666  1.00  0.00    -0.182 NA
HETATM    3  C   UNL     1       7.796  28.190  58.015  1.00  0.00     0.155 A 
HETATM    4  C   UNL     1       6.683  28.660  57.287  1.00  0.00     0.046 A 
HETATM    5  C   UNL     1       6.646  30.019  57.564  1.00  0.00     0.159 A 
HETATM    6  N   UNL     1       5.736  30.911  57.124  1.00  0.00    -0.228 NA
HETATM    7  C   UNL     1       4.767  30.386  56.335  1.00  0.00     0.077 A 
HETATM    8  C   UNL     1       4.690  29.040  55.997  1.00  0.00     0.051 A 
HETATM    9  C   UNL     1       5.670  28.154  56.464  1.00  0.00     0.049 A 
ENDROOT
BRANCH   9  10
HETATM   10  C   UNL     1       5.551  26.728  56.109  1.00  0.00     0.252 C 
HETATM   11  N   UNL     1       6.089  26.330  54.900  1.00  0.00    -0.357 N 
HETATM   12  H   UNL     1       6.314  27.049  54.223  1.00  0.00     0.162 HD
HETATM   13  O   UNL     1       4.943  25.977  56.862  1.00  0.00    -0.268 OA
BRANCH  11  14
HETATM   14  C   UNL     1       5.788  25.003  54.389  1.00  0.00     0.127 C 
BRANCH  14  15
HETATM   15  C   UNL     1       6.881  24.466  53.466  1.00  0.00     0.058 C 
BRANCH  15  16
HETATM   16  C   UNL     1       7.329  23.093  53.909  1.00  0.00    -0.054 A 
HETATM   17  C   UNL     1       7.633  22.107  52.955  1.00  0.00     0.046 A 
HETATM   18  C   UNL     1       8.109  20.869  53.374  1.00  0.00     0.099 A 
HETATM   19  C   UNL     1       8.285  20.604  54.729  1.00  0.00     0.098 A 
HETATM   20  C   UNL     1       7.987  21.564  55.684  1.00  0.00     0.040 A 
HETATM   21  C   UNL     1       7.511  22.812  55.273  1.00  0.00     0.010 A 
BRANCH  18  22
HETATM   22  O   UNL     1       8.433  19.880  52.486  1.00  0.00    -0.358 OA
HETATM   23  H   UNL     1       9.150  20.209  51.917  1.00  0.00     0.218 HD
ENDBRANCH  18  22
BRANCH  19  24
HETATM   24  O   UNL     1       8.764  19.390  55.130  1.00  0.00    -0.358 OA
HETATM   25  H   UNL     1       7.963  18.853  55.286  1.00  0.00     0.218 HD
ENDBRANCH  19  24
ENDBRANCH  15  16
ENDBRANCH  14  15
ENDBRANCH  11  14
ENDBRANCH   9  10
BRANCH   7  26
HETATM   26  C   UNL     1       3.776  31.380  55.889  1.00  0.00     0.033 A 
HETATM   27  S   UNL     1       3.594  32.893  56.688  1.00  0.00    -0.100 SA
HETATM   28  C   UNL     1       2.346  33.391  55.635  1.00  0.00     0.050 A 
HETATM   29  C   UNL     1       2.049  32.431  54.697  1.00  0.00     0.008 A 
HETATM   30  C   UNL     1       2.864  31.271  54.851  1.00  0.00     0.021 A 
ENDBRANCH   7  26
BRANCH   1  31
HETATM   31  C   UNL     1       8.089  31.545  58.993  1.00  0.00     0.104 C 
HETATM   32  C   UNL     1       9.607  31.704  59.091  1.00  0.00     0.034 C 
HETATM   33  C   UNL     1       7.410  31.769  60.344  1.00  0.00     0.034 C 
ENDBRANCH   1  31
TORSDOF 8
ENDMDL
MODEL 3
REMARK VINA RESULT:      -9.1      4.838      9.876
REMARK  8 active torsions:
REMARK  status: ('A' for Active; 'I' for Inactive)
REMARK    1  A    between atoms: C_2  and  N_3 
REMARK    2  A    between atoms: C_9  and  C_10 
REMARK    3  A    between atoms: C_16  and  C_17 
REMARK       I    between atoms: C_17  and  N_18 
REMARK    4  A    between atoms: N_18  and  C_19 
REMARK    5  A    between atoms: C_19  and  C_20 
REMARK    6  A    between atoms: C_20  and  C_21 
REMARK    7  A    between atoms: C_23  and  O_24 
REMARK    8  A    between atoms: C_25  and  O_26 
ROOT
HETATM    1  N   UNL     1       7.361  27.040  55.546  1.00  0.00    -0.248 N 
HETATM    2  N   UNL     1       6.893  28.227  55.088  1.00  0.00    -0.182 NA
HETATM    3  C   UNL     1       6.421  27.930  53.873  1.00  0.00     0.155 A 
HETATM    4  C   UNL     1       6.540  26.561  53.554  1.00  0.00     0.046 A 
HETATM    5  C   UNL     1       7.170  26.009  54.660  1.00  0.00     0.159 A 
HETATM    6  N   UNL     1       7.538  24.723  54.826  1.00  0.00    -0.228 NA
HETATM    7  C   UNL     1       7.248  23.915  53.777  1.00  0.00     0.077 A 
HETATM    8  C   UNL     1       6.630  24.351  52.611  1.00  0.00     0.051 A 
HETATM    9  C   UNL     1       6.251  25.695  52.492  1.00  0.00     0.049 A 
ENDROOT
BRANCH   9  10
HETATM   10  C   UNL     1       5.619  26.136  51.236  1.00  0.00     0.252 C 
HETATM   11  N   UNL     1       5.973  27.381  50.752  1.00  0.00    -0.357 N 
HETATM   12  H   UNL     1       6.445  28.017  51.384  1.00  0.00     0.162 HD
HETATM   13  O   UNL     1       4.778  25.416  50.710  1.00  0.00    -0.268 OA
BRANCH  11  14
HETATM   14  C   UNL     1       5.207  27.966  49.664  1.00  0.00     0.127 C 
BRANCH  14  15
HETATM   15  C   UNL     1       3.730  28.142  50.013  1.00  0.00     0.058 C 
BRANCH  15  16
HETATM   16  C   UNL     1       2.857  27.823  48.822  1.00  0.00    -0.054 A 
HETATM   17  C   UNL     1       3.176  26.743  47.982  1.00  0.00     0.046 A 
HETATM   18  C   UNL     1       2.327  26.419  46.928  1.00  0.00     0.099 A 
HETATM   19  C   UNL     1       1.169  27.157  46.703  1.00  0.00     0.098 A 
HETATM   20  C   UNL     1       0.841  28.228  47.520  1.00  0.00     0.040 A 
HETATM   21  C   UNL     1       1.684  28.560  48.584  1.00  0.00     0.010 A 
BRANCH  18  22
HETATM   22  O   UNL     1       2.584  25.369  46.089  1.00  0.00    -0.358 OA
HETATM   23  H   UNL     1       2.011  24.627  46.350  1.00  0.00     0.218 HD
ENDBRANCH  18  22
BRANCH  19  24
HETATM   24  O   UNL     1       0.336  26.824  45.674  1.00  0.00    -0.358 OA
HETATM   25  H   UNL     1       0.760  27.213  44.884  1.00  0.00     0.218 HD
ENDBRANCH  19  24
ENDBRANCH  15  16
ENDBRANCH  14  15
ENDBRANCH  11  14
ENDBRANCH   9  10
BRANCH   7  26
HETATM   26  C   UNL     1       7.681  22.521  53.978  1.00  0.00     0.033 A 
HETATM   27  S   UNL     1       7.960  21.882  55.552  1.00  0.00    -0.100 SA
HETATM   28  C   UNL     1       8.395  20.349  54.939  1.00  0.00     0.050 A 
HETATM   29  C   UNL     1       8.351  20.310  53.566  1.00  0.00     0.008 A 
HETATM   30  C   UNL     1       7.951  21.563  53.014  1.00  0.00     0.021 A 
ENDBRANCH   7  26
BRANCH   1  31
HETATM   31  C   UNL     1       8.018  26.984  56.848  1.00  0.00     0.104 C 
HETATM   32  C   UNL     1       7.280  26.064  57.821  1.00  0.00     0.034 C 
HETATM   33  C   UNL     1       8.239  28.373  57.444  1.00  0.00     0.034 C 
ENDBRANCH   1  31
TORSDOF 8
ENDMDL
MODEL 4
REMARK VINA RESULT:      -9.0      4.011      9.263
REMARK  8 active torsions:
REMARK  status: ('A' for Active; 'I' for Inactive)
REMARK    1  A    between atoms: C_2  and  N_3 
REMARK    2  A    between atoms: C_9  and  C_10 
REMARK    3  A    between atoms: C_16  and  C_17 
REMARK       I    between atoms: C_17  and  N_18 
REMARK    4  A    between atoms: N_18  and  C_19 
REMARK    5  A    between atoms: C_19  and  C_20 
REMARK    6  A    between atoms: C_20  and  C_21 
REMARK    7  A    between atoms: C_23  and  O_24 
REMARK    8  A    between atoms: C_25  and  O_26 
ROOT
HETATM    1  N   UNL     1       4.701  30.578  55.615  1.00  0.00    -0.248 N 
HETATM    2  N   UNL     1       4.295  29.674  54.689  1.00  0.00    -0.182 NA
HETATM    3  C   UNL     1       5.131  28.647  54.866  1.00  0.00     0.155 A 
HETATM    4  C   UNL     1       6.047  28.855  55.919  1.00  0.00     0.046 A 
HETATM    5  C   UNL     1       5.750  30.131  56.378  1.00  0.00     0.159 A 
HETATM    6  N   UNL     1       6.375  30.803  57.364  1.00  0.00    -0.228 NA
HETATM    7  C   UNL     1       7.402  30.131  57.941  1.00  0.00     0.077 A 
HETATM    8  C   UNL     1       7.802  28.855  57.561  1.00  0.00     0.051 A 
HETATM    9  C   UNL     1       7.109  28.189  56.542  1.00  0.00     0.049 A 
ENDROOT
BRANCH   9  10
HETATM   10  C   UNL     1       7.569  26.847  56.144  1.00  0.00     0.252 C 
HETATM   11  N   UNL     1       8.003  26.003  57.148  1.00  0.00    -0.357 N 
HETATM   12  H   UNL     1       8.212  26.411  58.051  1.00  0.00     0.162 HD
HETATM   13  O   UNL     1       7.597  26.558  54.953  1.00  0.00    -0.268 OA
BRANCH  11  14
HETATM   14  C   UNL     1       8.691  24.772  56.796  1.00  0.00     0.127 C 
BRANCH  14  15
HETATM   15  C   UNL     1       7.790  23.543  56.901  1.00  0.00     0.058 C 
BRANCH  15  16
HETATM   16  C   UNL     1       7.968  22.644  55.700  1.00  0.00    -0.054 A 
HETATM   17  C   UNL     1       8.465  21.339  55.861  1.00  0.00     0.046 A 
HETATM   18  C   UNL     1       8.561  20.500  54.756  1.00  0.00     0.099 A 
HETATM   19  C   UNL     1       8.168  20.945  53.497  1.00  0.00     0.098 A 
HETATM   20  C   UNL     1       7.679  22.230  53.319  1.00  0.00     0.040 A 
HETATM   21  C   UNL     1       7.575  23.080  54.423  1.00  0.00     0.010 A 
BRANCH  18  22
HETATM   22  O   UNL     1       9.024  19.217  54.860  1.00  0.00    -0.358 OA
HETATM   23  H   UNL     1       9.293  18.920  53.973  1.00  0.00     0.218 HD
ENDBRANCH  18  22
BRANCH  19  24
HETATM   24  O   UNL     1       8.254  20.109  52.421  1.00  0.00    -0.358 OA
HETATM   25  H   UNL     1       7.554  20.421  51.815  1.00  0.00     0.218 HD
ENDBRANCH  19  24
ENDBRANCH  15  16
ENDBRANCH  14  15
ENDBRANCH  11  14
ENDBRANCH   9  10
BRANCH   7  26
HETATM   26  C   UNL     1       8.081  30.899  58.999  1.00  0.00     0.033 A 
HETATM   27  S   UNL     1       7.195  31.719  60.226  1.00  0.00    -0.100 SA
HETATM   28  C   UNL     1       8.615  32.305  60.971  1.00  0.00     0.050 A 
HETATM   29  C   UNL     1       9.749  31.909  60.304  1.00  0.00     0.008 A 
HETATM   30  C   UNL     1       9.441  31.110  59.164  1.00  0.00     0.021 A 
ENDBRANCH   7  26
BRANCH   1  31
HETATM   31  C   UNL     1       4.044  31.879  55.681  1.00  0.00     0.104 C 
HETATM   32  C   UNL     1       2.524  31.759  55.568  1.00  0.00     0.034 C 
HETATM   33  C   UNL     1       4.608  32.864  54.657  1.00  0.00     0.034 C 
ENDBRANCH   1  31
TORSDOF 8
ENDMDL
MODEL 5
REMARK VINA RESULT:      -8.9      3.859      9.042
REMARK  8 active torsions:
REMARK  status: ('A' for Active; 'I' for Inactive)
REMARK    1  A    between atoms: C_2  and  N_3 
REMARK    2  A    between atoms: C_9  and  C_10 
REMARK    3  A    between atoms: C_16  and  C_17 
REMARK       I    between atoms: C_17  and  N_18 
REMARK    4  A    between atoms: N_18  and  C_19 
REMARK    5  A    between atoms: C_19  and  C_20 
REMARK    6  A    between atoms: C_20  and  C_21 
REMARK    7  A    between atoms: C_23  and  O_24 
REMARK    8  A    between atoms: C_25  and  O_26 
ROOT
HETATM    1  N   UNL     1       3.784  30.364  54.146  1.00  0.00    -0.248 N 
HETATM    2  N   UNL     1       3.264  29.573  53.176  1.00  0.00    -0.182 NA
HETATM    3  C   UNL     1       3.848  28.389  53.390  1.00  0.00     0.155 A 
HETATM    4  C   UNL     1       4.707  28.392  54.509  1.00  0.00     0.046 A 
HETATM    5  C   UNL     1       4.655  29.699  54.972  1.00  0.00     0.159 A 
HETATM    6  N   UNL     1       5.336  30.218  56.013  1.00  0.00    -0.228 NA
HETATM    7  C   UNL     1       6.152  29.339  56.647  1.00  0.00     0.077 A 
HETATM    8  C   UNL     1       6.298  28.009  56.270  1.00  0.00     0.051 A 
HETATM    9  C   UNL     1       5.555  27.512  55.191  1.00  0.00     0.049 A 
ENDROOT
BRANCH   9  10
HETATM   10  C   UNL     1       5.747  26.104  54.799  1.00  0.00     0.252 C 
HETATM   11  N   UNL     1       6.240  25.862  53.532  1.00  0.00    -0.357 N 
HETATM   12  H   UNL     1       6.217  26.622  52.862  1.00  0.00     0.162 HD
HETATM   13  O   UNL     1       5.415  25.219  55.580  1.00  0.00    -0.268 OA
BRANCH  11  14
HETATM   14  C   UNL     1       6.217  24.507  53.005  1.00  0.00     0.127 C 
BRANCH  14  15
HETATM   15  C   UNL     1       7.610  23.990  52.649  1.00  0.00     0.058 C 
BRANCH  15  16
HETATM   16  C   UNL     1       7.961  22.779  53.481  1.00  0.00    -0.054 A 
HETATM   17  C   UNL     1       8.080  22.891  54.876  1.00  0.00     0.046 A 
HETATM   18  C   UNL     1       8.337  21.755  55.637  1.00  0.00     0.099 A 
HETATM   19  C   UNL     1       8.477  20.513  55.024  1.00  0.00     0.098 A 
HETATM   20  C   UNL     1       8.366  20.385  53.648  1.00  0.00     0.040 A 
HETATM   21  C   UNL     1       8.104  21.519  52.875  1.00  0.00     0.010 A 
BRANCH  18  22
HETATM   22  O   UNL     1       8.448  21.807  57.000  1.00  0.00    -0.358 OA
HETATM   23  H   UNL     1       7.609  22.144  57.358  1.00  0.00     0.218 HD
ENDBRANCH  18  22
BRANCH  19  24
HETATM   24  O   UNL     1       8.717  19.402  55.781  1.00  0.00    -0.358 OA
HETATM   25  H   UNL     1       8.167  18.706  55.370  1.00  0.00     0.218 HD
ENDBRANCH  19  24
ENDBRANCH  15  16
ENDBRANCH  14  15
ENDBRANCH  11  14
ENDBRANCH   9  10
BRANCH   7  26
HETATM   26  C   UNL     1       6.899  29.939  57.765  1.00  0.00     0.033 A 
HETATM   27  S   UNL     1       6.442  31.454  58.444  1.00  0.00    -0.100 SA
HETATM   28  C   UNL     1       7.717  31.420  59.579  1.00  0.00     0.050 A 
HETATM   29  C   UNL     1       8.494  30.293  59.449  1.00  0.00     0.008 A 
HETATM   30  C   UNL     1       8.029  29.448  58.399  1.00  0.00     0.021 A 
ENDBRANCH   7  26
BRANCH   1  31
HETATM   31  C   UNL     1       3.416  31.775  54.192  1.00  0.00     0.104 C 
HETATM   32  C   UNL     1       2.266  32.034  55.166  1.00  0.00     0.034 C 
HETATM   33  C   UNL     1       3.118  32.341  52.804  1.00  0.00     0.034 C 
ENDBRANCH   1  31
TORSDOF 8
ENDMDL
MODEL 6
REMARK VINA RESULT:      -8.7      2.857      5.187
REMARK  8 active torsions:
REMARK  status: ('A' for Active; 'I' for Inactive)
REMARK    1  A    between atoms: C_2  and  N_3 
REMARK    2  A    between atoms: C_9  and  C_10 
REMARK    3  A    between atoms: C_16  and  C_17 
REMARK       I    between atoms: C_17  and  N_18 
REMARK    4  A    between atoms: N_18  and  C_19 
REMARK    5  A    between atoms: C_19  and  C_20 
REMARK    6  A    between atoms: C_20  and  C_21 
REMARK    7  A    between atoms: C_23  and  O_24 
REMARK    8  A    between atoms: C_25  and  O_26 
ROOT
HETATM    1  N   UNL     1       5.157  29.219  55.184  1.00  0.00    -0.248 N 
HETATM    2  N   UNL     1       5.144  30.523  55.553  1.00  0.00    -0.182 NA
HETATM    3  C   UNL     1       6.121  30.602  56.462  1.00  0.00     0.155 A 
HETATM    4  C   UNL     1       6.794  29.377  56.657  1.00  0.00     0.046 A 
HETATM    5  C   UNL     1       6.132  28.491  55.819  1.00  0.00     0.159 A 
HETATM    6  N   UNL     1       6.383  27.175  55.670  1.00  0.00    -0.228 NA
HETATM    7  C   UNL     1       7.394  26.704  56.441  1.00  0.00     0.077 A 
HETATM    8  C   UNL     1       8.122  27.490  57.326  1.00  0.00     0.051 A 
HETATM    9  C   UNL     1       7.835  28.857  57.433  1.00  0.00     0.049 A 
ENDROOT
BRANCH   9  10
HETATM   10  C   UNL     1       8.608  29.662  58.397  1.00  0.00     0.252 C 
HETATM   11  N   UNL     1       8.006  29.950  59.606  1.00  0.00    -0.357 N 
HETATM   12  H   UNL     1       7.005  29.814  59.681  1.00  0.00     0.162 HD
HETATM   13  O   UNL     1       9.712  30.080  58.070  1.00  0.00    -0.268 OA
BRANCH  11  14
HETATM   14  C   UNL     1       8.613  30.936  60.486  1.00  0.00     0.127 C 
BRANCH  14  15
HETATM   15  C   UNL     1       7.928  32.299  60.405  1.00  0.00     0.058 C 
BRANCH  15  16
HETATM   16  C   UNL     1       7.083  32.547  61.632  1.00  0.00    -0.054 A 
HETATM   17  C   UNL     1       5.682  32.484  61.550  1.00  0.00     0.046 A 
HETATM   18  C   UNL     1       4.918  32.649  62.701  1.00  0.00     0.099 A 
HETATM   19  C   UNL     1       5.533  32.876  63.928  1.00  0.00     0.098 A 
HETATM   20  C   UNL     1       6.915  32.945  64.027  1.00  0.00     0.040 A 
HETATM   21  C   UNL     1       7.691  32.777  62.878  1.00  0.00     0.010 A 
BRANCH  18  22
HETATM   22  O   UNL     1       3.552  32.582  62.678  1.00  0.00    -0.358 OA
HETATM   23  H   UNL     1       3.294  31.898  62.037  1.00  0.00     0.218 HD
ENDBRANCH  18  22
BRANCH  19  24
HETATM   24  O   UNL     1       4.775  33.023  65.054  1.00  0.00    -0.358 OA
HETATM   25  H   UNL     1       5.277  33.659  65.602  1.00  0.00     0.218 HD
ENDBRANCH  19  24
ENDBRANCH  15  16
ENDBRANCH  14  15
ENDBRANCH  11  14
ENDBRANCH   9  10
BRANCH   7  26
HETATM   26  C   UNL     1       7.630  25.260  56.274  1.00  0.00     0.033 A 
HETATM   27  S   UNL     1       8.771  24.415  57.248  1.00  0.00    -0.100 SA
HETATM   28  C   UNL     1       8.455  22.929  56.469  1.00  0.00     0.050 A 
HETATM   29  C   UNL     1       7.515  23.057  55.474  1.00  0.00     0.008 A 
HETATM   30  C   UNL     1       7.050  24.399  55.356  1.00  0.00     0.021 A 
ENDBRANCH   7  26
BRANCH   1  31
HETATM   31  C   UNL     1       4.166  28.735  54.228  1.00  0.00     0.104 C 
HETATM   32  C   UNL     1       4.781  27.788  53.197  1.00  0.00     0.034 C 
HETATM   33  C   UNL     1       3.403  29.878  53.559  1.00  0.00     0.034 C 
ENDBRANCH   1  31
TORSDOF 8
ENDMDL
MODEL 7
REMARK VINA RESULT:      -8.6      2.209      4.394
REMARK  8 active torsions:
REMARK  status: ('A' for Active; 'I' for Inactive)
REMARK    1  A    between atoms: C_2  and  N_3 
REMARK    2  A    between atoms: C_9  and  C_10 
REMARK    3  A    between atoms: C_16  and  C_17 
REMARK       I    between atoms: C_17  and  N_18 
REMARK    4  A    between atoms: N_18  and  C_19 
REMARK    5  A    between atoms: C_19  and  C_20 
REMARK    6  A    between atoms: C_20  and  C_21 
REMARK    7  A    between atoms: C_23  and  O_24 
REMARK    8  A    between atoms: C_25  and  O_26 
ROOT
HETATM    1  N   UNL     1       5.034  28.327  53.896  1.00  0.00    -0.248 N 
HETATM    2  N   UNL     1       4.873  29.553  54.452  1.00  0.00    -0.182 NA
HETATM    3  C   UNL     1       5.789  29.578  55.426  1.00  0.00     0.155 A 
HETATM    4  C   UNL     1       6.567  28.403  55.482  1.00  0.00     0.046 A 
HETATM    5  C   UNL     1       6.040  27.600  54.480  1.00  0.00     0.159 A 
HETATM    6  N   UNL     1       6.426  26.350  54.155  1.00  0.00    -0.228 NA
HETATM    7  C   UNL     1       7.436  25.857  54.915  1.00  0.00     0.077 A 
HETATM    8  C   UNL     1       8.037  26.559  55.953  1.00  0.00     0.051 A 
HETATM    9  C   UNL     1       7.612  27.863  56.242  1.00  0.00     0.049 A 
ENDROOT
BRANCH   9  10
HETATM   10  C   UNL     1       8.250  28.576  57.363  1.00  0.00     0.252 C 
HETATM   11  N   UNL     1       9.258  29.469  57.053  1.00  0.00    -0.357 N 
HETATM   12  H   UNL     1       9.669  29.416  56.129  1.00  0.00     0.162 HD
HETATM   13  O   UNL     1       7.904  28.312  58.508  1.00  0.00    -0.268 OA
BRANCH  11  14
HETATM   14  C   UNL     1      10.083  30.010  58.121  1.00  0.00     0.127 C 
BRANCH  14  15
HETATM   15  C   UNL     1       9.854  31.504  58.342  1.00  0.00     0.058 C 
BRANCH  15  16
HETATM   16  C   UNL     1       9.030  31.741  59.586  1.00  0.00    -0.054 A 
HETATM   17  C   UNL     1       7.626  31.749  59.513  1.00  0.00     0.046 A 
HETATM   18  C   UNL     1       6.879  31.902  60.676  1.00  0.00     0.099 A 
HETATM   19  C   UNL     1       7.512  32.047  61.906  1.00  0.00     0.098 A 
HETATM   20  C   UNL     1       8.896  32.046  61.997  1.00  0.00     0.040 A 
HETATM   21  C   UNL     1       9.656  31.889  60.835  1.00  0.00     0.010 A 
BRANCH  18  22
HETATM   22  O   UNL     1       5.511  31.902  60.662  1.00  0.00    -0.358 OA
HETATM   23  H   UNL     1       5.219  32.138  59.764  1.00  0.00     0.218 HD
ENDBRANCH  18  22
BRANCH  19  24
HETATM   24  O   UNL     1       6.770  32.184  63.044  1.00  0.00    -0.358 OA
HETATM   25  H   UNL     1       5.888  31.840  62.800  1.00  0.00     0.218 HD
ENDBRANCH  19  24
ENDBRANCH  15  16
ENDBRANCH  14  15
ENDBRANCH  11  14
ENDBRANCH   9  10
BRANCH   7  26
HETATM   26  C   UNL     1       7.821  24.483  54.552  1.00  0.00     0.033 A 
HETATM   27  S   UNL     1       8.661  23.462  55.654  1.00  0.00    -0.100 SA
HETATM   28  C   UNL     1       8.717  22.170  54.539  1.00  0.00     0.050 A 
HETATM   29  C   UNL     1       8.127  22.497  53.341  1.00  0.00     0.008 A 
HETATM   30  C   UNL     1       7.623  23.830  53.346  1.00  0.00     0.021 A 
ENDBRANCH   7  26
BRANCH   1  31
HETATM   31  C   UNL     1       4.147  27.910  52.815  1.00  0.00     0.104 C 
HETATM   32  C   UNL     1       4.918  27.588  51.535  1.00  0.00     0.034 C 
HETATM   33  C   UNL     1       3.030  28.923  52.560  1.00  0.00     0.034 C 
ENDBRANCH   1  31
TORSDOF 8
ENDMDL
MODEL 8
REMARK VINA RESULT:      -8.5      4.103      8.986
REMARK  8 active torsions:
REMARK  status: ('A' for Active; 'I' for Inactive)
REMARK    1  A    between atoms: C_2  and  N_3 
REMARK    2  A    between atoms: C_9  and  C_10 
REMARK    3  A    between atoms: C_16  and  C_17 
REMARK       I    between atoms: C_17  and  N_18 
REMARK    4  A    between atoms: N_18  and  C_19 
REMARK    5  A    between atoms: C_19  and  C_20 
REMARK    6  A    between atoms: C_20  and  C_21 
REMARK    7  A    between atoms: C_23  and  O_24 
REMARK    8  A    between atoms: C_25  and  O_26 
ROOT
HETATM    1  N   UNL     1       6.998  24.674  53.769  1.00  0.00    -0.248 N 
HETATM    2  N   UNL     1       6.129  24.278  52.807  1.00  0.00    -0.182 NA
HETATM    3  C   UNL     1       5.432  25.387  52.539  1.00  0.00     0.155 A 
HETATM    4  C   UNL     1       5.864  26.505  53.283  1.00  0.00     0.046 A 
HETATM    5  C   UNL     1       6.878  26.004  54.088  1.00  0.00     0.159 A 
HETATM    6  N   UNL     1       7.591  26.681  55.009  1.00  0.00    -0.228 NA
HETATM    7  C   UNL     1       7.249  27.986  55.138  1.00  0.00     0.077 A 
HETATM    8  C   UNL     1       6.244  28.600  54.399  1.00  0.00     0.051 A 
HETATM    9  C   UNL     1       5.542  27.858  53.440  1.00  0.00     0.049 A 
ENDROOT
BRANCH   9  10
HETATM   10  C   UNL     1       4.466  28.527  52.686  1.00  0.00     0.252 C 
HETATM   11  N   UNL     1       4.842  29.479  51.759  1.00  0.00    -0.357 N 
HETATM   12  H   UNL     1       5.787  29.842  51.808  1.00  0.00     0.162 HD
HETATM   13  O   UNL     1       3.300  28.255  52.947  1.00  0.00    -0.268 OA
BRANCH  11  14
HETATM   14  C   UNL     1       3.828  30.339  51.170  1.00  0.00     0.127 C 
BRANCH  14  15
HETATM   15  C   UNL     1       4.043  30.563  49.674  1.00  0.00     0.058 C 
BRANCH  15  16
HETATM   16  C   UNL     1       3.895  29.267  48.912  1.00  0.00    -0.054 A 
HETATM   17  C   UNL     1       5.000  28.710  48.245  1.00  0.00     0.046 A 
HETATM   18  C   UNL     1       4.868  27.483  47.603  1.00  0.00     0.099 A 
HETATM   19  C   UNL     1       3.651  26.807  47.619  1.00  0.00     0.098 A 
HETATM   20  C   UNL     1       2.550  27.343  48.270  1.00  0.00     0.040 A 
HETATM   21  C   UNL     1       2.673  28.573  48.920  1.00  0.00     0.010 A 
BRANCH  18  22
HETATM   22  O   UNL     1       5.914  26.891  46.951  1.00  0.00    -0.358 OA
HETATM   23  H   UNL     1       5.624  26.674  46.048  1.00  0.00     0.218 HD
ENDBRANCH  18  22
BRANCH  19  24
HETATM   24  O   UNL     1       3.535  25.597  46.997  1.00  0.00    -0.358 OA
HETATM   25  H   UNL     1       3.878  25.754  46.095  1.00  0.00     0.218 HD
ENDBRANCH  19  24
ENDBRANCH  15  16
ENDBRANCH  14  15
ENDBRANCH  11  14
ENDBRANCH   9  10
BRANCH   7  26
HETATM   26  C   UNL     1       8.029  28.695  56.167  1.00  0.00     0.033 A 
HETATM   27  S   UNL     1       7.421  28.922  57.762  1.00  0.00    -0.100 SA
HETATM   28  C   UNL     1       8.821  29.761  58.262  1.00  0.00     0.050 A 
HETATM   29  C   UNL     1       9.737  29.889  57.245  1.00  0.00     0.008 A 
HETATM   30  C   UNL     1       9.276  29.286  56.039  1.00  0.00     0.021 A 
ENDBRANCH   7  26
BRANCH   1  31
HETATM   31  C   UNL     1       7.901  23.695  54.365  1.00  0.00     0.104 C 
HETATM   32  C   UNL     1       8.308  22.611  53.366  1.00  0.00     0.034 C 
HETATM   33  C   UNL     1       7.334  23.092  55.650  1.00  0.00     0.034 C 
ENDBRANCH   1  31
TORSDOF 8
ENDMDL
MODEL 9
REMARK VINA RESULT:      -8.4      5.328      8.936
REMARK  8 active torsions:
REMARK  status: ('A' for Active; 'I' for Inactive)
REMARK    1  A    between atoms: C_2  and  N_3 
REMARK    2  A    between atoms: C_9  and  C_10 
REMARK    3  A    between atoms: C_16  and  C_17 
REMARK       I    between atoms: C_17  and  N_18 
REMARK    4  A    between atoms: N_18  and  C_19 
REMARK    5  A    between atoms: C_19  and  C_20 
REMARK    6  A    between atoms: C_20  and  C_21 
REMARK    7  A    between atoms: C_23  and  O_24 
REMARK    8  A    between atoms: C_25  and  O_26 
ROOT
HETATM    1  N   UNL     1       3.426  30.776  53.957  1.00  0.00    -0.248 N 
HETATM    2  N   UNL     1       3.661  30.395  55.237  1.00  0.00    -0.182 NA
HETATM    3  C   UNL     1       4.145  29.155  55.111  1.00  0.00     0.155 A 
HETATM    4  C   UNL     1       4.266  28.744  53.767  1.00  0.00     0.046 A 
HETATM    5  C   UNL     1       3.775  29.818  53.038  1.00  0.00     0.159 A 
HETATM    6  N   UNL     1       3.649  29.899  51.700  1.00  0.00    -0.228 NA
HETATM    7  C   UNL     1       4.050  28.792  51.028  1.00  0.00     0.077 A 
HETATM    8  C   UNL     1       4.548  27.650  51.645  1.00  0.00     0.051 A 
HETATM    9  C   UNL     1       4.676  27.620  53.040  1.00  0.00     0.049 A 
ENDROOT
BRANCH   9  10
HETATM   10  C   UNL     1       5.185  26.389  53.670  1.00  0.00     0.252 C 
HETATM   11  N   UNL     1       6.342  26.493  54.419  1.00  0.00    -0.357 N 
HETATM   12  H   UNL     1       6.906  27.326  54.305  1.00  0.00     0.162 HD
HETATM   13  O   UNL     1       4.602  25.331  53.464  1.00  0.00    -0.268 OA
BRANCH  11  14
HETATM   14  C   UNL     1       7.020  25.282  54.854  1.00  0.00     0.127 C 
BRANCH  14  15
HETATM   15  C   UNL     1       7.861  24.649  53.747  1.00  0.00     0.058 C 
BRANCH  15  16
HETATM   16  C   UNL     1       8.129  23.193  54.045  1.00  0.00    -0.054 A 
HETATM   17  C   UNL     1       7.958  22.224  53.042  1.00  0.00     0.046 A 
HETATM   18  C   UNL     1       8.272  20.895  53.310  1.00  0.00     0.099 A 
HETATM   19  C   UNL     1       8.753  20.524  54.562  1.00  0.00     0.098 A 
HETATM   20  C   UNL     1       8.924  21.466  55.564  1.00  0.00     0.040 A 
HETATM   21  C   UNL     1       8.615  22.803  55.305  1.00  0.00     0.010 A 
BRANCH  18  22
HETATM   22  O   UNL     1       8.137  19.915  52.365  1.00  0.00    -0.358 OA
HETATM   23  H   UNL     1       8.970  19.414  52.329  1.00  0.00     0.218 HD
ENDBRANCH  18  22
BRANCH  19  24
HETATM   24  O   UNL     1       9.070  19.219  54.811  1.00  0.00    -0.358 OA
HETATM   25  H   UNL     1       8.880  18.759  53.970  1.00  0.00     0.218 HD
ENDBRANCH  19  24
ENDBRANCH  15  16
ENDBRANCH  14  15
ENDBRANCH  11  14
ENDBRANCH   9  10
BRANCH   7  26
HETATM   26  C   UNL     1       3.881  28.901  49.569  1.00  0.00     0.033 A 
HETATM   27  S   UNL     1       2.634  28.051  48.740  1.00  0.00    -0.100 SA
HETATM   28  C   UNL     1       3.107  28.674  47.223  1.00  0.00     0.050 A 
HETATM   29  C   UNL     1       4.200  29.502  47.323  1.00  0.00     0.008 A 
HETATM   30  C   UNL     1       4.650  29.623  48.670  1.00  0.00     0.021 A 
ENDBRANCH   7  26
BRANCH   1  31
HETATM   31  C   UNL     1       2.825  32.080  53.697  1.00  0.00     0.104 C 
HETATM   32  C   UNL     1       3.875  33.130  53.329  1.00  0.00     0.034 C 
HETATM   33  C   UNL     1       1.941  32.550  54.852  1.00  0.00     0.034 C 
ENDBRANCH   1  31
TORSDOF 8
ENDMDL
MODEL 10
REMARK VINA RESULT:      -8.4      4.320      9.360
REMARK  8 active torsions:
REMARK  status: ('A' for Active; 'I' for Inactive)
REMARK    1  A    between atoms: C_2  and  N_3 
REMARK    2  A    between atoms: C_9  and  C_10 
REMARK    3  A    between atoms: C_16  and  C_17 
REMARK       I    between atoms: C_17  and  N_18 
REMARK    4  A    between atoms: N_18  and  C_19 
REMARK    5  A    between atoms: C_19  and  C_20 
REMARK    6  A    between atoms: C_20  and  C_21 
REMARK    7  A    between atoms: C_23  and  O_24 
REMARK    8  A    between atoms: C_25  and  O_26 
ROOT
HETATM    1  N   UNL     1       7.436  28.488  56.334  1.00  0.00    -0.248 N 
HETATM    2  N   UNL     1       6.687  29.586  56.067  1.00  0.00    -0.182 NA
HETATM    3  C   UNL     1       5.947  29.214  55.018  1.00  0.00     0.155 A 
HETATM    4  C   UNL     1       6.177  27.878  54.627  1.00  0.00     0.046 A 
HETATM    5  C   UNL     1       7.165  27.436  55.496  1.00  0.00     0.159 A 
HETATM    6  N   UNL     1       7.752  26.223  55.506  1.00  0.00    -0.228 NA
HETATM    7  C   UNL     1       7.309  25.374  54.547  1.00  0.00     0.077 A 
HETATM    8  C   UNL     1       6.333  25.704  53.613  1.00  0.00     0.051 A 
HETATM    9  C   UNL     1       5.739  26.972  53.654  1.00  0.00     0.049 A 
ENDROOT
BRANCH   9  10
HETATM   10  C   UNL     1       4.724  27.304  52.637  1.00  0.00     0.252 C 
HETATM   11  N   UNL     1       4.177  28.572  52.679  1.00  0.00    -0.357 N 
HETATM   12  H   UNL     1       4.308  29.116  53.523  1.00  0.00     0.162 HD
HETATM   13  O   UNL     1       4.375  26.438  51.843  1.00  0.00    -0.268 OA
BRANCH  11  14
HETATM   14  C   UNL     1       3.008  28.870  51.868  1.00  0.00     0.127 C 
BRANCH  14  15
HETATM   15  C   UNL     1       3.366  29.553  50.549  1.00  0.00     0.058 C 
BRANCH  15  16
HETATM   16  C   UNL     1       3.267  28.581  49.398  1.00  0.00    -0.054 A 
HETATM   17  C   UNL     1       4.433  28.077  48.796  1.00  0.00     0.046 A 
HETATM   18  C   UNL     1       4.329  27.132  47.781  1.00  0.00     0.099 A 
HETATM   19  C   UNL     1       3.080  26.684  47.361  1.00  0.00     0.098 A 
HETATM   20  C   UNL     1       1.919  27.172  47.941  1.00  0.00     0.040 A 
HETATM   21  C   UNL     1       2.013  28.120  48.963  1.00  0.00     0.010 A 
BRANCH  18  22
HETATM   22  O   UNL     1       5.433  26.600  47.172  1.00  0.00    -0.358 OA
HETATM   23  H   UNL     1       6.192  26.718  47.768  1.00  0.00     0.218 HD
ENDBRANCH  18  22
BRANCH  19  24
HETATM   24  O   UNL     1       2.989  25.746  46.372  1.00  0.00    -0.358 OA
HETATM   25  H   UNL     1       2.599  26.228  45.617  1.00  0.00     0.218 HD
ENDBRANCH  19  24
ENDBRANCH  15  16
ENDBRANCH  14  15
ENDBRANCH  11  14
ENDBRANCH   9  10
BRANCH   7  26
HETATM   26  C   UNL     1       7.984  24.066  54.568  1.00  0.00     0.033 A 
HETATM   27  S   UNL     1       8.740  23.465  55.993  1.00  0.00    -0.100 SA
HETATM   28  C   UNL     1       9.237  22.026  55.219  1.00  0.00     0.050 A 
HETATM   29  C   UNL     1       8.857  21.993  53.899  1.00  0.00     0.008 A 
HETATM   30  C   UNL     1       8.147  23.171  53.523  1.00  0.00     0.021 A 
ENDBRANCH   7  26
BRANCH   1  31
HETATM   31  C   UNL     1       8.429  28.541  57.402  1.00  0.00     0.104 C 
HETATM   32  C   UNL     1       7.970  29.422  58.565  1.00  0.00     0.034 C 
HETATM   33  C   UNL     1       9.808  28.958  56.890  1.00  0.00     0.034 C 
ENDBRANCH   1  31
TORSDOF 8
ENDMDL
