MODEL 1
REMARK VINA RESULT:     -10.5      0.000      0.000
REMARK  4 active torsions:
REMARK  status: ('A' for Active; 'I' for Inactive)
REMARK    1  A    between atoms: C_5  and  N_6 
REMARK       I    between atoms: N_6  and  C_7 
REMARK    2  A    between atoms: C_7  and  C_8 
REMARK    3  A    between atoms: N_12  and  C_13 
REMARK    4  A    between atoms: C_24  and  O_25 
ROOT
HETATM    1  C   UNL     1       6.377  26.752  52.689  1.00  0.00     0.034 A 
HETATM    2  C   UNL     1       6.707  26.962  54.032  1.00  0.00     0.049 A 
HETATM    3  C   UNL     1       7.317  25.917  54.694  1.00  0.00     0.064 A 
HETATM    4  C   UNL     1       7.631  24.690  54.098  1.00  0.00     0.066 A 
HETATM    5  N   UNL     1       8.252  23.888  55.081  1.00  0.00    -0.293 N 
HETATM    6  C   UNL     1       8.237  24.613  56.305  1.00  0.00     0.328 A 
HETATM    7  O   UNL     1       8.601  24.241  57.408  1.00  0.00    -0.247 OA
HETATM    8  N   UNL     1       7.699  25.872  56.025  1.00  0.00    -0.306 N 
HETATM    9  C   UNL     1       7.310  24.475  52.775  1.00  0.00     0.033 A 
HETATM   10  C   UNL     1       6.686  25.517  52.070  1.00  0.00     0.019 A 
HETATM   11  H   UNL     1       7.576  26.582  56.727  1.00  0.00     0.171 HD
ENDROOT
BRANCH   1  12
HETATM   12  C   UNL     1       5.727  27.803  51.854  1.00  0.00     0.252 C 
HETATM   13  N   UNL     1       4.641  27.422  51.103  1.00  0.00    -0.346 N 
HETATM   14  H   UNL     1       4.296  26.474  51.106  1.00  0.00     0.163 HD
HETATM   15  O   UNL     1       6.154  28.951  51.862  1.00  0.00    -0.268 OA
BRANCH  13  16
HETATM   16  C   UNL     1       3.919  28.378  50.284  1.00  0.00     0.147 C 
HETATM   17  C   UNL     1       3.163  27.714  49.165  1.00  0.00    -0.027 A 
HETATM   18  C   UNL     1       1.881  28.259  49.036  1.00  0.00    -0.047 A 
HETATM   19  C   UNL     1       3.608  26.734  48.287  1.00  0.00     0.010 A 
HETATM   20  C   UNL     1       1.013  27.823  48.047  1.00  0.00     0.008 A 
HETATM   21  C   UNL     1       1.649  29.355  50.035  1.00  0.00     0.073 C 
HETATM   22  C   UNL     1       1.447  26.821  47.178  1.00  0.00     0.001 A 
HETATM   23  C   UNL     1       2.737  26.282  47.295  1.00  0.00     0.001 A 
HETATM   24  C   UNL     1       2.773  29.104  51.055  1.00  0.00     0.149 C 
BRANCH  24  25
HETATM   25  O   UNL     1       2.253  28.292  52.123  1.00  0.00    -0.393 OA
HETATM   26  H   UNL     1       2.608  28.684  52.940  1.00  0.00     0.210 HD
ENDBRANCH  24  25
ENDBRANCH  13  16
ENDBRANCH   1  12
BRANCH   5  27
HETATM   27  C   UNL     1       8.649  22.497  55.032  1.00  0.00     0.095 C 
HETATM   28  C   UNL     1       7.674  21.435  55.539  1.00  0.00     0.026 C 
HETATM   29  C   UNL     1       8.234  20.144  54.963  1.00  0.00     0.002 C 
HETATM   30  C   UNL     1       8.622  20.527  53.545  1.00  0.00     0.002 C 
HETATM   31  C   UNL     1       8.960  22.017  53.597  1.00  0.00     0.026 C 
ENDBRANCH   5  27
TORSDOF 4
ENDMDL
MODEL 2
REMARK VINA RESULT:     -10.1      6.177      9.462
REMARK  4 active torsions:
REMARK  status: ('A' for Active; 'I' for Inactive)
REMARK    1  A    between atoms: C_5  and  N_6 
REMARK       I    between atoms: N_6  and  C_7 
REMARK    2  A    between atoms: C_7  and  C_8 
REMARK    3  A    between atoms: N_12  and  C_13 
REMARK    4  A    between atoms: C_24  and  O_25 
ROOT
HETATM    1  C   UNL     1       7.886  29.250  57.321  1.00  0.00     0.034 A 
HETATM    2  C   UNL     1       6.796  29.433  56.464  1.00  0.00     0.049 A 
HETATM    3  C   UNL     1       6.395  28.341  55.723  1.00  0.00     0.064 A 
HETATM    4  C   UNL     1       7.000  27.081  55.797  1.00  0.00     0.066 A 
HETATM    5  N   UNL     1       6.310  26.227  54.908  1.00  0.00    -0.293 N 
HETATM    6  C   UNL     1       5.330  27.006  54.231  1.00  0.00     0.328 A 
HETATM    7  O   UNL     1       4.585  26.664  53.329  1.00  0.00    -0.247 OA
HETATM    8  N   UNL     1       5.376  28.287  54.786  1.00  0.00    -0.306 N 
HETATM    9  C   UNL     1       8.074  26.891  56.640  1.00  0.00     0.033 A 
HETATM   10  C   UNL     1       8.511  27.982  57.408  1.00  0.00     0.019 A 
HETATM   11  H   UNL     1       4.779  29.038  54.479  1.00  0.00     0.171 HD
ENDROOT
BRANCH   1  12
HETATM   12  C   UNL     1       8.412  30.343  58.187  1.00  0.00     0.252 C 
HETATM   13  N   UNL     1       7.652  30.699  59.276  1.00  0.00    -0.346 N 
HETATM   14  H   UNL     1       6.773  30.250  59.483  1.00  0.00     0.163 HD
HETATM   15  O   UNL     1       9.482  30.879  57.926  1.00  0.00    -0.268 OA
BRANCH  13  16
HETATM   16  C   UNL     1       8.094  31.728  60.199  1.00  0.00     0.147 C 
HETATM   17  C   UNL     1       6.959  32.290  61.012  1.00  0.00    -0.027 A 
HETATM   18  C   UNL     1       7.330  32.436  62.353  1.00  0.00    -0.047 A 
HETATM   19  C   UNL     1       5.705  32.696  60.575  1.00  0.00     0.010 A 
HETATM   20  C   UNL     1       6.453  32.968  63.285  1.00  0.00     0.008 A 
HETATM   21  C   UNL     1       8.752  32.011  62.577  1.00  0.00     0.073 C 
HETATM   22  C   UNL     1       5.182  33.354  62.856  1.00  0.00     0.001 A 
HETATM   23  C   UNL     1       4.811  33.223  61.510  1.00  0.00     0.001 A 
HETATM   24  C   UNL     1       9.045  31.187  61.311  1.00  0.00     0.149 C 
BRANCH  24  25
HETATM   25  O   UNL     1       8.793  29.799  61.596  1.00  0.00    -0.393 OA
HETATM   26  H   UNL     1       8.634  29.383  60.731  1.00  0.00     0.210 HD
ENDBRANCH  24  25
ENDBRANCH  13  16
ENDBRANCH   1  12
BRANCH   5  27
HETATM   27  C   UNL     1       6.607  24.870  54.503  1.00  0.00     0.095 C 
HETATM   28  C   UNL     1       7.803  24.620  53.586  1.00  0.00     0.026 C 
HETATM   29  C   UNL     1       8.040  23.123  53.722  1.00  0.00     0.002 C 
HETATM   30  C   UNL     1       7.871  22.871  55.210  1.00  0.00     0.002 C 
HETATM   31  C   UNL     1       6.897  23.941  55.703  1.00  0.00     0.026 C 
ENDBRANCH   5  27
TORSDOF 4
ENDMDL
MODEL 3
REMARK VINA RESULT:      -9.8      5.299      8.657
REMARK  4 active torsions:
REMARK  status: ('A' for Active; 'I' for Inactive)
REMARK    1  A    between atoms: C_5  and  N_6 
REMARK       I    between atoms: N_6  and  C_7 
REMARK    2  A    between atoms: C_7  and  C_8 
REMARK    3  A    between atoms: N_12  and  C_13 
REMARK    4  A    between atoms: C_24  and  O_25 
ROOT
HETATM    1  C   UNL     1       7.575  29.049  56.146  1.00  0.00     0.034 A 
HETATM    2  C   UNL     1       6.365  29.731  56.315  1.00  0.00     0.049 A 
HETATM    3  C   UNL     1       6.275  30.583  57.397  1.00  0.00     0.064 A 
HETATM    4  C   UNL     1       7.318  30.808  58.304  1.00  0.00     0.066 A 
HETATM    5  N   UNL     1       6.856  31.743  59.256  1.00  0.00    -0.293 N 
HETATM    6  C   UNL     1       5.491  32.021  58.965  1.00  0.00     0.328 A 
HETATM    7  O   UNL     1       4.709  32.711  59.597  1.00  0.00    -0.247 OA
HETATM    8  N   UNL     1       5.177  31.330  57.792  1.00  0.00    -0.306 N 
HETATM    9  C   UNL     1       8.514  30.141  58.144  1.00  0.00     0.033 A 
HETATM   10  C   UNL     1       8.639  29.264  57.055  1.00  0.00     0.019 A 
HETATM   11  H   UNL     1       4.265  31.357  57.368  1.00  0.00     0.171 HD
ENDROOT
BRANCH   1  12
HETATM   12  C   UNL     1       7.809  28.110  55.012  1.00  0.00     0.252 C 
HETATM   13  N   UNL     1       7.320  26.833  55.147  1.00  0.00    -0.346 N 
HETATM   14  H   UNL     1       6.829  26.533  55.976  1.00  0.00     0.163 HD
HETATM   15  O   UNL     1       8.405  28.486  54.011  1.00  0.00    -0.268 OA
BRANCH  13  16
HETATM   16  C   UNL     1       7.467  25.854  54.085  1.00  0.00     0.147 C 
HETATM   17  C   UNL     1       7.832  24.492  54.612  1.00  0.00    -0.027 A 
HETATM   18  C   UNL     1       7.093  23.494  53.968  1.00  0.00    -0.047 A 
HETATM   19  C   UNL     1       8.796  24.163  55.556  1.00  0.00     0.010 A 
HETATM   20  C   UNL     1       7.285  22.155  54.268  1.00  0.00     0.008 A 
HETATM   21  C   UNL     1       6.175  24.074  52.932  1.00  0.00     0.073 C 
HETATM   22  C   UNL     1       8.235  21.820  55.235  1.00  0.00     0.001 A 
HETATM   23  C   UNL     1       8.988  22.817  55.872  1.00  0.00     0.001 A 
HETATM   24  C   UNL     1       6.131  25.558  53.335  1.00  0.00     0.149 C 
BRANCH  24  25
HETATM   25  O   UNL     1       4.988  25.772  54.182  1.00  0.00    -0.393 OA
HETATM   26  H   UNL     1       4.250  25.320  53.737  1.00  0.00     0.210 HD
ENDBRANCH  24  25
ENDBRANCH  13  16
ENDBRANCH   1  12
BRANCH   5  27
HETATM   27  C   UNL     1       7.479  32.215  60.475  1.00  0.00     0.095 C 
HETATM   28  C   UNL     1       7.300  31.402  61.756  1.00  0.00     0.026 C 
HETATM   29  C   UNL     1       8.389  31.946  62.669  1.00  0.00     0.002 C 
HETATM   30  C   UNL     1       9.589  32.080  61.749  1.00  0.00     0.002 C 
HETATM   31  C   UNL     1       9.015  32.325  60.353  1.00  0.00     0.026 C 
ENDBRANCH   5  27
TORSDOF 4
ENDMDL
MODEL 4
REMARK VINA RESULT:      -9.8      5.243      7.598
REMARK  4 active torsions:
REMARK  status: ('A' for Active; 'I' for Inactive)
REMARK    1  A    between atoms: C_5  and  N_6 
REMARK       I    between atoms: N_6  and  C_7 
REMARK    2  A    between atoms: C_7  and  C_8 
REMARK    3  A    between atoms: N_12  and  C_13 
REMARK    4  A    between atoms: C_24  and  O_25 
ROOT
HETATM    1  C   UNL     1       7.797  27.503  56.490  1.00  0.00     0.034 A 
HETATM    2  C   UNL     1       8.174  26.579  57.470  1.00  0.00     0.049 A 
HETATM    3  C   UNL     1       8.164  25.247  57.107  1.00  0.00     0.064 A 
HETATM    4  C   UNL     1       7.818  24.787  55.831  1.00  0.00     0.066 A 
HETATM    5  N   UNL     1       7.937  23.380  55.843  1.00  0.00    -0.293 N 
HETATM    6  C   UNL     1       8.280  22.984  57.166  1.00  0.00     0.328 A 
HETATM    7  O   UNL     1       8.394  21.854  57.611  1.00  0.00    -0.247 OA
HETATM    8  N   UNL     1       8.457  24.155  57.907  1.00  0.00    -0.306 N 
HETATM    9  C   UNL     1       7.446  25.691  54.860  1.00  0.00     0.033 A 
HETATM   10  C   UNL     1       7.443  27.055  55.195  1.00  0.00     0.019 A 
HETATM   11  H   UNL     1       8.704  24.152  58.883  1.00  0.00     0.171 HD
ENDROOT
BRANCH   1  12
HETATM   12  C   UNL     1       7.778  28.972  56.746  1.00  0.00     0.252 C 
HETATM   13  N   UNL     1       7.799  29.379  58.058  1.00  0.00    -0.346 N 
HETATM   14  H   UNL     1       7.819  28.720  58.822  1.00  0.00     0.163 HD
HETATM   15  O   UNL     1       7.756  29.762  55.810  1.00  0.00    -0.268 OA
BRANCH  13  16
HETATM   16  C   UNL     1       7.817  30.787  58.410  1.00  0.00     0.147 C 
HETATM   17  C   UNL     1       6.449  31.303  58.767  1.00  0.00    -0.027 A 
HETATM   18  C   UNL     1       6.505  32.121  59.901  1.00  0.00    -0.047 A 
HETATM   19  C   UNL     1       5.251  31.105  58.094  1.00  0.00     0.010 A 
HETATM   20  C   UNL     1       5.367  32.738  60.396  1.00  0.00     0.008 A 
HETATM   21  C   UNL     1       7.910  32.258  60.409  1.00  0.00     0.073 C 
HETATM   22  C   UNL     1       4.154  32.521  59.738  1.00  0.00     0.001 A 
HETATM   23  C   UNL     1       4.098  31.713  58.593  1.00  0.00     0.001 A 
HETATM   24  C   UNL     1       8.620  31.082  59.715  1.00  0.00     0.149 C 
BRANCH  24  25
HETATM   25  O   UNL     1       8.618  29.952  60.607  1.00  0.00    -0.393 OA
HETATM   26  H   UNL     1       8.054  29.286  60.177  1.00  0.00     0.210 HD
ENDBRANCH  24  25
ENDBRANCH  13  16
ENDBRANCH   1  12
BRANCH   5  27
HETATM   27  C   UNL     1       7.574  22.407  54.834  1.00  0.00     0.095 C 
HETATM   28  C   UNL     1       8.146  22.559  53.425  1.00  0.00     0.026 C 
HETATM   29  C   UNL     1       7.900  21.194  52.800  1.00  0.00     0.002 C 
HETATM   30  C   UNL     1       8.263  20.224  53.910  1.00  0.00     0.002 C 
HETATM   31  C   UNL     1       7.987  20.970  55.217  1.00  0.00     0.026 C 
ENDBRANCH   5  27
TORSDOF 4
ENDMDL
MODEL 5
REMARK VINA RESULT:      -9.8      5.819      9.144
REMARK  4 active torsions:
REMARK  status: ('A' for Active; 'I' for Inactive)
REMARK    1  A    between atoms: C_5  and  N_6 
REMARK       I    between atoms: N_6  and  C_7 
REMARK    2  A    between atoms: C_7  and  C_8 
REMARK    3  A    between atoms: N_12  and  C_13 
REMARK    4  A    between atoms: C_24  and  O_25 
ROOT
HETATM    1  C   UNL     1       8.221  28.739  57.221  1.00  0.00     0.034 A 
HETATM    2  C   UNL     1       8.275  27.464  57.794  1.00  0.00     0.049 A 
HETATM    3  C   UNL     1       7.886  26.406  56.998  1.00  0.00     0.064 A 
HETATM    4  C   UNL     1       7.466  26.541  55.669  1.00  0.00     0.066 A 
HETATM    5  N   UNL     1       7.165  25.247  55.188  1.00  0.00    -0.293 N 
HETATM    6  C   UNL     1       7.329  24.334  56.266  1.00  0.00     0.328 A 
HETATM    7  O   UNL     1       7.090  23.138  56.286  1.00  0.00    -0.247 OA
HETATM    8  N   UNL     1       7.816  25.068  57.350  1.00  0.00    -0.306 N 
HETATM    9  C   UNL     1       7.411  27.793  55.097  1.00  0.00     0.033 A 
HETATM   10  C   UNL     1       7.798  28.893  55.880  1.00  0.00     0.019 A 
HETATM   11  H   UNL     1       8.017  24.654  58.245  1.00  0.00     0.171 HD
ENDROOT
BRANCH   1  12
HETATM   12  C   UNL     1       8.627  29.965  57.966  1.00  0.00     0.252 C 
HETATM   13  N   UNL     1       7.878  30.303  59.069  1.00  0.00    -0.346 N 
HETATM   14  H   UNL     1       7.084  29.755  59.364  1.00  0.00     0.163 HD
HETATM   15  O   UNL     1       9.594  30.621  57.599  1.00  0.00    -0.268 OA
BRANCH  13  16
HETATM   16  C   UNL     1       8.212  31.459  59.881  1.00  0.00     0.147 C 
HETATM   17  C   UNL     1       6.997  32.080  60.515  1.00  0.00    -0.027 A 
HETATM   18  C   UNL     1       7.247  32.412  61.851  1.00  0.00    -0.047 A 
HETATM   19  C   UNL     1       5.776  32.380  59.926  1.00  0.00     0.010 A 
HETATM   20  C   UNL     1       6.279  33.029  62.628  1.00  0.00     0.008 A 
HETATM   21  C   UNL     1       8.654  32.072  62.246  1.00  0.00     0.073 C 
HETATM   22  C   UNL     1       5.040  33.310  62.049  1.00  0.00     0.001 A 
HETATM   23  C   UNL     1       4.792  32.991  60.705  1.00  0.00     0.001 A 
HETATM   24  C   UNL     1       9.076  31.102  61.129  1.00  0.00     0.149 C 
BRANCH  24  25
HETATM   25  O   UNL     1       8.836  29.755  61.574  1.00  0.00    -0.393 OA
HETATM   26  H   UNL     1       8.821  29.803  62.546  1.00  0.00     0.210 HD
ENDBRANCH  24  25
ENDBRANCH  13  16
ENDBRANCH   1  12
BRANCH   5  27
HETATM   27  C   UNL     1       6.567  24.837  53.935  1.00  0.00     0.095 C 
HETATM   28  C   UNL     1       5.152  25.308  53.604  1.00  0.00     0.026 C 
HETATM   29  C   UNL     1       5.038  25.049  52.110  1.00  0.00     0.002 C 
HETATM   30  C   UNL     1       6.379  25.509  51.567  1.00  0.00     0.002 C 
HETATM   31  C   UNL     1       7.378  25.307  52.707  1.00  0.00     0.026 C 
ENDBRANCH   5  27
TORSDOF 4
ENDMDL
MODEL 6
REMARK VINA RESULT:      -9.5      6.233      9.562
REMARK  4 active torsions:
REMARK  status: ('A' for Active; 'I' for Inactive)
REMARK    1  A    between atoms: C_5  and  N_6 
REMARK       I    between atoms: N_6  and  C_7 
REMARK    2  A    between atoms: C_7  and  C_8 
REMARK    3  A    between atoms: N_12  and  C_13 
REMARK    4  A    between atoms: C_24  and  O_25 
ROOT
HETATM    1  C   UNL     1       7.376  29.793  57.297  1.00  0.00     0.034 A 
HETATM    2  C   UNL     1       6.293  30.662  57.130  1.00  0.00     0.049 A 
HETATM    3  C   UNL     1       6.041  31.548  58.157  1.00  0.00     0.064 A 
HETATM    4  C   UNL     1       6.810  31.631  59.325  1.00  0.00     0.066 A 
HETATM    5  N   UNL     1       6.255  32.654  60.125  1.00  0.00    -0.293 N 
HETATM    6  C   UNL     1       5.090  33.137  59.466  1.00  0.00     0.328 A 
HETATM    7  O   UNL     1       4.284  33.960  59.864  1.00  0.00    -0.247 OA
HETATM    8  N   UNL     1       5.011  32.471  58.240  1.00  0.00    -0.306 N 
HETATM    9  C   UNL     1       7.879  30.779  59.496  1.00  0.00     0.033 A 
HETATM   10  C   UNL     1       8.163  29.862  58.471  1.00  0.00     0.019 A 
HETATM   11  H   UNL     1       4.271  32.631  57.578  1.00  0.00     0.171 HD
ENDROOT
BRANCH   1  12
HETATM   12  C   UNL     1       7.765  28.796  56.258  1.00  0.00     0.252 C 
HETATM   13  N   UNL     1       6.959  27.691  56.118  1.00  0.00    -0.346 N 
HETATM   14  H   UNL     1       6.143  27.550  56.694  1.00  0.00     0.163 HD
HETATM   15  O   UNL     1       8.758  28.980  55.565  1.00  0.00    -0.268 OA
BRANCH  13  16
HETATM   16  C   UNL     1       7.234  26.681  55.113  1.00  0.00     0.147 C 
HETATM   17  C   UNL     1       7.634  25.364  55.723  1.00  0.00    -0.027 A 
HETATM   18  C   UNL     1       6.997  24.300  55.075  1.00  0.00    -0.047 A 
HETATM   19  C   UNL     1       8.545  25.129  56.744  1.00  0.00     0.010 A 
HETATM   20  C   UNL     1       7.240  22.987  55.446  1.00  0.00     0.008 A 
HETATM   21  C   UNL     1       6.125  24.785  53.954  1.00  0.00     0.073 C 
HETATM   22  C   UNL     1       8.136  22.746  56.489  1.00  0.00     0.001 A 
HETATM   23  C   UNL     1       8.787  23.810  57.131  1.00  0.00     0.001 A 
HETATM   24  C   UNL     1       5.972  26.279  54.288  1.00  0.00     0.149 C 
BRANCH  24  25
HETATM   25  O   UNL     1       4.762  26.461  55.044  1.00  0.00    -0.393 OA
HETATM   26  H   UNL     1       4.038  26.342  54.405  1.00  0.00     0.210 HD
ENDBRANCH  24  25
ENDBRANCH  13  16
ENDBRANCH   1  12
BRANCH   5  27
HETATM   27  C   UNL     1       6.579  33.056  61.477  1.00  0.00     0.095 C 
HETATM   28  C   UNL     1       5.792  32.446  62.636  1.00  0.00     0.026 C 
HETATM   29  C   UNL     1       6.653  32.764  63.848  1.00  0.00     0.002 C 
HETATM   30  C   UNL     1       8.065  32.485  63.364  1.00  0.00     0.002 C 
HETATM   31  C   UNL     1       8.043  32.741  61.857  1.00  0.00     0.026 C 
ENDBRANCH   5  27
TORSDOF 4
ENDMDL
MODEL 7
REMARK VINA RESULT:      -9.3      1.843      2.594
REMARK  4 active torsions:
REMARK  status: ('A' for Active; 'I' for Inactive)
REMARK    1  A    between atoms: C_5  and  N_6 
REMARK       I    between atoms: N_6  and  C_7 
REMARK    2  A    between atoms: C_7  and  C_8 
REMARK    3  A    between atoms: N_12  and  C_13 
REMARK    4  A    between atoms: C_24  and  O_25 
ROOT
HETATM    1  C   UNL     1       5.243  26.675  53.392  1.00  0.00     0.034 A 
HETATM    2  C   UNL     1       5.950  26.886  54.580  1.00  0.00     0.049 A 
HETATM    3  C   UNL     1       6.809  25.884  54.981  1.00  0.00     0.064 A 
HETATM    4  C   UNL     1       7.018  24.700  54.265  1.00  0.00     0.066 A 
HETATM    5  N   UNL     1       7.968  23.936  54.979  1.00  0.00    -0.293 N 
HETATM    6  C   UNL     1       8.271  24.633  56.181  1.00  0.00     0.328 A 
HETATM    7  O   UNL     1       8.981  24.273  57.105  1.00  0.00    -0.247 OA
HETATM    8  N   UNL     1       7.580  25.846  56.132  1.00  0.00    -0.306 N 
HETATM    9  C   UNL     1       6.327  24.484  53.092  1.00  0.00     0.033 A 
HETATM   10  C   UNL     1       5.441  25.482  52.655  1.00  0.00     0.019 A 
HETATM   11  H   UNL     1       7.624  26.531  56.869  1.00  0.00     0.171 HD
ENDROOT
BRANCH   1  12
HETATM   12  C   UNL     1       4.293  27.682  52.839  1.00  0.00     0.252 C 
HETATM   13  N   UNL     1       4.543  28.146  51.570  1.00  0.00    -0.346 N 
HETATM   14  H   UNL     1       5.336  27.830  51.031  1.00  0.00     0.163 HD
HETATM   15  O   UNL     1       3.334  28.056  53.501  1.00  0.00    -0.268 OA
BRANCH  13  16
HETATM   16  C   UNL     1       3.659  29.103  50.929  1.00  0.00     0.147 C 
HETATM   17  C   UNL     1       4.409  30.093  50.080  1.00  0.00    -0.027 A 
HETATM   18  C   UNL     1       3.759  30.296  48.858  1.00  0.00    -0.047 A 
HETATM   19  C   UNL     1       5.558  30.805  50.398  1.00  0.00     0.010 A 
HETATM   20  C   UNL     1       4.251  31.195  47.925  1.00  0.00     0.008 A 
HETATM   21  C   UNL     1       2.499  29.486  48.767  1.00  0.00     0.073 C 
HETATM   22  C   UNL     1       5.420  31.894  48.229  1.00  0.00     0.001 A 
HETATM   23  C   UNL     1       6.067  31.704  49.459  1.00  0.00     0.001 A 
HETATM   24  C   UNL     1       2.702  28.449  49.885  1.00  0.00     0.149 C 
BRANCH  24  25
HETATM   25  O   UNL     1       3.273  27.259  49.312  1.00  0.00    -0.393 OA
HETATM   26  H   UNL     1       3.262  27.406  48.350  1.00  0.00     0.210 HD
ENDBRANCH  24  25
ENDBRANCH  13  16
ENDBRANCH   1  12
BRANCH   5  27
HETATM   27  C   UNL     1       8.434  22.584  54.752  1.00  0.00     0.095 C 
HETATM   28  C   UNL     1       7.710  21.429  55.442  1.00  0.00     0.026 C 
HETATM   29  C   UNL     1       8.184  20.208  54.669  1.00  0.00     0.002 C 
HETATM   30  C   UNL     1       8.148  20.668  53.222  1.00  0.00     0.002 C 
HETATM   31  C   UNL     1       8.380  22.179  53.263  1.00  0.00     0.026 C 
ENDBRANCH   5  27
TORSDOF 4
ENDMDL
MODEL 8
REMARK VINA RESULT:      -9.2      2.638      8.943
REMARK  4 active torsions:
REMARK  status: ('A' for Active; 'I' for Inactive)
REMARK    1  A    between atoms: C_5  and  N_6 
REMARK       I    between atoms: N_6  and  C_7 
REMARK    2  A    between atoms: C_7  and  C_8 
REMARK    3  A    between atoms: N_12  and  C_13 
REMARK    4  A    between atoms: C_24  and  O_25 
ROOT
HETATM    1  C   UNL     1       5.150  26.727  52.010  1.00  0.00     0.034 A 
HETATM    2  C   UNL     1       5.168  26.502  50.629  1.00  0.00     0.049 A 
HETATM    3  C   UNL     1       5.138  27.617  49.816  1.00  0.00     0.064 A 
HETATM    4  C   UNL     1       5.109  28.932  50.294  1.00  0.00     0.066 A 
HETATM    5  N   UNL     1       5.097  29.789  49.171  1.00  0.00    -0.293 N 
HETATM    6  C   UNL     1       5.036  28.977  48.005  1.00  0.00     0.328 A 
HETATM    7  O   UNL     1       4.927  29.330  46.843  1.00  0.00    -0.247 OA
HETATM    8  N   UNL     1       5.109  27.648  48.431  1.00  0.00    -0.306 N 
HETATM    9  C   UNL     1       5.092  29.163  51.652  1.00  0.00     0.033 A 
HETATM   10  C   UNL     1       5.119  28.051  52.510  1.00  0.00     0.019 A 
HETATM   11  H   UNL     1       5.084  26.868  47.797  1.00  0.00     0.171 HD
ENDROOT
BRANCH   1  12
HETATM   12  C   UNL     1       5.192  25.612  52.999  1.00  0.00     0.252 C 
HETATM   13  N   UNL     1       6.224  25.620  53.907  1.00  0.00    -0.346 N 
HETATM   14  H   UNL     1       6.930  26.341  53.906  1.00  0.00     0.163 HD
HETATM   15  O   UNL     1       4.328  24.744  52.991  1.00  0.00    -0.268 OA
BRANCH  13  16
HETATM   16  C   UNL     1       6.335  24.598  54.931  1.00  0.00     0.147 C 
HETATM   17  C   UNL     1       7.295  23.506  54.545  1.00  0.00    -0.027 A 
HETATM   18  C   UNL     1       8.115  23.158  55.625  1.00  0.00    -0.047 A 
HETATM   19  C   UNL     1       7.390  22.830  53.336  1.00  0.00     0.010 A 
HETATM   20  C   UNL     1       9.057  22.147  55.512  1.00  0.00     0.008 A 
HETATM   21  C   UNL     1       7.779  23.959  56.848  1.00  0.00     0.073 C 
HETATM   22  C   UNL     1       9.175  21.482  54.290  1.00  0.00     0.001 A 
HETATM   23  C   UNL     1       8.345  21.819  53.211  1.00  0.00     0.001 A 
HETATM   24  C   UNL     1       6.968  25.125  56.256  1.00  0.00     0.149 C 
BRANCH  24  25
HETATM   25  O   UNL     1       7.857  26.231  56.018  1.00  0.00    -0.393 OA
HETATM   26  H   UNL     1       7.289  26.954  55.699  1.00  0.00     0.210 HD
ENDBRANCH  24  25
ENDBRANCH  13  16
ENDBRANCH   1  12
BRANCH   5  27
HETATM   27  C   UNL     1       4.934  31.226  49.100  1.00  0.00     0.095 C 
HETATM   28  C   UNL     1       3.716  31.863  49.767  1.00  0.00     0.026 C 
HETATM   29  C   UNL     1       4.092  33.335  49.847  1.00  0.00     0.002 C 
HETATM   30  C   UNL     1       5.548  33.306  50.279  1.00  0.00     0.002 C 
HETATM   31  C   UNL     1       6.112  31.991  49.740  1.00  0.00     0.026 C 
ENDBRANCH   5  27
TORSDOF 4
ENDMDL
MODEL 9
REMARK VINA RESULT:      -8.9      5.257      7.176
REMARK  4 active torsions:
REMARK  status: ('A' for Active; 'I' for Inactive)
REMARK    1  A    between atoms: C_5  and  N_6 
REMARK       I    between atoms: N_6  and  C_7 
REMARK    2  A    between atoms: C_7  and  C_8 
REMARK    3  A    between atoms: N_12  and  C_13 
REMARK    4  A    between atoms: C_24  and  O_25 
ROOT
HETATM    1  C   UNL     1       6.270  28.480  56.670  1.00  0.00     0.034 A 
HETATM    2  C   UNL     1       5.323  28.258  55.666  1.00  0.00     0.049 A 
HETATM    3  C   UNL     1       5.380  27.045  55.011  1.00  0.00     0.064 A 
HETATM    4  C   UNL     1       6.308  26.040  55.308  1.00  0.00     0.066 A 
HETATM    5  N   UNL     1       6.046  24.954  54.443  1.00  0.00    -0.293 N 
HETATM    6  C   UNL     1       5.001  25.344  53.560  1.00  0.00     0.328 A 
HETATM    7  O   UNL     1       4.540  24.726  52.616  1.00  0.00    -0.247 OA
HETATM    8  N   UNL     1       4.582  26.614  53.963  1.00  0.00    -0.306 N 
HETATM    9  C   UNL     1       7.245  26.249  56.297  1.00  0.00     0.033 A 
HETATM   10  C   UNL     1       7.217  27.474  56.983  1.00  0.00     0.019 A 
HETATM   11  H   UNL     1       3.848  27.122  53.498  1.00  0.00     0.171 HD
ENDROOT
BRANCH   1  12
HETATM   12  C   UNL     1       6.311  29.741  57.464  1.00  0.00     0.252 C 
HETATM   13  N   UNL     1       5.105  30.312  57.793  1.00  0.00    -0.346 N 
HETATM   14  H   UNL     1       4.226  29.905  57.509  1.00  0.00     0.163 HD
HETATM   15  O   UNL     1       7.384  30.223  57.805  1.00  0.00    -0.268 OA
BRANCH  13  16
HETATM   16  C   UNL     1       5.036  31.521  58.592  1.00  0.00     0.147 C 
HETATM   17  C   UNL     1       4.558  32.705  57.795  1.00  0.00    -0.027 A 
HETATM   18  C   UNL     1       3.628  33.454  58.524  1.00  0.00    -0.047 A 
HETATM   19  C   UNL     1       4.967  33.116  56.533  1.00  0.00     0.010 A 
HETATM   20  C   UNL     1       3.074  34.612  58.001  1.00  0.00     0.008 A 
HETATM   21  C   UNL     1       3.401  32.869  59.887  1.00  0.00     0.073 C 
HETATM   22  C   UNL     1       3.462  35.016  56.722  1.00  0.00     0.001 A 
HETATM   23  C   UNL     1       4.405  34.275  55.995  1.00  0.00     0.001 A 
HETATM   24  C   UNL     1       3.968  31.448  59.726  1.00  0.00     0.149 C 
BRANCH  24  25
HETATM   25  O   UNL     1       2.889  30.559  59.383  1.00  0.00    -0.393 OA
HETATM   26  H   UNL     1       3.103  30.225  58.494  1.00  0.00     0.210 HD
ENDBRANCH  24  25
ENDBRANCH  13  16
ENDBRANCH   1  12
BRANCH   5  27
HETATM   27  C   UNL     1       6.788  23.727  54.240  1.00  0.00     0.095 C 
HETATM   28  C   UNL     1       8.008  23.747  53.320  1.00  0.00     0.026 C 
HETATM   29  C   UNL     1       8.733  22.458  53.674  1.00  0.00     0.002 C 
HETATM   30  C   UNL     1       8.644  22.406  55.189  1.00  0.00     0.002 C 
HETATM   31  C   UNL     1       7.361  23.154  55.554  1.00  0.00     0.026 C 
ENDBRANCH   5  27
TORSDOF 4
ENDMDL
MODEL 10
REMARK VINA RESULT:      -8.9      2.547      8.969
REMARK  4 active torsions:
REMARK  status: ('A' for Active; 'I' for Inactive)
REMARK    1  A    between atoms: C_5  and  N_6 
REMARK       I    between atoms: N_6  and  C_7 
REMARK    2  A    between atoms: C_7  and  C_8 
REMARK    3  A    between atoms: N_12  and  C_13 
REMARK    4  A    between atoms: C_24  and  O_25 
ROOT
HETATM    1  C   UNL     1       4.303  28.029  52.634  1.00  0.00     0.034 A 
HETATM    2  C   UNL     1       5.062  27.313  51.704  1.00  0.00     0.049 A 
HETATM    3  C   UNL     1       4.702  27.437  50.377  1.00  0.00     0.064 A 
HETATM    4  C   UNL     1       3.650  28.241  49.925  1.00  0.00     0.066 A 
HETATM    5  N   UNL     1       3.599  28.119  48.519  1.00  0.00    -0.293 N 
HETATM    6  C   UNL     1       4.581  27.167  48.130  1.00  0.00     0.328 A 
HETATM    7  O   UNL     1       4.801  26.720  47.017  1.00  0.00    -0.247 OA
HETATM    8  N   UNL     1       5.272  26.801  49.287  1.00  0.00    -0.306 N 
HETATM    9  C   UNL     1       2.897  28.952  50.835  1.00  0.00     0.033 A 
HETATM   10  C   UNL     1       3.234  28.847  52.195  1.00  0.00     0.019 A 
HETATM   11  H   UNL     1       6.024  26.131  49.286  1.00  0.00     0.171 HD
ENDROOT
BRANCH   1  12
HETATM   12  C   UNL     1       4.593  27.994  54.096  1.00  0.00     0.252 C 
HETATM   13  N   UNL     1       5.688  27.269  54.499  1.00  0.00    -0.346 N 
HETATM   14  H   UNL     1       6.272  26.773  53.842  1.00  0.00     0.163 HD
HETATM   15  O   UNL     1       3.878  28.602  54.884  1.00  0.00    -0.268 OA
BRANCH  13  16
HETATM   16  C   UNL     1       6.075  27.200  55.897  1.00  0.00     0.147 C 
HETATM   17  C   UNL     1       6.869  25.960  56.208  1.00  0.00    -0.027 A 
HETATM   18  C   UNL     1       7.959  26.260  57.033  1.00  0.00    -0.047 A 
HETATM   19  C   UNL     1       6.604  24.650  55.832  1.00  0.00     0.010 A 
HETATM   20  C   UNL     1       8.815  25.266  57.478  1.00  0.00     0.008 A 
HETATM   21  C   UNL     1       7.999  27.721  57.378  1.00  0.00     0.073 C 
HETATM   22  C   UNL     1       8.569  23.950  57.081  1.00  0.00     0.001 A 
HETATM   23  C   UNL     1       7.469  23.644  56.267  1.00  0.00     0.001 A 
HETATM   24  C   UNL     1       7.068  28.328  56.314  1.00  0.00     0.149 C 
BRANCH  24  25
HETATM   25  O   UNL     1       7.866  28.772  55.202  1.00  0.00    -0.393 OA
HETATM   26  H   UNL     1       7.458  29.605  54.908  1.00  0.00     0.210 HD
ENDBRANCH  24  25
ENDBRANCH  13  16
ENDBRANCH   1  12
BRANCH   5  27
HETATM   27  C   UNL     1       2.625  28.629  47.576  1.00  0.00     0.095 C 
HETATM   28  C   UNL     1       1.172  28.173  47.699  1.00  0.00     0.026 C 
HETATM   29  C   UNL     1       0.416  29.190  46.858  1.00  0.00     0.002 C 
HETATM   30  C   UNL     1       1.067  30.512  47.228  1.00  0.00     0.002 C 
HETATM   31  C   UNL     1       2.505  30.168  47.619  1.00  0.00     0.026 C 
ENDBRANCH   5  27
TORSDOF 4
ENDMDL
