MODEL 1
REMARK VINA RESULT:      -9.1      0.000      0.000
REMARK  3 active torsions:
REMARK  status: ('A' for Active; 'I' for Inactive)
REMARK       I    between atoms: C_2  and  N_3 
REMARK    1  A    between atoms: N_3  and  N_4 
REMARK       I    between atoms: N_4  and  C_5 
REMARK    2  A    between atoms: C_5  and  C_6 
REMARK    3  A    between atoms: C_11  and  C_12 
ROOT
HETATM    1  C   UNL     1       6.746  24.944  56.233  1.00  0.00     0.115 A 
HETATM    2  N   UNL     1       7.349  23.995  57.035  1.00  0.00    -0.350 N 
HETATM    3  H   UNL     1       7.485  24.092  58.032  1.00  0.00     0.166 HD
HETATM    4  C   UNL     1       7.796  22.924  56.302  1.00  0.00     0.044 A 
HETATM    5  C   UNL     1       7.486  23.186  54.970  1.00  0.00     0.006 A 
HETATM    6  C   UNL     1       6.837  24.465  54.928  1.00  0.00     0.019 A 
HETATM    7  C   UNL     1       8.450  21.758  56.719  1.00  0.00     0.032 A 
HETATM    8  C   UNL     1       8.793  20.824  55.737  1.00  0.00     0.026 A 
HETATM    9  C   UNL     1       8.487  21.056  54.398  1.00  0.00     0.035 A 
HETATM   10 CL   UNL     1       8.923  19.883  53.215  1.00  0.00    -0.084 Cl
HETATM   11  C   UNL     1       7.835  22.225  53.998  1.00  0.00     0.038 A 
ENDROOT
BRANCH   1  12
HETATM   12  C   UNL     1       6.213  26.193  56.742  1.00  0.00     0.287 C 
HETATM   13  N   UNL     1       4.865  26.383  56.478  1.00  0.00    -0.262 N 
HETATM   14  H   UNL     1       4.401  25.892  55.716  1.00  0.00     0.190 HD
HETATM   15  O   UNL     1       6.859  27.042  57.352  1.00  0.00    -0.264 OA
BRANCH  13  16
HETATM   16  N   UNL     1       4.299  27.626  56.808  1.00  0.00    -0.268 N 
HETATM   17  C   UNL     1       4.112  28.526  55.782  1.00  0.00     0.232 C 
HETATM   18  C   UNL     1       3.642  29.885  56.219  1.00  0.00     0.119 C 
HETATM   19  O   UNL     1       4.291  28.230  54.602  1.00  0.00    -0.272 OA
HETATM   20  H   UNL     1       4.393  27.912  57.784  1.00  0.00     0.190 HD
ENDBRANCH  13  16
ENDBRANCH   1  12
BRANCH   6  21
HETATM   21  C   UNL     1       6.340  25.164  53.751  1.00  0.00    -0.023 A 
HETATM   22  C   UNL     1       5.235  24.681  53.041  1.00  0.00     0.012 A 
HETATM   23  C   UNL     1       4.791  25.343  51.894  1.00  0.00     0.001 A 
HETATM   24  C   UNL     1       5.455  26.485  51.446  1.00  0.00     0.000 A 
HETATM   25  C   UNL     1       6.559  26.969  52.144  1.00  0.00     0.001 A 
HETATM   26  C   UNL     1       7.002  26.310  53.293  1.00  0.00     0.012 A 
ENDBRANCH   6  21
TORSDOF 3
ENDMDL
MODEL 2
REMARK VINA RESULT:      -8.8      2.938      4.469
REMARK  3 active torsions:
REMARK  status: ('A' for Active; 'I' for Inactive)
REMARK       I    between atoms: C_2  and  N_3 
REMARK    1  A    between atoms: N_3  and  N_4 
REMARK       I    between atoms: N_4  and  C_5 
REMARK    2  A    between atoms: C_5  and  C_6 
REMARK    3  A    between atoms: C_11  and  C_12 
ROOT
HETATM    1  C   UNL     1       6.869  25.097  52.917  1.00  0.00     0.115 A 
HETATM    2  N   UNL     1       7.223  23.905  52.317  1.00  0.00    -0.350 N 
HETATM    3  H   UNL     1       7.175  23.727  51.323  1.00  0.00     0.166 HD
HETATM    4  C   UNL     1       7.597  22.964  53.245  1.00  0.00     0.044 A 
HETATM    5  C   UNL     1       7.470  23.557  54.498  1.00  0.00     0.006 A 
HETATM    6  C   UNL     1       6.999  24.896  54.289  1.00  0.00     0.019 A 
HETATM    7  C   UNL     1       8.026  21.643  53.064  1.00  0.00     0.032 A 
HETATM    8  C   UNL     1       8.344  20.907  54.209  1.00  0.00     0.026 A 
HETATM    9  C   UNL     1       8.236  21.477  55.475  1.00  0.00     0.035 A 
HETATM   10 CL   UNL     1       8.637  20.541  56.863  1.00  0.00    -0.084 Cl
HETATM   11  C   UNL     1       7.804  22.796  55.638  1.00  0.00     0.038 A 
ENDROOT
BRANCH   1  12
HETATM   12  C   UNL     1       6.403  26.253  52.175  1.00  0.00     0.287 C 
HETATM   13  N   UNL     1       5.928  25.958  50.906  1.00  0.00    -0.262 N 
HETATM   14  H   UNL     1       6.207  25.107  50.421  1.00  0.00     0.190 HD
HETATM   15  O   UNL     1       6.414  27.411  52.588  1.00  0.00    -0.264 OA
BRANCH  13  16
HETATM   16  N   UNL     1       5.589  27.031  50.064  1.00  0.00    -0.268 N 
HETATM   17  C   UNL     1       4.610  26.808  49.122  1.00  0.00     0.232 C 
HETATM   18  C   UNL     1       4.397  27.941  48.159  1.00  0.00     0.119 C 
HETATM   19  O   UNL     1       3.947  25.772  49.089  1.00  0.00    -0.272 OA
HETATM   20  H   UNL     1       6.300  27.756  49.962  1.00  0.00     0.190 HD
ENDBRANCH  13  16
ENDBRANCH   1  12
BRANCH   6  21
HETATM   21  C   UNL     1       6.707  25.897  55.305  1.00  0.00    -0.023 A 
HETATM   22  C   UNL     1       5.401  26.095  55.766  1.00  0.00     0.012 A 
HETATM   23  C   UNL     1       5.132  27.083  56.717  1.00  0.00     0.001 A 
HETATM   24  C   UNL     1       6.164  27.884  57.204  1.00  0.00     0.000 A 
HETATM   25  C   UNL     1       7.467  27.698  56.745  1.00  0.00     0.001 A 
HETATM   26  C   UNL     1       7.738  26.708  55.798  1.00  0.00     0.012 A 
ENDBRANCH   6  21
TORSDOF 3
ENDMDL
MODEL 3
REMARK VINA RESULT:      -8.8      1.816      2.398
REMARK  3 active torsions:
REMARK  status: ('A' for Active; 'I' for Inactive)
REMARK       I    between atoms: C_2  and  N_3 
REMARK    1  A    between atoms: N_3  and  N_4 
REMARK       I    between atoms: N_4  and  C_5 
REMARK    2  A    between atoms: C_5  and  C_6 
REMARK    3  A    between atoms: C_11  and  C_12 
ROOT
HETATM    1  C   UNL     1       7.019  24.989  56.317  1.00  0.00     0.115 A 
HETATM    2  N   UNL     1       7.601  23.964  57.036  1.00  0.00    -0.350 N 
HETATM    3  H   UNL     1       7.806  24.003  58.026  1.00  0.00     0.166 HD
HETATM    4  C   UNL     1       7.923  22.900  56.230  1.00  0.00     0.044 A 
HETATM    5  C   UNL     1       7.550  23.246  54.934  1.00  0.00     0.006 A 
HETATM    6  C   UNL     1       6.993  24.567  54.990  1.00  0.00     0.019 A 
HETATM    7  C   UNL     1       8.517  21.674  56.553  1.00  0.00     0.032 A 
HETATM    8  C   UNL     1       8.730  20.767  55.510  1.00  0.00     0.026 A 
HETATM    9  C   UNL     1       8.359  21.082  54.206  1.00  0.00     0.035 A 
HETATM   10 CL   UNL     1       8.634  19.940  52.947  1.00  0.00    -0.084 Cl
HETATM   11  C   UNL     1       7.768  22.311  53.900  1.00  0.00     0.038 A 
ENDROOT
BRANCH   1  12
HETATM   12  C   UNL     1       6.609  26.246  56.914  1.00  0.00     0.287 C 
HETATM   13  N   UNL     1       7.663  27.055  57.310  1.00  0.00    -0.262 N 
HETATM   14  H   UNL     1       8.586  26.668  57.496  1.00  0.00     0.190 HD
HETATM   15  O   UNL     1       5.445  26.603  57.082  1.00  0.00    -0.264 OA
BRANCH  13  16
HETATM   16  N   UNL     1       7.360  28.226  58.026  1.00  0.00    -0.268 N 
HETATM   17  C   UNL     1       8.331  29.201  58.078  1.00  0.00     0.232 C 
HETATM   18  C   UNL     1       8.007  30.361  58.977  1.00  0.00     0.119 C 
HETATM   19  O   UNL     1       9.369  29.137  57.421  1.00  0.00    -0.272 OA
HETATM   20  H   UNL     1       6.626  28.139  58.729  1.00  0.00     0.190 HD
ENDBRANCH  13  16
ENDBRANCH   1  12
BRANCH   6  21
HETATM   21  C   UNL     1       6.475  25.354  53.880  1.00  0.00    -0.023 A 
HETATM   22  C   UNL     1       6.970  26.636  53.613  1.00  0.00     0.012 A 
HETATM   23  C   UNL     1       6.439  27.392  52.565  1.00  0.00     0.001 A 
HETATM   24  C   UNL     1       5.404  26.876  51.786  1.00  0.00     0.000 A 
HETATM   25  C   UNL     1       4.901  25.603  52.049  1.00  0.00     0.001 A 
HETATM   26  C   UNL     1       5.434  24.844  53.093  1.00  0.00     0.012 A 
ENDBRANCH   6  21
TORSDOF 3
ENDMDL
MODEL 4
REMARK VINA RESULT:      -8.6      3.189      5.824
REMARK  3 active torsions:
REMARK  status: ('A' for Active; 'I' for Inactive)
REMARK       I    between atoms: C_2  and  N_3 
REMARK    1  A    between atoms: N_3  and  N_4 
REMARK       I    between atoms: N_4  and  C_5 
REMARK    2  A    between atoms: C_5  and  C_6 
REMARK    3  A    between atoms: C_11  and  C_12 
ROOT
HETATM    1  C   UNL     1       6.435  28.037  52.745  1.00  0.00     0.115 A 
HETATM    2  N   UNL     1       5.785  28.932  51.918  1.00  0.00    -0.350 N 
HETATM    3  H   UNL     1       5.759  29.932  52.066  1.00  0.00     0.166 HD
HETATM    4  C   UNL     1       5.128  28.291  50.898  1.00  0.00     0.044 A 
HETATM    5  C   UNL     1       5.343  26.927  51.070  1.00  0.00     0.006 A 
HETATM    6  C   UNL     1       6.157  26.769  52.241  1.00  0.00     0.019 A 
HETATM    7  C   UNL     1       4.361  28.818  49.851  1.00  0.00     0.032 A 
HETATM    8  C   UNL     1       3.801  27.913  48.944  1.00  0.00     0.026 A 
HETATM    9  C   UNL     1       4.008  26.544  49.085  1.00  0.00     0.035 A 
HETATM   10 CL   UNL     1       3.305  25.459  47.948  1.00  0.00    -0.084 Cl
HETATM   11  C   UNL     1       4.775  26.034  50.136  1.00  0.00     0.038 A 
ENDROOT
BRANCH   1  12
HETATM   12  C   UNL     1       7.182  28.439  53.922  1.00  0.00     0.287 C 
HETATM   13  N   UNL     1       6.427  29.114  54.869  1.00  0.00    -0.262 N 
HETATM   14  H   UNL     1       5.561  29.587  54.616  1.00  0.00     0.190 HD
HETATM   15  O   UNL     1       8.379  28.229  54.106  1.00  0.00    -0.264 OA
BRANCH  13  16
HETATM   16  N   UNL     1       7.097  29.665  55.974  1.00  0.00    -0.268 N 
HETATM   17  C   UNL     1       6.912  29.053  57.194  1.00  0.00     0.232 C 
HETATM   18  C   UNL     1       7.534  29.772  58.357  1.00  0.00     0.119 C 
HETATM   19  O   UNL     1       6.307  27.989  57.314  1.00  0.00    -0.272 OA
HETATM   20  H   UNL     1       7.373  30.644  55.883  1.00  0.00     0.190 HD
ENDBRANCH  13  16
ENDBRANCH   1  12
BRANCH   6  21
HETATM   21  C   UNL     1       6.632  25.522  52.824  1.00  0.00    -0.023 A 
HETATM   22  C   UNL     1       6.135  25.065  54.050  1.00  0.00     0.012 A 
HETATM   23  C   UNL     1       6.626  23.884  54.612  1.00  0.00     0.001 A 
HETATM   24  C   UNL     1       7.622  23.160  53.958  1.00  0.00     0.000 A 
HETATM   25  C   UNL     1       8.127  23.611  52.740  1.00  0.00     0.001 A 
HETATM   26  C   UNL     1       7.634  24.789  52.174  1.00  0.00     0.012 A 
ENDBRANCH   6  21
TORSDOF 3
ENDMDL
MODEL 5
REMARK VINA RESULT:      -8.3      3.539      6.048
REMARK  3 active torsions:
REMARK  status: ('A' for Active; 'I' for Inactive)
REMARK       I    between atoms: C_2  and  N_3 
REMARK    1  A    between atoms: N_3  and  N_4 
REMARK       I    between atoms: N_4  and  C_5 
REMARK    2  A    between atoms: C_5  and  C_6 
REMARK    3  A    between atoms: C_11  and  C_12 
ROOT
HETATM    1  C   UNL     1       7.806  25.441  56.245  1.00  0.00     0.115 A 
HETATM    2  N   UNL     1       8.137  26.203  57.349  1.00  0.00    -0.350 N 
HETATM    3  H   UNL     1       8.657  25.860  58.146  1.00  0.00     0.166 HD
HETATM    4  C   UNL     1       7.623  27.472  57.260  1.00  0.00     0.044 A 
HETATM    5  C   UNL     1       6.917  27.541  56.061  1.00  0.00     0.006 A 
HETATM    6  C   UNL     1       7.024  26.256  55.431  1.00  0.00     0.019 A 
HETATM    7  C   UNL     1       7.724  28.549  58.149  1.00  0.00     0.032 A 
HETATM    8  C   UNL     1       7.088  29.741  57.793  1.00  0.00     0.026 A 
HETATM    9  C   UNL     1       6.384  29.842  56.597  1.00  0.00     0.035 A 
HETATM   10 CL   UNL     1       5.613  31.327  56.190  1.00  0.00    -0.084 Cl
HETATM   11  C   UNL     1       6.290  28.758  55.720  1.00  0.00     0.038 A 
ENDROOT
BRANCH   1  12
HETATM   12  C   UNL     1       8.192  24.052  56.093  1.00  0.00     0.287 C 
HETATM   13  N   UNL     1       8.773  23.755  54.869  1.00  0.00    -0.262 N 
HETATM   14  H   UNL     1       8.615  24.343  54.053  1.00  0.00     0.190 HD
HETATM   15  O   UNL     1       8.034  23.176  56.941  1.00  0.00    -0.264 OA
BRANCH  13  16
HETATM   16  N   UNL     1       9.048  22.408  54.580  1.00  0.00    -0.268 N 
HETATM   17  C   UNL     1       8.326  21.822  53.564  1.00  0.00     0.232 C 
HETATM   18  C   UNL     1       8.559  20.347  53.400  1.00  0.00     0.119 C 
HETATM   19  O   UNL     1       7.571  22.462  52.834  1.00  0.00    -0.272 OA
HETATM   20  H   UNL     1       9.478  21.871  55.334  1.00  0.00     0.190 HD
ENDBRANCH  13  16
ENDBRANCH   1  12
BRANCH   6  21
HETATM   21  C   UNL     1       6.440  25.845  54.162  1.00  0.00    -0.023 A 
HETATM   22  C   UNL     1       7.078  26.134  52.950  1.00  0.00     0.012 A 
HETATM   23  C   UNL     1       6.488  25.763  51.739  1.00  0.00     0.001 A 
HETATM   24  C   UNL     1       5.255  25.112  51.732  1.00  0.00     0.000 A 
HETATM   25  C   UNL     1       4.610  24.827  52.934  1.00  0.00     0.001 A 
HETATM   26  C   UNL     1       5.201  25.193  54.146  1.00  0.00     0.012 A 
ENDBRANCH   6  21
TORSDOF 3
ENDMDL
MODEL 6
REMARK VINA RESULT:      -8.1      3.714      5.298
REMARK  3 active torsions:
REMARK  status: ('A' for Active; 'I' for Inactive)
REMARK       I    between atoms: C_2  and  N_3 
REMARK    1  A    between atoms: N_3  and  N_4 
REMARK       I    between atoms: N_4  and  C_5 
REMARK    2  A    between atoms: C_5  and  C_6 
REMARK    3  A    between atoms: C_11  and  C_12 
ROOT
HETATM    1  C   UNL     1       4.021  27.764  52.547  1.00  0.00     0.115 A 
HETATM    2  N   UNL     1       4.236  27.273  53.820  1.00  0.00    -0.350 N 
HETATM    3  H   UNL     1       3.816  27.652  54.658  1.00  0.00     0.166 HD
HETATM    4  C   UNL     1       5.139  26.239  53.817  1.00  0.00     0.044 A 
HETATM    5  C   UNL     1       5.540  26.054  52.497  1.00  0.00     0.006 A 
HETATM    6  C   UNL     1       4.844  27.024  51.701  1.00  0.00     0.019 A 
HETATM    7  C   UNL     1       5.628  25.469  54.879  1.00  0.00     0.032 A 
HETATM    8  C   UNL     1       6.555  24.467  54.576  1.00  0.00     0.026 A 
HETATM    9  C   UNL     1       6.968  24.254  53.264  1.00  0.00     0.035 A 
HETATM   10 CL   UNL     1       8.110  23.010  52.926  1.00  0.00    -0.084 Cl
HETATM   11  C   UNL     1       6.471  25.032  52.215  1.00  0.00     0.038 A 
ENDROOT
BRANCH   1  12
HETATM   12  C   UNL     1       3.138  28.879  52.263  1.00  0.00     0.287 C 
HETATM   13  N   UNL     1       2.109  28.578  51.384  1.00  0.00    -0.262 N 
HETATM   14  H   UNL     1       2.176  27.791  50.740  1.00  0.00     0.190 HD
HETATM   15  O   UNL     1       3.255  30.010  52.730  1.00  0.00    -0.264 OA
BRANCH  13  16
HETATM   16  N   UNL     1       1.292  29.632  50.942  1.00  0.00    -0.268 N 
HETATM   17  C   UNL     1       1.378  29.981  49.612  1.00  0.00     0.232 C 
HETATM   18  C   UNL     1       0.593  31.205  49.234  1.00  0.00     0.119 C 
HETATM   19  O   UNL     1       2.026  29.327  48.797  1.00  0.00    -0.272 OA
HETATM   20  H   UNL     1       0.973  30.279  51.664  1.00  0.00     0.190 HD
ENDBRANCH  13  16
ENDBRANCH   1  12
BRANCH   6  21
HETATM   21  C   UNL     1       4.948  27.223  50.262  1.00  0.00    -0.023 A 
HETATM   22  C   UNL     1       5.508  28.392  49.736  1.00  0.00     0.012 A 
HETATM   23  C   UNL     1       5.570  28.583  48.354  1.00  0.00     0.001 A 
HETATM   24  C   UNL     1       5.062  27.613  47.491  1.00  0.00     0.000 A 
HETATM   25  C   UNL     1       4.496  26.448  48.007  1.00  0.00     0.001 A 
HETATM   26  C   UNL     1       4.438  26.254  49.388  1.00  0.00     0.012 A 
ENDBRANCH   6  21
TORSDOF 3
ENDMDL
MODEL 7
REMARK VINA RESULT:      -7.8      1.806      2.812
REMARK  3 active torsions:
REMARK  status: ('A' for Active; 'I' for Inactive)
REMARK       I    between atoms: C_2  and  N_3 
REMARK    1  A    between atoms: N_3  and  N_4 
REMARK       I    between atoms: N_4  and  C_5 
REMARK    2  A    between atoms: C_5  and  C_6 
REMARK    3  A    between atoms: C_11  and  C_12 
ROOT
HETATM    1  C   UNL     1       5.781  26.779  54.640  1.00  0.00     0.115 A 
HETATM    2  N   UNL     1       6.268  25.990  55.665  1.00  0.00    -0.350 N 
HETATM    3  H   UNL     1       6.302  26.270  56.636  1.00  0.00     0.166 HD
HETATM    4  C   UNL     1       6.756  24.797  55.195  1.00  0.00     0.044 A 
HETATM    5  C   UNL     1       6.596  24.809  53.812  1.00  0.00     0.006 A 
HETATM    6  C   UNL     1       5.993  26.064  53.465  1.00  0.00     0.019 A 
HETATM    7  C   UNL     1       7.328  23.723  55.888  1.00  0.00     0.032 A 
HETATM    8  C   UNL     1       7.743  22.619  55.138  1.00  0.00     0.026 A 
HETATM    9  C   UNL     1       7.587  22.599  53.755  1.00  0.00     0.035 A 
HETATM   10 CL   UNL     1       8.108  21.222  52.862  1.00  0.00    -0.084 Cl
HETATM   11  C   UNL     1       7.015  23.680  53.077  1.00  0.00     0.038 A 
ENDROOT
BRANCH   1  12
HETATM   12  C   UNL     1       5.235  28.106  54.850  1.00  0.00     0.287 C 
HETATM   13  N   UNL     1       6.186  29.069  55.154  1.00  0.00    -0.262 N 
HETATM   14  H   UNL     1       7.093  28.813  55.541  1.00  0.00     0.190 HD
HETATM   15  O   UNL     1       4.044  28.400  54.781  1.00  0.00    -0.264 OA
BRANCH  13  16
HETATM   16  N   UNL     1       5.734  30.350  55.513  1.00  0.00    -0.268 N 
HETATM   17  C   UNL     1       5.874  30.722  56.832  1.00  0.00     0.232 C 
HETATM   18  C   UNL     1       5.241  32.039  57.182  1.00  0.00     0.119 C 
HETATM   19  O   UNL     1       6.489  30.040  57.649  1.00  0.00    -0.272 OA
HETATM   20  H   UNL     1       5.038  30.765  54.892  1.00  0.00     0.190 HD
ENDBRANCH  13  16
ENDBRANCH   1  12
BRANCH   6  21
HETATM   21  C   UNL     1       5.644  26.536  52.132  1.00  0.00    -0.023 A 
HETATM   22  C   UNL     1       5.846  27.872  51.766  1.00  0.00     0.012 A 
HETATM   23  C   UNL     1       5.474  28.317  50.495  1.00  0.00     0.001 A 
HETATM   24  C   UNL     1       4.889  27.434  49.589  1.00  0.00     0.000 A 
HETATM   25  C   UNL     1       4.679  26.104  49.947  1.00  0.00     0.001 A 
HETATM   26  C   UNL     1       5.054  25.656  51.216  1.00  0.00     0.012 A 
ENDBRANCH   6  21
TORSDOF 3
ENDMDL
MODEL 8
REMARK VINA RESULT:      -7.8      3.976      5.838
REMARK  3 active torsions:
REMARK  status: ('A' for Active; 'I' for Inactive)
REMARK       I    between atoms: C_2  and  N_3 
REMARK    1  A    between atoms: N_3  and  N_4 
REMARK       I    between atoms: N_4  and  C_5 
REMARK    2  A    between atoms: C_5  and  C_6 
REMARK    3  A    between atoms: C_11  and  C_12 
ROOT
HETATM    1  C   UNL     1       5.819  29.006  57.291  1.00  0.00     0.115 A 
HETATM    2  N   UNL     1       5.000  27.913  57.082  1.00  0.00    -0.350 N 
HETATM    3  H   UNL     1       3.991  27.954  57.045  1.00  0.00     0.166 HD
HETATM    4  C   UNL     1       5.723  26.751  56.988  1.00  0.00     0.044 A 
HETATM    5  C   UNL     1       7.063  27.091  57.154  1.00  0.00     0.006 A 
HETATM    6  C   UNL     1       7.119  28.511  57.357  1.00  0.00     0.019 A 
HETATM    7  C   UNL     1       5.290  25.436  56.777  1.00  0.00     0.032 A 
HETATM    8  C   UNL     1       6.265  24.436  56.727  1.00  0.00     0.026 A 
HETATM    9  C   UNL     1       7.613  24.748  56.880  1.00  0.00     0.035 A 
HETATM   10 CL   UNL     1       8.788  23.491  56.811  1.00  0.00    -0.084 Cl
HETATM   11  C   UNL     1       8.029  26.065  57.091  1.00  0.00     0.038 A 
ENDROOT
BRANCH   1  12
HETATM   12  C   UNL     1       5.316  30.356  57.459  1.00  0.00     0.287 C 
HETATM   13  N   UNL     1       4.517  30.528  58.580  1.00  0.00    -0.262 N 
HETATM   14  H   UNL     1       4.046  29.739  59.019  1.00  0.00     0.190 HD
HETATM   15  O   UNL     1       5.544  31.296  56.701  1.00  0.00    -0.264 OA
BRANCH  13  16
HETATM   16  N   UNL     1       3.872  31.764  58.744  1.00  0.00    -0.268 N 
HETATM   17  C   UNL     1       4.307  32.571  59.773  1.00  0.00     0.232 C 
HETATM   18  C   UNL     1       3.485  33.809  59.989  1.00  0.00     0.119 C 
HETATM   19  O   UNL     1       5.304  32.307  60.442  1.00  0.00    -0.272 OA
HETATM   20  H   UNL     1       2.933  31.832  58.349  1.00  0.00     0.190 HD
ENDBRANCH  13  16
ENDBRANCH   1  12
BRANCH   6  21
HETATM   21  C   UNL     1       8.305  29.323  57.586  1.00  0.00    -0.023 A 
HETATM   22  C   UNL     1       8.464  30.046  58.774  1.00  0.00     0.012 A 
HETATM   23  C   UNL     1       9.592  30.848  58.964  1.00  0.00     0.001 A 
HETATM   24  C   UNL     1      10.561  30.939  57.966  1.00  0.00     0.000 A 
HETATM   25  C   UNL     1      10.408  30.227  56.778  1.00  0.00     0.001 A 
HETATM   26  C   UNL     1       9.283  29.422  56.588  1.00  0.00     0.012 A 
ENDBRANCH   6  21
TORSDOF 3
ENDMDL
MODEL 9
REMARK VINA RESULT:      -7.8     10.080     12.558
REMARK  3 active torsions:
REMARK  status: ('A' for Active; 'I' for Inactive)
REMARK       I    between atoms: C_2  and  N_3 
REMARK    1  A    between atoms: N_3  and  N_4 
REMARK       I    between atoms: N_4  and  C_5 
REMARK    2  A    between atoms: C_5  and  C_6 
REMARK    3  A    between atoms: C_11  and  C_12 
ROOT
HETATM    1  C   UNL     1       6.478  32.969  63.958  1.00  0.00     0.115 A 
HETATM    2  N   UNL     1       7.407  31.949  64.030  1.00  0.00    -0.350 N 
HETATM    3  H   UNL     1       7.627  31.434  64.872  1.00  0.00     0.166 HD
HETATM    4  C   UNL     1       8.038  31.755  62.827  1.00  0.00     0.044 A 
HETATM    5  C   UNL     1       7.516  32.690  61.938  1.00  0.00     0.006 A 
HETATM    6  C   UNL     1       6.542  33.462  62.657  1.00  0.00     0.019 A 
HETATM    7  C   UNL     1       9.030  30.833  62.470  1.00  0.00     0.032 A 
HETATM    8  C   UNL     1       9.496  30.865  61.152  1.00  0.00     0.026 A 
HETATM    9  C   UNL     1       8.985  31.783  60.239  1.00  0.00     0.035 A 
HETATM   10 CL   UNL     1       9.581  31.794  58.624  1.00  0.00    -0.084 Cl
HETATM   11  C   UNL     1       7.996  32.698  60.612  1.00  0.00     0.038 A 
ENDROOT
BRANCH   1  12
HETATM   12  C   UNL     1       5.689  33.407  65.093  1.00  0.00     0.287 C 
HETATM   13  N   UNL     1       6.441  33.830  66.178  1.00  0.00    -0.262 N 
HETATM   14  H   UNL     1       7.407  33.529  66.301  1.00  0.00     0.190 HD
HETATM   15  O   UNL     1       4.460  33.415  65.139  1.00  0.00    -0.264 OA
BRANCH  13  16
HETATM   16  N   UNL     1       5.764  34.136  67.370  1.00  0.00    -0.268 N 
HETATM   17  C   UNL     1       6.531  34.472  68.463  1.00  0.00     0.232 C 
HETATM   18  C   UNL     1       5.760  34.645  69.741  1.00  0.00     0.119 C 
HETATM   19  O   UNL     1       7.747  34.641  68.390  1.00  0.00    -0.272 OA
HETATM   20  H   UNL     1       4.819  33.759  67.453  1.00  0.00     0.190 HD
ENDBRANCH  13  16
ENDBRANCH   1  12
BRANCH   6  21
HETATM   21  C   UNL     1       5.740  34.564  62.147  1.00  0.00    -0.023 A 
HETATM   22  C   UNL     1       4.751  34.348  61.181  1.00  0.00     0.012 A 
HETATM   23  C   UNL     1       4.012  35.421  60.677  1.00  0.00     0.001 A 
HETATM   24  C   UNL     1       4.265  36.716  61.127  1.00  0.00     0.000 A 
HETATM   25  C   UNL     1       5.252  36.941  62.084  1.00  0.00     0.001 A 
HETATM   26  C   UNL     1       5.988  35.869  62.593  1.00  0.00     0.012 A 
ENDBRANCH   6  21
TORSDOF 3
ENDMDL
MODEL 10
REMARK VINA RESULT:      -7.7      8.414     11.837
REMARK  3 active torsions:
REMARK  status: ('A' for Active; 'I' for Inactive)
REMARK       I    between atoms: C_2  and  N_3 
REMARK    1  A    between atoms: N_3  and  N_4 
REMARK       I    between atoms: N_4  and  C_5 
REMARK    2  A    between atoms: C_5  and  C_6 
REMARK    3  A    between atoms: C_11  and  C_12 
ROOT
HETATM    1  C   UNL     1       5.158  33.201  61.499  1.00  0.00     0.115 A 
HETATM    2  N   UNL     1       4.239  33.900  62.257  1.00  0.00    -0.350 N 
HETATM    3  H   UNL     1       3.368  34.271  61.903  1.00  0.00     0.166 HD
HETATM    4  C   UNL     1       4.680  34.079  63.545  1.00  0.00     0.044 A 
HETATM    5  C   UNL     1       5.938  33.490  63.629  1.00  0.00     0.006 A 
HETATM    6  C   UNL     1       6.242  32.949  62.335  1.00  0.00     0.019 A 
HETATM    7  C   UNL     1       4.063  34.721  64.626  1.00  0.00     0.032 A 
HETATM    8  C   UNL     1       4.757  34.753  65.839  1.00  0.00     0.026 A 
HETATM    9  C   UNL     1       6.013  34.163  65.955  1.00  0.00     0.035 A 
HETATM   10 CL   UNL     1       6.839  34.220  67.464  1.00  0.00    -0.084 Cl
HETATM   11  C   UNL     1       6.616  33.528  64.866  1.00  0.00     0.038 A 
ENDROOT
BRANCH   1  12
HETATM   12  C   UNL     1       4.963  32.899  60.094  1.00  0.00     0.287 C 
HETATM   13  N   UNL     1       4.848  31.545  59.816  1.00  0.00    -0.262 N 
HETATM   14  H   UNL     1       5.217  30.841  60.452  1.00  0.00     0.190 HD
HETATM   15  O   UNL     1       4.905  33.732  59.192  1.00  0.00    -0.264 OA
BRANCH  13  16
HETATM   16  N   UNL     1       4.799  31.152  58.468  1.00  0.00    -0.268 N 
HETATM   17  C   UNL     1       5.972  30.706  57.899  1.00  0.00     0.232 C 
HETATM   18  C   UNL     1       5.891  30.440  56.422  1.00  0.00     0.119 C 
HETATM   19  O   UNL     1       6.995  30.517  58.555  1.00  0.00    -0.272 OA
HETATM   20  H   UNL     1       4.032  31.542  57.919  1.00  0.00     0.190 HD
ENDBRANCH  13  16
ENDBRANCH   1  12
BRANCH   6  21
HETATM   21  C   UNL     1       7.453  32.247  61.935  1.00  0.00    -0.023 A 
HETATM   22  C   UNL     1       7.833  31.054  62.559  1.00  0.00     0.012 A 
HETATM   23  C   UNL     1       9.016  30.410  62.187  1.00  0.00     0.001 A 
HETATM   24  C   UNL     1       9.830  30.961  61.198  1.00  0.00     0.000 A 
HETATM   25  C   UNL     1       9.462  32.153  60.576  1.00  0.00     0.001 A 
HETATM   26  C   UNL     1       8.278  32.795  60.943  1.00  0.00     0.012 A 
ENDBRANCH   6  21
TORSDOF 3
ENDMDL
