MODEL 1
REMARK VINA RESULT:     -10.3      0.000      0.000
REMARK  3 active torsions:
REMARK  status: ('A' for Active; 'I' for Inactive)
REMARK    1  A    between atoms: C_6  and  C_7 
REMARK    2  A    between atoms: C_14  and  N_15 
REMARK    3  A    between atoms: N_15  and  C_16 
ROOT
HETATM    1  C   UNL     1       4.809  28.251  51.469  1.00  0.00     0.001 A 
HETATM    2  C   UNL     1       5.287  28.047  52.760  1.00  0.00     0.018 A 
HETATM    3  C   UNL     1       5.817  26.789  53.151  1.00  0.00     0.039 A 
HETATM    4  C   UNL     1       5.873  25.746  52.218  1.00  0.00     0.073 A 
HETATM    5  N   UNL     1       6.373  24.541  52.507  1.00  0.00    -0.228 NA
HETATM    6  C   UNL     1       6.841  24.344  53.749  1.00  0.00     0.164 A 
HETATM    7  N   UNL     1       6.838  25.275  54.715  1.00  0.00    -0.210 NA
HETATM    8  C   UNL     1       6.327  26.484  54.425  1.00  0.00     0.143 A 
HETATM    9  C   UNL     1       5.390  25.974  50.935  1.00  0.00     0.032 A 
HETATM   10  C   UNL     1       4.859  27.209  50.553  1.00  0.00     0.002 A 
ENDROOT
BRANCH   8  11
HETATM   11  N   UNL     1       6.280  27.473  55.443  1.00  0.00    -0.340 N 
HETATM   12  H   UNL     1       5.595  27.197  56.138  1.00  0.00     0.167 HD
BRANCH  11  13
HETATM   13  C   UNL     1       7.367  28.170  56.020  1.00  0.00     0.036 A 
HETATM   14  C   UNL     1       7.331  28.488  57.386  1.00  0.00     0.069 A 
HETATM   15  C   UNL     1       8.348  29.248  57.974  1.00  0.00     0.104 A 
HETATM   16  C   UNL     1       9.420  29.698  57.203  1.00  0.00     0.102 A 
HETATM   17  O   UNL     1       8.272  29.423  59.330  1.00  0.00    -0.348 OA
HETATM   18  O   UNL     1      10.498  30.356  57.724  1.00  0.00    -0.348 OA
HETATM   19  C   UNL     1       9.467  29.394  55.846  1.00  0.00     0.042 A 
HETATM   20  C   UNL     1      10.136  31.611  58.303  1.00  0.00     0.178 C 
HETATM   21  C   UNL     1       9.591  31.449  59.712  1.00  0.00     0.053 C 
HETATM   22  C   UNL     1       8.215  30.802  59.696  1.00  0.00     0.178 C 
HETATM   23  C   UNL     1       8.435  28.659  55.256  1.00  0.00     0.032 A 
ENDBRANCH  11  13
ENDBRANCH   8  11
BRANCH   6  24
HETATM   24  C   UNL     1       7.382  23.021  54.083  1.00  0.00     0.029 A 
HETATM   25  C   UNL     1       7.511  22.588  55.403  1.00  0.00     0.131 A 
HETATM   26  N   UNL     1       8.004  21.380  55.788  1.00  0.00    -0.272 NA
HETATM   27  C   UNL     1       8.397  20.548  54.803  1.00  0.00     0.116 A 
HETATM   28  C   UNL     1       8.320  20.863  53.459  1.00  0.00     0.020 A 
HETATM   29  C   UNL     1       7.807  22.109  53.101  1.00  0.00     0.018 A 
ENDBRANCH   6  24
TORSDOF 3
ENDMDL
MODEL 2
REMARK VINA RESULT:     -10.1      1.068      1.778
REMARK  3 active torsions:
REMARK  status: ('A' for Active; 'I' for Inactive)
REMARK    1  A    between atoms: C_6  and  C_7 
REMARK    2  A    between atoms: C_14  and  N_15 
REMARK    3  A    between atoms: N_15  and  C_16 
ROOT
HETATM    1  C   UNL     1       4.292  28.096  51.259  1.00  0.00     0.001 A 
HETATM    2  C   UNL     1       4.556  27.854  52.605  1.00  0.00     0.018 A 
HETATM    3  C   UNL     1       5.219  26.667  53.014  1.00  0.00     0.039 A 
HETATM    4  C   UNL     1       5.627  25.738  52.049  1.00  0.00     0.073 A 
HETATM    5  N   UNL     1       6.270  24.608  52.356  1.00  0.00    -0.228 NA
HETATM    6  C   UNL     1       6.533  24.376  53.652  1.00  0.00     0.164 A 
HETATM    7  N   UNL     1       6.190  25.200  54.653  1.00  0.00    -0.210 NA
HETATM    8  C   UNL     1       5.535  26.331  54.342  1.00  0.00     0.143 A 
HETATM    9  C   UNL     1       5.352  26.003  50.713  1.00  0.00     0.032 A 
HETATM   10  C   UNL     1       4.690  27.166  50.310  1.00  0.00     0.002 A 
ENDROOT
BRANCH   8  11
HETATM   11  N   UNL     1       5.131  27.202  55.390  1.00  0.00    -0.340 N 
HETATM   12  H   UNL     1       4.547  26.685  56.038  1.00  0.00     0.167 HD
BRANCH  11  13
HETATM   13  C   UNL     1       5.909  28.182  56.046  1.00  0.00     0.036 A 
HETATM   14  C   UNL     1       7.204  28.457  55.581  1.00  0.00     0.069 A 
HETATM   15  C   UNL     1       8.034  29.360  56.254  1.00  0.00     0.104 A 
HETATM   16  C   UNL     1       7.577  30.006  57.403  1.00  0.00     0.102 A 
HETATM   17  O   UNL     1       9.241  29.632  55.668  1.00  0.00    -0.348 OA
HETATM   18  O   UNL     1       8.288  30.974  58.055  1.00  0.00    -0.348 OA
HETATM   19  C   UNL     1       6.296  29.742  57.879  1.00  0.00     0.042 A 
HETATM   20  C   UNL     1       9.515  30.473  58.589  1.00  0.00     0.178 C 
HETATM   21  C   UNL     1      10.610  30.419  57.538  1.00  0.00     0.053 C 
HETATM   22  C   UNL     1      10.341  29.319  56.523  1.00  0.00     0.178 C 
HETATM   23  C   UNL     1       5.481  28.817  57.220  1.00  0.00     0.032 A 
ENDBRANCH  11  13
ENDBRANCH   8  11
BRANCH   6  24
HETATM   24  C   UNL     1       7.229  23.132  54.004  1.00  0.00     0.029 A 
HETATM   25  C   UNL     1       7.419  22.743  55.330  1.00  0.00     0.131 A 
HETATM   26  N   UNL     1       8.053  21.609  55.732  1.00  0.00    -0.272 NA
HETATM   27  C   UNL     1       8.535  20.810  54.759  1.00  0.00     0.116 A 
HETATM   28  C   UNL     1       8.410  21.088  53.410  1.00  0.00     0.020 A 
HETATM   29  C   UNL     1       7.751  22.258  53.035  1.00  0.00     0.018 A 
ENDBRANCH   6  24
TORSDOF 3
ENDMDL
MODEL 3
REMARK VINA RESULT:     -10.1      1.722      4.877
REMARK  3 active torsions:
REMARK  status: ('A' for Active; 'I' for Inactive)
REMARK    1  A    between atoms: C_6  and  C_7 
REMARK    2  A    between atoms: C_14  and  N_15 
REMARK    3  A    between atoms: N_15  and  C_16 
ROOT
HETATM    1  C   UNL     1       8.158  23.152  55.027  1.00  0.00     0.001 A 
HETATM    2  C   UNL     1       7.383  24.290  55.235  1.00  0.00     0.018 A 
HETATM    3  C   UNL     1       6.839  25.011  54.140  1.00  0.00     0.039 A 
HETATM    4  C   UNL     1       7.075  24.561  52.835  1.00  0.00     0.073 A 
HETATM    5  N   UNL     1       6.583  25.177  51.756  1.00  0.00    -0.228 NA
HETATM    6  C   UNL     1       5.828  26.269  51.954  1.00  0.00     0.164 A 
HETATM    7  N   UNL     1       5.540  26.781  53.160  1.00  0.00    -0.210 NA
HETATM    8  C   UNL     1       6.042  26.164  54.243  1.00  0.00     0.143 A 
HETATM    9  C   UNL     1       7.852  23.423  52.653  1.00  0.00     0.032 A 
HETATM   10  C   UNL     1       8.396  22.719  53.730  1.00  0.00     0.002 A 
ENDROOT
BRANCH   8  11
HETATM   11  N   UNL     1       5.779  26.709  55.528  1.00  0.00    -0.340 N 
HETATM   12  H   UNL     1       5.629  25.949  56.182  1.00  0.00     0.167 HD
BRANCH  11  13
HETATM   13  C   UNL     1       6.407  27.817  56.141  1.00  0.00     0.036 A 
HETATM   14  C   UNL     1       7.660  28.243  55.674  1.00  0.00     0.069 A 
HETATM   15  C   UNL     1       8.350  29.281  56.308  1.00  0.00     0.104 A 
HETATM   16  C   UNL     1       7.793  29.913  57.420  1.00  0.00     0.102 A 
HETATM   17  O   UNL     1       9.517  29.687  55.719  1.00  0.00    -0.348 OA
HETATM   18  O   UNL     1       8.357  30.999  58.029  1.00  0.00    -0.348 OA
HETATM   19  C   UNL     1       6.554  29.500  57.899  1.00  0.00     0.042 A 
HETATM   20  C   UNL     1       9.632  30.696  58.597  1.00  0.00     0.178 C 
HETATM   21  C   UNL     1      10.741  30.741  57.558  1.00  0.00     0.053 C 
HETATM   22  C   UNL     1      10.637  29.568  56.597  1.00  0.00     0.178 C 
HETATM   23  C   UNL     1       5.881  28.443  57.280  1.00  0.00     0.032 A 
ENDBRANCH  11  13
ENDBRANCH   8  11
BRANCH   6  24
HETATM   24  C   UNL     1       5.291  26.962  50.776  1.00  0.00     0.029 A 
HETATM   25  C   UNL     1       5.296  28.353  50.672  1.00  0.00     0.131 A 
HETATM   26  N   UNL     1       4.816  29.063  49.616  1.00  0.00    -0.272 NA
HETATM   27  C   UNL     1       4.295  28.351  48.597  1.00  0.00     0.116 A 
HETATM   28  C   UNL     1       4.233  26.969  48.584  1.00  0.00     0.020 A 
HETATM   29  C   UNL     1       4.737  26.274  49.683  1.00  0.00     0.018 A 
ENDBRANCH   6  24
TORSDOF 3
ENDMDL
MODEL 4
REMARK VINA RESULT:     -10.1      3.045      6.158
REMARK  3 active torsions:
REMARK  status: ('A' for Active; 'I' for Inactive)
REMARK    1  A    between atoms: C_6  and  C_7 
REMARK    2  A    between atoms: C_14  and  N_15 
REMARK    3  A    between atoms: N_15  and  C_16 
ROOT
HETATM    1  C   UNL     1       6.492  28.304  56.988  1.00  0.00     0.001 A 
HETATM    2  C   UNL     1       5.935  27.654  55.890  1.00  0.00     0.018 A 
HETATM    3  C   UNL     1       6.370  26.356  55.515  1.00  0.00     0.039 A 
HETATM    4  C   UNL     1       7.362  25.718  56.270  1.00  0.00     0.073 A 
HETATM    5  N   UNL     1       7.810  24.491  55.988  1.00  0.00    -0.228 NA
HETATM    6  C   UNL     1       7.270  23.858  54.935  1.00  0.00     0.164 A 
HETATM    7  N   UNL     1       6.315  24.377  54.150  1.00  0.00    -0.210 NA
HETATM    8  C   UNL     1       5.871  25.615  54.430  1.00  0.00     0.143 A 
HETATM    9  C   UNL     1       7.902  26.387  57.361  1.00  0.00     0.032 A 
HETATM   10  C   UNL     1       7.481  27.669  57.725  1.00  0.00     0.002 A 
ENDROOT
BRANCH   8  11
HETATM   11  N   UNL     1       4.885  26.198  53.590  1.00  0.00    -0.340 N 
HETATM   12  H   UNL     1       4.264  26.764  54.158  1.00  0.00     0.167 HD
BRANCH  11  13
HETATM   13  C   UNL     1       5.064  26.745  52.299  1.00  0.00     0.036 A 
HETATM   14  C   UNL     1       5.408  28.099  52.167  1.00  0.00     0.069 A 
HETATM   15  C   UNL     1       5.513  28.696  50.907  1.00  0.00     0.104 A 
HETATM   16  C   UNL     1       5.278  27.943  49.756  1.00  0.00     0.102 A 
HETATM   17  O   UNL     1       5.946  29.994  50.880  1.00  0.00    -0.348 OA
HETATM   18  O   UNL     1       5.459  28.426  48.490  1.00  0.00    -0.348 OA
HETATM   19  C   UNL     1       4.933  26.600  49.869  1.00  0.00     0.042 A 
HETATM   20  C   UNL     1       4.576  29.510  48.196  1.00  0.00     0.178 C 
HETATM   21  C   UNL     1       5.096  30.829  48.742  1.00  0.00     0.053 C 
HETATM   22  C   UNL     1       5.003  30.868  50.259  1.00  0.00     0.178 C 
HETATM   23  C   UNL     1       4.801  26.015  51.132  1.00  0.00     0.032 A 
ENDBRANCH  11  13
ENDBRANCH   8  11
BRANCH   6  24
HETATM   24  C   UNL     1       7.762  22.515  54.608  1.00  0.00     0.029 A 
HETATM   25  C   UNL     1       8.209  21.632  55.592  1.00  0.00     0.131 A 
HETATM   26  N   UNL     1       8.679  20.377  55.365  1.00  0.00    -0.272 NA
HETATM   27  C   UNL     1       8.712  19.967  54.081  1.00  0.00     0.116 A 
HETATM   28  C   UNL     1       8.296  20.750  53.019  1.00  0.00     0.020 A 
HETATM   29  C   UNL     1       7.818  22.031  53.290  1.00  0.00     0.018 A 
ENDBRANCH   6  24
TORSDOF 3
ENDMDL
MODEL 5
REMARK VINA RESULT:      -9.5      3.088      7.384
REMARK  3 active torsions:
REMARK  status: ('A' for Active; 'I' for Inactive)
REMARK    1  A    between atoms: C_6  and  C_7 
REMARK    2  A    between atoms: C_14  and  N_15 
REMARK    3  A    between atoms: N_15  and  C_16 
ROOT
HETATM    1  C   UNL     1       3.282  28.588  52.635  1.00  0.00     0.001 A 
HETATM    2  C   UNL     1       3.868  27.725  53.557  1.00  0.00     0.018 A 
HETATM    3  C   UNL     1       4.645  28.228  54.634  1.00  0.00     0.039 A 
HETATM    4  C   UNL     1       4.809  29.612  54.776  1.00  0.00     0.073 A 
HETATM    5  N   UNL     1       5.511  30.159  55.772  1.00  0.00    -0.228 NA
HETATM    6  C   UNL     1       6.070  29.330  56.667  1.00  0.00     0.164 A 
HETATM    7  N   UNL     1       5.972  27.993  56.625  1.00  0.00    -0.210 NA
HETATM    8  C   UNL     1       5.272  27.444  55.617  1.00  0.00     0.143 A 
HETATM    9  C   UNL     1       4.214  30.452  53.843  1.00  0.00     0.032 A 
HETATM   10  C   UNL     1       3.458  29.957  52.777  1.00  0.00     0.002 A 
ENDROOT
BRANCH   8  11
HETATM   11  N   UNL     1       5.185  26.029  55.532  1.00  0.00    -0.340 N 
HETATM   12  H   UNL     1       4.439  25.784  54.890  1.00  0.00     0.167 HD
BRANCH  11  13
HETATM   13  C   UNL     1       6.249  25.100  55.484  1.00  0.00     0.036 A 
HETATM   14  C   UNL     1       6.540  24.450  54.274  1.00  0.00     0.069 A 
HETATM   15  C   UNL     1       7.530  23.464  54.207  1.00  0.00     0.104 A 
HETATM   16  C   UNL     1       8.249  23.116  55.351  1.00  0.00     0.102 A 
HETATM   17  O   UNL     1       7.805  22.959  52.965  1.00  0.00    -0.348 OA
HETATM   18  O   UNL     1       9.296  22.239  55.344  1.00  0.00    -0.348 OA
HETATM   19  C   UNL     1       7.969  23.748  56.559  1.00  0.00     0.042 A 
HETATM   20  C   UNL     1       8.895  20.923  54.960  1.00  0.00     0.178 C 
HETATM   21  C   UNL     1       8.801  20.777  53.450  1.00  0.00     0.053 C 
HETATM   22  C   UNL     1       7.611  21.546  52.899  1.00  0.00     0.178 C 
HETATM   23  C   UNL     1       6.959  24.712  56.628  1.00  0.00     0.032 A 
ENDBRANCH  11  13
ENDBRANCH   8  11
BRANCH   6  24
HETATM   24  C   UNL     1       6.854  29.919  57.760  1.00  0.00     0.029 A 
HETATM   25  C   UNL     1       7.965  29.273  58.303  1.00  0.00     0.131 A 
HETATM   26  N   UNL     1       8.736  29.755  59.314  1.00  0.00    -0.272 NA
HETATM   27  C   UNL     1       8.384  30.951  59.824  1.00  0.00     0.116 A 
HETATM   28  C   UNL     1       7.304  31.687  59.372  1.00  0.00     0.020 A 
HETATM   29  C   UNL     1       6.537  31.163  58.331  1.00  0.00     0.018 A 
ENDBRANCH   6  24
TORSDOF 3
ENDMDL
MODEL 6
REMARK VINA RESULT:      -9.5      3.068      7.596
REMARK  3 active torsions:
REMARK  status: ('A' for Active; 'I' for Inactive)
REMARK    1  A    between atoms: C_6  and  C_7 
REMARK    2  A    between atoms: C_14  and  N_15 
REMARK    3  A    between atoms: N_15  and  C_16 
ROOT
HETATM    1  C   UNL     1       7.465  22.849  55.560  1.00  0.00     0.001 A 
HETATM    2  C   UNL     1       6.754  23.982  55.173  1.00  0.00     0.018 A 
HETATM    3  C   UNL     1       7.035  25.249  55.747  1.00  0.00     0.039 A 
HETATM    4  C   UNL     1       8.053  25.361  56.703  1.00  0.00     0.073 A 
HETATM    5  N   UNL     1       8.385  26.522  57.275  1.00  0.00    -0.228 NA
HETATM    6  C   UNL     1       7.707  27.617  56.898  1.00  0.00     0.164 A 
HETATM    7  N   UNL     1       6.719  27.620  55.991  1.00  0.00    -0.210 NA
HETATM    8  C   UNL     1       6.380  26.450  55.423  1.00  0.00     0.143 A 
HETATM    9  C   UNL     1       8.748  24.216  57.073  1.00  0.00     0.032 A 
HETATM   10  C   UNL     1       8.464  22.966  56.515  1.00  0.00     0.002 A 
ENDROOT
BRANCH   8  11
HETATM   11  N   UNL     1       5.313  26.424  54.486  1.00  0.00    -0.340 N 
HETATM   12  H   UNL     1       4.473  26.769  54.936  1.00  0.00     0.167 HD
BRANCH  11  13
HETATM   13  C   UNL     1       5.359  26.770  53.116  1.00  0.00     0.036 A 
HETATM   14  C   UNL     1       5.623  28.099  52.751  1.00  0.00     0.069 A 
HETATM   15  C   UNL     1       5.594  28.496  51.411  1.00  0.00     0.104 A 
HETATM   16  C   UNL     1       5.304  27.566  50.412  1.00  0.00     0.102 A 
HETATM   17  O   UNL     1       5.960  29.789  51.149  1.00  0.00    -0.348 OA
HETATM   18  O   UNL     1       5.356  27.854  49.077  1.00  0.00    -0.348 OA
HETATM   19  C   UNL     1       5.036  26.245  50.758  1.00  0.00     0.042 A 
HETATM   20  C   UNL     1       4.400  28.845  48.701  1.00  0.00     0.178 C 
HETATM   21  C   UNL     1       4.897  30.252  48.993  1.00  0.00     0.053 C 
HETATM   22  C   UNL     1       4.926  30.522  50.489  1.00  0.00     0.178 C 
HETATM   23  C   UNL     1       5.037  25.858  52.101  1.00  0.00     0.032 A 
ENDBRANCH  11  13
ENDBRANCH   8  11
BRANCH   6  24
HETATM   24  C   UNL     1       8.055  28.897  57.527  1.00  0.00     0.029 A 
HETATM   25  C   UNL     1       7.085  29.743  58.066  1.00  0.00     0.131 A 
HETATM   26  N   UNL     1       7.331  30.940  58.661  1.00  0.00    -0.272 NA
HETATM   27  C   UNL     1       8.621  31.329  58.725  1.00  0.00     0.116 A 
HETATM   28  C   UNL     1       9.670  30.579  58.226  1.00  0.00     0.020 A 
HETATM   29  C   UNL     1       9.380  29.354  57.625  1.00  0.00     0.018 A 
ENDBRANCH   6  24
TORSDOF 3
ENDMDL
MODEL 7
REMARK VINA RESULT:      -9.3      3.496      7.841
REMARK  3 active torsions:
REMARK  status: ('A' for Active; 'I' for Inactive)
REMARK    1  A    between atoms: C_6  and  C_7 
REMARK    2  A    between atoms: C_14  and  N_15 
REMARK    3  A    between atoms: N_15  and  C_16 
ROOT
HETATM    1  C   UNL     1       8.100  21.657  53.415  1.00  0.00     0.001 A 
HETATM    2  C   UNL     1       7.618  22.846  52.873  1.00  0.00     0.018 A 
HETATM    3  C   UNL     1       7.522  24.021  53.664  1.00  0.00     0.039 A 
HETATM    4  C   UNL     1       7.933  23.985  55.002  1.00  0.00     0.073 A 
HETATM    5  N   UNL     1       7.887  25.054  55.803  1.00  0.00    -0.228 NA
HETATM    6  C   UNL     1       7.431  26.203  55.281  1.00  0.00     0.164 A 
HETATM    7  N   UNL     1       7.016  26.345  54.013  1.00  0.00    -0.210 NA
HETATM    8  C   UNL     1       7.055  25.267  53.212  1.00  0.00     0.143 A 
HETATM    9  C   UNL     1       8.410  22.787  55.520  1.00  0.00     0.032 A 
HETATM   10  C   UNL     1       8.495  21.627  54.745  1.00  0.00     0.002 A 
ENDROOT
BRANCH   8  11
HETATM   11  N   UNL     1       6.587  25.387  51.876  1.00  0.00    -0.340 N 
HETATM   12  H   UNL     1       6.332  24.466  51.534  1.00  0.00     0.167 HD
BRANCH  11  13
HETATM   13  C   UNL     1       5.759  26.397  51.338  1.00  0.00     0.036 A 
HETATM   14  C   UNL     1       4.929  26.098  50.247  1.00  0.00     0.069 A 
HETATM   15  C   UNL     1       4.157  27.092  49.636  1.00  0.00     0.104 A 
HETATM   16  C   UNL     1       4.202  28.403  50.111  1.00  0.00     0.102 A 
HETATM   17  O   UNL     1       3.309  26.682  48.642  1.00  0.00    -0.348 OA
HETATM   18  O   UNL     1       3.404  29.405  49.634  1.00  0.00    -0.348 OA
HETATM   19  C   UNL     1       5.023  28.717  51.190  1.00  0.00     0.042 A 
HETATM   20  C   UNL     1       3.662  29.689  48.258  1.00  0.00     0.178 C 
HETATM   21  C   UNL     1       2.944  28.718  47.334  1.00  0.00     0.053 C 
HETATM   22  C   UNL     1       3.573  27.335  47.400  1.00  0.00     0.178 C 
HETATM   23  C   UNL     1       5.814  27.727  51.779  1.00  0.00     0.032 A 
ENDBRANCH  11  13
ENDBRANCH   8  11
BRANCH   6  24
HETATM   24  C   UNL     1       7.365  27.381  56.153  1.00  0.00     0.029 A 
HETATM   25  C   UNL     1       7.911  27.381  57.437  1.00  0.00     0.131 A 
HETATM   26  N   UNL     1       7.887  28.431  58.301  1.00  0.00    -0.272 NA
HETATM   27  C   UNL     1       7.282  29.554  57.868  1.00  0.00     0.116 A 
HETATM   28  C   UNL     1       6.703  29.677  56.617  1.00  0.00     0.020 A 
HETATM   29  C   UNL     1       6.749  28.581  55.757  1.00  0.00     0.018 A 
ENDBRANCH   6  24
TORSDOF 3
ENDMDL
MODEL 8
REMARK VINA RESULT:      -9.3      4.686      7.897
REMARK  3 active torsions:
REMARK  status: ('A' for Active; 'I' for Inactive)
REMARK    1  A    between atoms: C_6  and  C_7 
REMARK    2  A    between atoms: C_14  and  N_15 
REMARK    3  A    between atoms: N_15  and  C_16 
ROOT
HETATM    1  C   UNL     1       4.057  29.624  53.971  1.00  0.00     0.001 A 
HETATM    2  C   UNL     1       4.603  28.929  52.895  1.00  0.00     0.018 A 
HETATM    3  C   UNL     1       5.220  27.665  53.082  1.00  0.00     0.039 A 
HETATM    4  C   UNL     1       5.265  27.104  54.365  1.00  0.00     0.073 A 
HETATM    5  N   UNL     1       5.814  25.912  54.616  1.00  0.00    -0.228 NA
HETATM    6  C   UNL     1       6.333  25.237  53.579  1.00  0.00     0.164 A 
HETATM    7  N   UNL     1       6.339  25.680  52.313  1.00  0.00    -0.210 NA
HETATM    8  C   UNL     1       5.794  26.884  52.064  1.00  0.00     0.143 A 
HETATM    9  C   UNL     1       4.714  27.817  55.423  1.00  0.00     0.032 A 
HETATM   10  C   UNL     1       4.116  29.067  55.241  1.00  0.00     0.002 A 
ENDROOT
BRANCH   8  11
HETATM   11  N   UNL     1       5.820  27.389  50.737  1.00  0.00    -0.340 N 
HETATM   12  H   UNL     1       6.774  27.359  50.394  1.00  0.00     0.167 HD
BRANCH  11  13
HETATM   13  C   UNL     1       4.881  27.159  49.707  1.00  0.00     0.036 A 
HETATM   14  C   UNL     1       4.386  28.247  48.971  1.00  0.00     0.069 A 
HETATM   15  C   UNL     1       3.395  28.068  48.001  1.00  0.00     0.104 A 
HETATM   16  C   UNL     1       2.885  26.795  47.748  1.00  0.00     0.102 A 
HETATM   17  O   UNL     1       3.048  29.175  47.272  1.00  0.00    -0.348 OA
HETATM   18  O   UNL     1       1.992  26.525  46.750  1.00  0.00    -0.348 OA
HETATM   19  C   UNL     1       3.363  25.706  48.472  1.00  0.00     0.042 A 
HETATM   20  C   UNL     1       0.746  27.197  46.945  1.00  0.00     0.178 C 
HETATM   21  C   UNL     1       0.799  28.639  46.469  1.00  0.00     0.053 C 
HETATM   22  C   UNL     1       1.660  29.488  47.390  1.00  0.00     0.178 C 
HETATM   23  C   UNL     1       4.332  25.893  49.461  1.00  0.00     0.032 A 
ENDBRANCH  11  13
ENDBRANCH   8  11
BRANCH   6  24
HETATM   24  C   UNL     1       6.949  23.931  53.843  1.00  0.00     0.029 A 
HETATM   25  C   UNL     1       7.045  23.407  55.132  1.00  0.00     0.131 A 
HETATM   26  N   UNL     1       7.602  22.209  55.454  1.00  0.00    -0.272 NA
HETATM   27  C   UNL     1       8.100  21.482  54.433  1.00  0.00     0.116 A 
HETATM   28  C   UNL     1       8.065  21.894  53.113  1.00  0.00     0.020 A 
HETATM   29  C   UNL     1       7.484  23.127  52.821  1.00  0.00     0.018 A 
ENDBRANCH   6  24
TORSDOF 3
ENDMDL
MODEL 9
REMARK VINA RESULT:      -9.0      2.705      3.174
REMARK  3 active torsions:
REMARK  status: ('A' for Active; 'I' for Inactive)
REMARK    1  A    between atoms: C_6  and  C_7 
REMARK    2  A    between atoms: C_14  and  N_15 
REMARK    3  A    between atoms: N_15  and  C_16 
ROOT
HETATM    1  C   UNL     1       4.420  27.834  51.714  1.00  0.00     0.001 A 
HETATM    2  C   UNL     1       4.553  27.435  53.041  1.00  0.00     0.018 A 
HETATM    3  C   UNL     1       5.271  26.257  53.379  1.00  0.00     0.039 A 
HETATM    4  C   UNL     1       5.866  25.499  52.363  1.00  0.00     0.073 A 
HETATM    5  N   UNL     1       6.571  24.390  52.604  1.00  0.00    -0.228 NA
HETATM    6  C   UNL     1       6.707  24.006  53.883  1.00  0.00     0.164 A 
HETATM    7  N   UNL     1       6.181  24.661  54.929  1.00  0.00    -0.210 NA
HETATM    8  C   UNL     1       5.466  25.772  54.683  1.00  0.00     0.143 A 
HETATM    9  C   UNL     1       5.719  25.919  51.046  1.00  0.00     0.032 A 
HETATM   10  C   UNL     1       5.004  27.072  50.712  1.00  0.00     0.002 A 
ENDROOT
BRANCH   8  11
HETATM   11  N   UNL     1       4.870  26.461  55.774  1.00  0.00    -0.340 N 
HETATM   12  H   UNL     1       4.880  25.857  56.588  1.00  0.00     0.167 HD
BRANCH  11  13
HETATM   13  C   UNL     1       5.026  27.822  56.123  1.00  0.00     0.036 A 
HETATM   14  C   UNL     1       3.888  28.631  56.263  1.00  0.00     0.069 A 
HETATM   15  C   UNL     1       4.005  29.999  56.526  1.00  0.00     0.104 A 
HETATM   16  C   UNL     1       5.266  30.580  56.657  1.00  0.00     0.102 A 
HETATM   17  O   UNL     1       2.837  30.682  56.740  1.00  0.00    -0.348 OA
HETATM   18  O   UNL     1       5.461  31.885  57.013  1.00  0.00    -0.348 OA
HETATM   19  C   UNL     1       6.405  29.792  56.518  1.00  0.00     0.042 A 
HETATM   20  C   UNL     1       4.931  32.792  56.046  1.00  0.00     0.178 C 
HETATM   21  C   UNL     1       3.435  32.998  56.223  1.00  0.00     0.053 C 
HETATM   22  C   UNL     1       2.660  31.756  55.815  1.00  0.00     0.178 C 
HETATM   23  C   UNL     1       6.284  28.431  56.226  1.00  0.00     0.032 A 
ENDBRANCH  11  13
ENDBRANCH   8  11
BRANCH   6  24
HETATM   24  C   UNL     1       7.469  22.783  54.161  1.00  0.00     0.029 A 
HETATM   25  C   UNL     1       7.921  22.470  55.444  1.00  0.00     0.131 A 
HETATM   26  N   UNL     1       8.631  21.359  55.776  1.00  0.00    -0.272 NA
HETATM   27  C   UNL     1       8.917  20.504  54.774  1.00  0.00     0.116 A 
HETATM   28  C   UNL     1       8.526  20.704  53.463  1.00  0.00     0.020 A 
HETATM   29  C   UNL     1       7.796  21.853  53.160  1.00  0.00     0.018 A 
ENDBRANCH   6  24
TORSDOF 3
ENDMDL
MODEL 10
REMARK VINA RESULT:      -8.9      3.769      9.103
REMARK  3 active torsions:
REMARK  status: ('A' for Active; 'I' for Inactive)
REMARK    1  A    between atoms: C_6  and  C_7 
REMARK    2  A    between atoms: C_14  and  N_15 
REMARK    3  A    between atoms: N_15  and  C_16 
ROOT
HETATM    1  C   UNL     1       9.359  31.123  61.941  1.00  0.00     0.001 A 
HETATM    2  C   UNL     1       9.105  30.586  60.682  1.00  0.00     0.018 A 
HETATM    3  C   UNL     1       8.026  31.063  59.891  1.00  0.00     0.039 A 
HETATM    4  C   UNL     1       7.218  32.096  60.381  1.00  0.00     0.073 A 
HETATM    5  N   UNL     1       6.196  32.608  59.689  1.00  0.00    -0.228 NA
HETATM    6  C   UNL     1       5.954  32.098  58.471  1.00  0.00     0.164 A 
HETATM    7  N   UNL     1       6.668  31.112  57.908  1.00  0.00    -0.210 NA
HETATM    8  C   UNL     1       7.690  30.593  58.610  1.00  0.00     0.143 A 
HETATM    9  C   UNL     1       7.492  32.615  61.641  1.00  0.00     0.032 A 
HETATM   10  C   UNL     1       8.547  32.139  62.424  1.00  0.00     0.002 A 
ENDROOT
BRANCH   8  11
HETATM   11  N   UNL     1       8.437  29.523  58.048  1.00  0.00    -0.340 N 
HETATM   12  H   UNL     1       8.976  29.078  58.783  1.00  0.00     0.167 HD
BRANCH  11  13
HETATM   13  C   UNL     1       8.015  28.597  57.067  1.00  0.00     0.036 A 
HETATM   14  C   UNL     1       7.622  27.309  57.462  1.00  0.00     0.069 A 
HETATM   15  C   UNL     1       7.278  26.340  56.514  1.00  0.00     0.104 A 
HETATM   16  C   UNL     1       7.318  26.647  55.154  1.00  0.00     0.102 A 
HETATM   17  O   UNL     1       6.816  25.147  57.002  1.00  0.00    -0.348 OA
HETATM   18  O   UNL     1       6.900  25.789  54.176  1.00  0.00    -0.348 OA
HETATM   19  C   UNL     1       7.709  27.919  54.746  1.00  0.00     0.042 A 
HETATM   20  C   UNL     1       7.690  24.600  54.129  1.00  0.00     0.178 C 
HETATM   21  C   UNL     1       7.247  23.584  55.168  1.00  0.00     0.053 C 
HETATM   22  C   UNL     1       7.611  24.041  56.571  1.00  0.00     0.178 C 
HETATM   23  C   UNL     1       8.081  28.876  55.695  1.00  0.00     0.032 A 
ENDBRANCH  11  13
ENDBRANCH   8  11
BRANCH   6  24
HETATM   24  C   UNL     1       4.827  32.643  57.705  1.00  0.00     0.029 A 
HETATM   25  C   UNL     1       3.804  31.829  57.216  1.00  0.00     0.131 A 
HETATM   26  N   UNL     1       2.732  32.261  56.499  1.00  0.00    -0.272 NA
HETATM   27  C   UNL     1       2.669  33.583  56.246  1.00  0.00     0.116 A 
HETATM   28  C   UNL     1       3.621  34.490  56.676  1.00  0.00     0.020 A 
HETATM   29  C   UNL     1       4.705  34.012  57.411  1.00  0.00     0.018 A 
ENDBRANCH   6  24
TORSDOF 3
ENDMDL
