MODEL 1
REMARK VINA RESULT:      -9.2      0.000      0.000
REMARK  7 active torsions:
REMARK  status: ('A' for Active; 'I' for Inactive)
REMARK    1  A    between atoms: C_7  and  C_8 
REMARK    2  A    between atoms: C_8  and  C_9 
REMARK    3  A    between atoms: C_9  and  C_10 
REMARK    4  A    between atoms: C_10  and  O_11 
REMARK    5  A    between atoms: C_13  and  C_14 
REMARK    6  A    between atoms: C_22  and  C_23 
REMARK       I    between atoms: C_23  and  N_24 
REMARK    7  A    between atoms: N_24  and  C_25 
ROOT
HETATM    1  C   UNL     1       9.553  32.250  61.697  1.00  0.00     0.070 C 
HETATM    2  C   UNL     1       8.153  32.331  62.255  1.00  0.00     0.037 C 
HETATM    3  N   UNL     1       8.072  32.598  63.617  1.00  0.00    -0.192 N 
HETATM    4  C   UNL     1       6.921  32.909  64.241  1.00  0.00     0.726 A 
HETATM    5  N   UNL     1       5.741  32.843  63.552  1.00  0.00    -0.083 N 
HETATM    6  N   UNL     1       4.699  33.218  64.326  1.00  0.00    -0.140 NA
HETATM    7  C   UNL     1       5.335  33.533  65.466  1.00  0.00     0.166 A 
HETATM    8  N   UNL     1       6.695  33.337  65.456  1.00  0.00    -0.046 NA
HETATM    9  C   UNL     1       5.637  32.410  62.149  1.00  0.00     0.204 C 
HETATM   10  C   UNL     1       7.017  32.212  61.519  1.00  0.00     0.062 C 
HETATM   11  H   UNL     1       8.941  32.775  64.114  1.00  0.00     0.184 HD
ENDROOT
BRANCH  10  12
HETATM   12  C   UNL     1       7.056  31.916  60.060  1.00  0.00     0.256 C 
HETATM   13  N   UNL     1       7.386  30.607  59.775  1.00  0.00    -0.323 N 
HETATM   14  H   UNL     1       7.511  29.977  60.558  1.00  0.00     0.169 HD
HETATM   15  O   UNL     1       6.791  32.797  59.255  1.00  0.00    -0.267 OA
BRANCH  13  16
HETATM   16  C   UNL     1       7.659  30.065  58.499  1.00  0.00     0.035 A 
HETATM   17  C   UNL     1       6.672  29.693  57.580  1.00  0.00     0.032 A 
HETATM   18  C   UNL     1       7.021  29.204  56.317  1.00  0.00     0.044 A 
HETATM   19  C   UNL     1       8.361  29.086  55.974  1.00  0.00     0.116 A 
HETATM   20  F   UNL     1       8.696  28.627  54.761  1.00  0.00    -0.206 F 
HETATM   21  C   UNL     1       9.357  29.443  56.871  1.00  0.00     0.044 A 
HETATM   22  C   UNL     1       9.007  29.930  58.135  1.00  0.00     0.032 A 
ENDBRANCH  13  16
ENDBRANCH  10  12
BRANCH   9  23
HETATM   23  C   UNL     1       4.647  33.290  61.385  1.00  0.00    -0.005 A 
HETATM   24  C   UNL     1       4.741  34.696  61.301  1.00  0.00     0.064 A 
HETATM   25 CL   UNL     1       6.034  35.543  62.095  1.00  0.00    -0.082 Cl
HETATM   26  C   UNL     1       3.783  35.418  60.565  1.00  0.00     0.056 A 
HETATM   27 CL   UNL     1       3.833  37.142  60.409  1.00  0.00    -0.083 Cl
HETATM   28  C   UNL     1       2.736  34.755  59.921  1.00  0.00     0.026 A 
HETATM   29  C   UNL     1       2.630  33.371  60.002  1.00  0.00     0.002 A 
HETATM   30  C   UNL     1       3.575  32.647  60.726  1.00  0.00     0.011 A 
ENDBRANCH   9  23
BRANCH   7  31
HETATM   31  C   UNL     1       4.637  34.162  66.616  1.00  0.00     0.085 C 
BRANCH  31  32
HETATM   32  C   UNL     1       5.593  34.919  67.543  1.00  0.00     0.034 C 
BRANCH  32  33
HETATM   33  C   UNL     1       5.750  34.302  68.931  1.00  0.00     0.164 C 
BRANCH  33  34
HETATM   34  O   UNL     1       4.925  33.155  69.078  1.00  0.00    -0.401 OA
HETATM   35  H   UNL     1       4.333  33.334  69.835  1.00  0.00     0.209 HD
ENDBRANCH  33  34
ENDBRANCH  32  33
ENDBRANCH  31  32
ENDBRANCH   7  31
TORSDOF 7
ENDMDL
MODEL 2
REMARK VINA RESULT:      -9.1      8.113     10.360
REMARK  7 active torsions:
REMARK  status: ('A' for Active; 'I' for Inactive)
REMARK    1  A    between atoms: C_7  and  C_8 
REMARK    2  A    between atoms: C_8  and  C_9 
REMARK    3  A    between atoms: C_9  and  C_10 
REMARK    4  A    between atoms: C_10  and  O_11 
REMARK    5  A    between atoms: C_13  and  C_14 
REMARK    6  A    between atoms: C_22  and  C_23 
REMARK       I    between atoms: C_23  and  N_24 
REMARK    7  A    between atoms: N_24  and  C_25 
ROOT
HETATM    1  C   UNL     1       8.407  26.441  57.283  1.00  0.00     0.070 C 
HETATM    2  C   UNL     1       7.091  26.893  56.696  1.00  0.00     0.037 C 
HETATM    3  N   UNL     1       6.432  27.886  57.412  1.00  0.00    -0.192 N 
HETATM    4  C   UNL     1       5.363  28.551  56.937  1.00  0.00     0.726 A 
HETATM    5  N   UNL     1       4.801  28.166  55.751  1.00  0.00    -0.083 N 
HETATM    6  N   UNL     1       3.762  28.964  55.418  1.00  0.00    -0.140 NA
HETATM    7  C   UNL     1       3.779  29.835  56.441  1.00  0.00     0.166 A 
HETATM    8  N   UNL     1       4.735  29.601  57.399  1.00  0.00    -0.046 NA
HETATM    9  C   UNL     1       5.275  27.023  54.955  1.00  0.00     0.204 C 
HETATM   10  C   UNL     1       6.565  26.435  55.530  1.00  0.00     0.062 C 
HETATM   11  H   UNL     1       6.903  28.268  58.228  1.00  0.00     0.184 HD
ENDROOT
BRANCH  10  12
HETATM   12  C   UNL     1       7.232  25.366  54.736  1.00  0.00     0.256 C 
HETATM   13  N   UNL     1       6.840  24.092  55.095  1.00  0.00    -0.323 N 
HETATM   14  H   UNL     1       6.121  24.009  55.802  1.00  0.00     0.169 HD
HETATM   15  O   UNL     1       8.024  25.668  53.856  1.00  0.00    -0.267 OA
BRANCH  13  16
HETATM   16  C   UNL     1       7.406  22.878  54.644  1.00  0.00     0.035 A 
HETATM   17  C   UNL     1       7.556  22.540  53.295  1.00  0.00     0.032 A 
HETATM   18  C   UNL     1       8.165  21.337  52.926  1.00  0.00     0.044 A 
HETATM   19  C   UNL     1       8.625  20.471  53.908  1.00  0.00     0.116 A 
HETATM   20  F   UNL     1       9.218  19.323  53.554  1.00  0.00    -0.206 F 
HETATM   21  C   UNL     1       8.482  20.783  55.252  1.00  0.00     0.044 A 
HETATM   22  C   UNL     1       7.871  21.985  55.621  1.00  0.00     0.032 A 
ENDBRANCH  13  16
ENDBRANCH  10  12
BRANCH   9  23
HETATM   23  C   UNL     1       5.275  27.365  53.465  1.00  0.00    -0.005 A 
HETATM   24  C   UNL     1       4.907  26.460  52.446  1.00  0.00     0.064 A 
HETATM   25 CL   UNL     1       4.420  24.840  52.839  1.00  0.00    -0.082 Cl
HETATM   26  C   UNL     1       4.932  26.874  51.101  1.00  0.00     0.056 A 
HETATM   27 CL   UNL     1       4.489  25.827  49.795  1.00  0.00    -0.083 Cl
HETATM   28  C   UNL     1       5.322  28.173  50.765  1.00  0.00     0.026 A 
HETATM   29  C   UNL     1       5.692  29.071  51.760  1.00  0.00     0.002 A 
HETATM   30  C   UNL     1       5.668  28.671  53.096  1.00  0.00     0.011 A 
ENDBRANCH   9  23
BRANCH   7  31
HETATM   31  C   UNL     1       2.909  31.038  56.472  1.00  0.00     0.085 C 
BRANCH  31  32
HETATM   32  C   UNL     1       3.351  32.111  55.473  1.00  0.00     0.034 C 
BRANCH  32  33
HETATM   33  C   UNL     1       2.509  32.179  54.201  1.00  0.00     0.164 C 
BRANCH  33  34
HETATM   34  O   UNL     1       2.773  31.072  53.352  1.00  0.00    -0.401 OA
HETATM   35  H   UNL     1       3.526  30.591  53.748  1.00  0.00     0.209 HD
ENDBRANCH  33  34
ENDBRANCH  32  33
ENDBRANCH  31  32
ENDBRANCH   7  31
TORSDOF 7
ENDMDL
MODEL 3
REMARK VINA RESULT:      -9.0      7.072     11.068
REMARK  7 active torsions:
REMARK  status: ('A' for Active; 'I' for Inactive)
REMARK    1  A    between atoms: C_7  and  C_8 
REMARK    2  A    between atoms: C_8  and  C_9 
REMARK    3  A    between atoms: C_9  and  C_10 
REMARK    4  A    between atoms: C_10  and  O_11 
REMARK    5  A    between atoms: C_13  and  C_14 
REMARK    6  A    between atoms: C_22  and  C_23 
REMARK       I    between atoms: C_23  and  N_24 
REMARK    7  A    between atoms: N_24  and  C_25 
ROOT
HETATM    1  C   UNL     1       3.242  28.404  52.677  1.00  0.00     0.070 C 
HETATM    2  C   UNL     1       4.113  27.621  53.630  1.00  0.00     0.037 C 
HETATM    3  N   UNL     1       4.518  26.372  53.174  1.00  0.00    -0.192 N 
HETATM    4  C   UNL     1       5.456  25.630  53.790  1.00  0.00     0.726 A 
HETATM    5  N   UNL     1       5.960  26.043  54.992  1.00  0.00    -0.083 N 
HETATM    6  N   UNL     1       6.909  25.194  55.445  1.00  0.00    -0.140 NA
HETATM    7  C   UNL     1       6.949  24.305  54.438  1.00  0.00     0.166 A 
HETATM    8  N   UNL     1       6.058  24.531  53.417  1.00  0.00    -0.046 NA
HETATM    9  C   UNL     1       5.511  27.257  55.694  1.00  0.00     0.204 C 
HETATM   10  C   UNL     1       4.545  28.075  54.836  1.00  0.00     0.062 C 
HETATM   11  H   UNL     1       4.252  26.108  52.228  1.00  0.00     0.184 HD
ENDROOT
BRANCH  10  12
HETATM   12  C   UNL     1       4.129  29.402  55.368  1.00  0.00     0.256 C 
HETATM   13  N   UNL     1       4.903  30.446  54.903  1.00  0.00    -0.323 N 
HETATM   14  H   UNL     1       5.622  30.227  54.225  1.00  0.00     0.169 HD
HETATM   15  O   UNL     1       3.172  29.480  56.124  1.00  0.00    -0.267 OA
BRANCH  13  16
HETATM   16  C   UNL     1       4.862  31.787  55.345  1.00  0.00     0.035 A 
HETATM   17  C   UNL     1       4.540  32.872  54.522  1.00  0.00     0.032 A 
HETATM   18  C   UNL     1       4.478  34.168  55.043  1.00  0.00     0.044 A 
HETATM   19  C   UNL     1       4.738  34.380  56.389  1.00  0.00     0.116 A 
HETATM   20  F   UNL     1       4.668  35.621  56.890  1.00  0.00    -0.206 F 
HETATM   21  C   UNL     1       5.066  33.321  57.223  1.00  0.00     0.044 A 
HETATM   22  C   UNL     1       5.130  32.025  56.702  1.00  0.00     0.032 A 
ENDBRANCH  13  16
ENDBRANCH  10  12
BRANCH   9  23
HETATM   23  C   UNL     1       6.701  28.002  56.299  1.00  0.00    -0.005 A 
HETATM   24  C   UNL     1       7.818  28.443  55.556  1.00  0.00     0.064 A 
HETATM   25 CL   UNL     1       7.911  28.152  53.846  1.00  0.00    -0.082 Cl
HETATM   26  C   UNL     1       8.861  29.129  56.205  1.00  0.00     0.056 A 
HETATM   27 CL   UNL     1      10.260  29.709  55.364  1.00  0.00    -0.083 Cl
HETATM   28  C   UNL     1       8.805  29.372  57.580  1.00  0.00     0.026 A 
HETATM   29  C   UNL     1       7.713  28.936  58.321  1.00  0.00     0.002 A 
HETATM   30  C   UNL     1       6.672  28.258  57.688  1.00  0.00     0.011 A 
ENDBRANCH   9  23
BRANCH   7  31
HETATM   31  C   UNL     1       7.965  23.225  54.374  1.00  0.00     0.085 C 
BRANCH  31  32
HETATM   32  C   UNL     1       7.739  22.271  53.198  1.00  0.00     0.034 C 
BRANCH  32  33
HETATM   33  C   UNL     1       7.862  20.790  53.549  1.00  0.00     0.164 C 
BRANCH  33  34
HETATM   34  O   UNL     1       8.111  20.007  52.392  1.00  0.00    -0.401 OA
HETATM   35  H   UNL     1       8.550  19.189  52.698  1.00  0.00     0.209 HD
ENDBRANCH  33  34
ENDBRANCH  32  33
ENDBRANCH  31  32
ENDBRANCH   7  31
TORSDOF 7
ENDMDL
MODEL 4
REMARK VINA RESULT:      -8.7      7.831     10.491
REMARK  7 active torsions:
REMARK  status: ('A' for Active; 'I' for Inactive)
REMARK    1  A    between atoms: C_7  and  C_8 
REMARK    2  A    between atoms: C_8  and  C_9 
REMARK    3  A    between atoms: C_9  and  C_10 
REMARK    4  A    between atoms: C_10  and  O_11 
REMARK    5  A    between atoms: C_13  and  C_14 
REMARK    6  A    between atoms: C_22  and  C_23 
REMARK       I    between atoms: C_23  and  N_24 
REMARK    7  A    between atoms: N_24  and  C_25 
ROOT
HETATM    1  C   UNL     1       4.657  24.716  51.705  1.00  0.00     0.070 C 
HETATM    2  C   UNL     1       5.016  26.068  52.275  1.00  0.00     0.037 C 
HETATM    3  N   UNL     1       4.084  27.074  52.048  1.00  0.00    -0.192 N 
HETATM    4  C   UNL     1       4.133  28.275  52.652  1.00  0.00     0.726 A 
HETATM    5  N   UNL     1       5.209  28.593  53.433  1.00  0.00    -0.083 N 
HETATM    6  N   UNL     1       5.073  29.821  53.981  1.00  0.00    -0.140 NA
HETATM    7  C   UNL     1       3.865  30.172  53.509  1.00  0.00     0.166 A 
HETATM    8  N   UNL     1       3.269  29.257  52.676  1.00  0.00    -0.046 NA
HETATM    9  C   UNL     1       6.363  27.703  53.637  1.00  0.00     0.204 C 
HETATM   10  C   UNL     1       6.129  26.328  53.010  1.00  0.00     0.062 C 
HETATM   11  H   UNL     1       3.220  26.817  51.576  1.00  0.00     0.184 HD
ENDROOT
BRANCH  10  12
HETATM   12  C   UNL     1       7.157  25.283  53.270  1.00  0.00     0.256 C 
HETATM   13  N   UNL     1       6.704  24.255  54.070  1.00  0.00    -0.323 N 
HETATM   14  H   UNL     1       5.732  24.277  54.351  1.00  0.00     0.169 HD
HETATM   15  O   UNL     1       8.269  25.388  52.771  1.00  0.00    -0.267 OA
BRANCH  13  16
HETATM   16  C   UNL     1       7.480  23.211  54.622  1.00  0.00     0.035 A 
HETATM   17  C   UNL     1       7.920  23.182  55.950  1.00  0.00     0.032 A 
HETATM   18  C   UNL     1       8.649  22.092  56.436  1.00  0.00     0.044 A 
HETATM   19  C   UNL     1       8.939  21.030  55.591  1.00  0.00     0.116 A 
HETATM   20  F   UNL     1       9.629  19.981  56.060  1.00  0.00    -0.206 F 
HETATM   21  C   UNL     1       8.519  21.039  54.269  1.00  0.00     0.044 A 
HETATM   22  C   UNL     1       7.791  22.130  53.783  1.00  0.00     0.032 A 
ENDBRANCH  13  16
ENDBRANCH  10  12
BRANCH   9  23
HETATM   23  C   UNL     1       6.814  27.729  55.098  1.00  0.00    -0.005 A 
HETATM   24  C   UNL     1       8.032  28.290  55.539  1.00  0.00     0.064 A 
HETATM   25 CL   UNL     1       9.135  29.008  54.405  1.00  0.00    -0.082 Cl
HETATM   26  C   UNL     1       8.354  28.273  56.909  1.00  0.00     0.056 A 
HETATM   27 CL   UNL     1       9.823  28.946  57.531  1.00  0.00    -0.083 Cl
HETATM   28  C   UNL     1       7.480  27.699  57.836  1.00  0.00     0.026 A 
HETATM   29  C   UNL     1       6.281  27.138  57.412  1.00  0.00     0.002 A 
HETATM   30  C   UNL     1       5.952  27.153  56.057  1.00  0.00     0.011 A 
ENDBRANCH   9  23
BRANCH   7  31
HETATM   31  C   UNL     1       3.168  31.406  53.952  1.00  0.00     0.085 C 
BRANCH  31  32
HETATM   32  C   UNL     1       3.420  31.727  55.428  1.00  0.00     0.034 C 
BRANCH  32  33
HETATM   33  C   UNL     1       2.783  30.744  56.408  1.00  0.00     0.164 C 
BRANCH  33  34
HETATM   34  O   UNL     1       3.747  29.839  56.926  1.00  0.00    -0.401 OA
HETATM   35  H   UNL     1       4.581  30.017  56.448  1.00  0.00     0.209 HD
ENDBRANCH  33  34
ENDBRANCH  32  33
ENDBRANCH  31  32
ENDBRANCH   7  31
TORSDOF 7
ENDMDL
MODEL 5
REMARK VINA RESULT:      -8.5      8.962     11.899
REMARK  7 active torsions:
REMARK  status: ('A' for Active; 'I' for Inactive)
REMARK    1  A    between atoms: C_7  and  C_8 
REMARK    2  A    between atoms: C_8  and  C_9 
REMARK    3  A    between atoms: C_9  and  C_10 
REMARK    4  A    between atoms: C_10  and  O_11 
REMARK    5  A    between atoms: C_13  and  C_14 
REMARK    6  A    between atoms: C_22  and  C_23 
REMARK       I    between atoms: C_23  and  N_24 
REMARK    7  A    between atoms: N_24  and  C_25 
ROOT
HETATM    1  C   UNL     1       4.259  24.116  51.407  1.00  0.00     0.070 C 
HETATM    2  C   UNL     1       4.963  25.452  51.414  1.00  0.00     0.037 C 
HETATM    3  N   UNL     1       4.605  26.316  50.385  1.00  0.00    -0.192 N 
HETATM    4  C   UNL     1       4.967  27.611  50.349  1.00  0.00     0.726 A 
HETATM    5  N   UNL     1       5.834  28.095  51.290  1.00  0.00    -0.083 N 
HETATM    6  N   UNL     1       6.059  29.416  51.117  1.00  0.00    -0.140 NA
HETATM    7  C   UNL     1       5.262  29.670  50.066  1.00  0.00     0.166 A 
HETATM    8  N   UNL     1       4.593  28.583  49.558  1.00  0.00    -0.046 NA
HETATM    9  C   UNL     1       6.439  27.267  52.346  1.00  0.00     0.204 C 
HETATM   10  C   UNL     1       5.850  25.856  52.360  1.00  0.00     0.062 C 
HETATM   11  H   UNL     1       3.868  26.013  49.752  1.00  0.00     0.184 HD
ENDROOT
BRANCH  10  12
HETATM   12  C   UNL     1       6.270  24.961  53.473  1.00  0.00     0.256 C 
HETATM   13  N   UNL     1       7.413  24.239  53.196  1.00  0.00    -0.323 N 
HETATM   14  H   UNL     1       7.875  24.420  52.314  1.00  0.00     0.169 HD
HETATM   15  O   UNL     1       5.622  24.937  54.510  1.00  0.00    -0.267 OA
BRANCH  13  16
HETATM   16  C   UNL     1       7.964  23.199  53.977  1.00  0.00     0.035 A 
HETATM   17  C   UNL     1       8.450  23.372  55.278  1.00  0.00     0.032 A 
HETATM   18  C   UNL     1       8.941  22.283  56.006  1.00  0.00     0.044 A 
HETATM   19  C   UNL     1       8.946  21.020  55.431  1.00  0.00     0.116 A 
HETATM   20  F   UNL     1       9.407  19.975  56.132  1.00  0.00    -0.206 F 
HETATM   21  C   UNL     1       8.475  20.826  54.141  1.00  0.00     0.044 A 
HETATM   22  C   UNL     1       7.986  21.915  53.412  1.00  0.00     0.032 A 
ENDBRANCH  13  16
ENDBRANCH  10  12
BRANCH   9  23
HETATM   23  C   UNL     1       6.461  28.021  53.677  1.00  0.00    -0.005 A 
HETATM   24  C   UNL     1       5.306  28.502  54.331  1.00  0.00     0.064 A 
HETATM   25 CL   UNL     1       3.732  28.260  53.636  1.00  0.00    -0.082 Cl
HETATM   26  C   UNL     1       5.429  29.179  55.559  1.00  0.00     0.056 A 
HETATM   27 CL   UNL     1       4.062  29.792  56.427  1.00  0.00    -0.083 Cl
HETATM   28  C   UNL     1       6.686  29.384  56.133  1.00  0.00     0.026 A 
HETATM   29  C   UNL     1       7.830  28.920  55.494  1.00  0.00     0.002 A 
HETATM   30  C   UNL     1       7.719  28.246  54.279  1.00  0.00     0.011 A 
ENDBRANCH   9  23
BRANCH   7  31
HETATM   31  C   UNL     1       5.025  31.047  49.565  1.00  0.00     0.085 C 
BRANCH  31  32
HETATM   32  C   UNL     1       5.492  32.121  50.551  1.00  0.00     0.034 C 
BRANCH  32  33
HETATM   33  C   UNL     1       4.481  32.461  51.644  1.00  0.00     0.164 C 
BRANCH  33  34
HETATM   34  O   UNL     1       4.669  31.642  52.788  1.00  0.00    -0.401 OA
HETATM   35  H   UNL     1       4.204  32.083  53.526  1.00  0.00     0.209 HD
ENDBRANCH  33  34
ENDBRANCH  32  33
ENDBRANCH  31  32
ENDBRANCH   7  31
TORSDOF 7
ENDMDL
MODEL 6
REMARK VINA RESULT:      -8.4      5.073      9.530
REMARK  7 active torsions:
REMARK  status: ('A' for Active; 'I' for Inactive)
REMARK    1  A    between atoms: C_7  and  C_8 
REMARK    2  A    between atoms: C_8  and  C_9 
REMARK    3  A    between atoms: C_9  and  C_10 
REMARK    4  A    between atoms: C_10  and  O_11 
REMARK    5  A    between atoms: C_13  and  C_14 
REMARK    6  A    between atoms: C_22  and  C_23 
REMARK       I    between atoms: C_23  and  N_24 
REMARK    7  A    between atoms: N_24  and  C_25 
ROOT
HETATM    1  C   UNL     1       3.601  28.782  55.702  1.00  0.00     0.070 C 
HETATM    2  C   UNL     1       4.803  28.260  56.452  1.00  0.00     0.037 C 
HETATM    3  N   UNL     1       5.009  26.889  56.361  1.00  0.00    -0.192 N 
HETATM    4  C   UNL     1       6.133  26.282  56.785  1.00  0.00     0.726 A 
HETATM    5  N   UNL     1       7.078  27.007  57.457  1.00  0.00    -0.083 N 
HETATM    6  N   UNL     1       8.146  26.243  57.778  1.00  0.00    -0.140 NA
HETATM    7  C   UNL     1       7.786  25.069  57.233  1.00  0.00     0.166 A 
HETATM    8  N   UNL     1       6.550  25.052  56.633  1.00  0.00    -0.046 NA
HETATM    9  C   UNL     1       6.932  28.434  57.786  1.00  0.00     0.204 C 
HETATM   10  C   UNL     1       5.683  29.034  57.140  1.00  0.00     0.062 C 
HETATM   11  H   UNL     1       4.384  26.358  55.759  1.00  0.00     0.184 HD
ENDROOT
BRANCH  10  12
HETATM   12  C   UNL     1       5.496  30.505  57.272  1.00  0.00     0.256 C 
HETATM   13  N   UNL     1       5.040  30.890  58.516  1.00  0.00    -0.323 N 
HETATM   14  H   UNL     1       4.932  30.168  59.216  1.00  0.00     0.169 HD
HETATM   15  O   UNL     1       5.760  31.238  56.330  1.00  0.00    -0.267 OA
BRANCH  13  16
HETATM   16  C   UNL     1       4.616  32.184  58.896  1.00  0.00     0.035 A 
HETATM   17  C   UNL     1       3.668  32.934  58.191  1.00  0.00     0.032 A 
HETATM   18  C   UNL     1       3.267  34.191  58.653  1.00  0.00     0.044 A 
HETATM   19  C   UNL     1       3.816  34.700  59.822  1.00  0.00     0.116 A 
HETATM   20  F   UNL     1       3.424  35.899  60.270  1.00  0.00    -0.206 F 
HETATM   21  C   UNL     1       4.763  33.977  60.534  1.00  0.00     0.044 A 
HETATM   22  C   UNL     1       5.165  32.720  60.070  1.00  0.00     0.032 A 
ENDBRANCH  13  16
ENDBRANCH  10  12
BRANCH   9  23
HETATM   23  C   UNL     1       8.251  29.176  57.565  1.00  0.00    -0.005 A 
HETATM   24  C   UNL     1       8.821  30.070  58.497  1.00  0.00     0.064 A 
HETATM   25 CL   UNL     1       8.027  30.395  60.007  1.00  0.00    -0.082 Cl
HETATM   26  C   UNL     1      10.045  30.699  58.203  1.00  0.00     0.056 A 
HETATM   27 CL   UNL     1      10.813  31.802  59.296  1.00  0.00    -0.083 Cl
HETATM   28  C   UNL     1      10.698  30.451  56.993  1.00  0.00     0.026 A 
HETATM   29  C   UNL     1      10.143  29.577  56.066  1.00  0.00     0.002 A 
HETATM   30  C   UNL     1       8.932  28.947  56.348  1.00  0.00     0.011 A 
ENDBRANCH   9  23
BRANCH   7  31
HETATM   31  C   UNL     1       8.708  23.907  57.173  1.00  0.00     0.085 C 
BRANCH  31  32
HETATM   32  C   UNL     1       8.236  22.829  56.193  1.00  0.00     0.034 C 
BRANCH  32  33
HETATM   33  C   UNL     1       8.463  23.167  54.722  1.00  0.00     0.164 C 
BRANCH  33  34
HETATM   34  O   UNL     1       7.231  23.388  54.051  1.00  0.00    -0.401 OA
HETATM   35  H   UNL     1       7.168  22.707  53.352  1.00  0.00     0.209 HD
ENDBRANCH  33  34
ENDBRANCH  32  33
ENDBRANCH  31  32
ENDBRANCH   7  31
TORSDOF 7
ENDMDL
MODEL 7
REMARK VINA RESULT:      -8.3      5.969      8.781
REMARK  7 active torsions:
REMARK  status: ('A' for Active; 'I' for Inactive)
REMARK    1  A    between atoms: C_7  and  C_8 
REMARK    2  A    between atoms: C_8  and  C_9 
REMARK    3  A    between atoms: C_9  and  C_10 
REMARK    4  A    between atoms: C_10  and  O_11 
REMARK    5  A    between atoms: C_13  and  C_14 
REMARK    6  A    between atoms: C_22  and  C_23 
REMARK       I    between atoms: C_23  and  N_24 
REMARK    7  A    between atoms: N_24  and  C_25 
ROOT
HETATM    1  C   UNL     1       4.524  25.374  57.240  1.00  0.00     0.070 C 
HETATM    2  C   UNL     1       4.900  26.680  56.582  1.00  0.00     0.037 C 
HETATM    3  N   UNL     1       3.953  27.692  56.687  1.00  0.00    -0.192 N 
HETATM    4  C   UNL     1       4.198  28.971  56.348  1.00  0.00     0.726 A 
HETATM    5  N   UNL     1       5.385  29.294  55.750  1.00  0.00    -0.083 N 
HETATM    6  N   UNL     1       5.468  30.622  55.511  1.00  0.00    -0.140 NA
HETATM    7  C   UNL     1       4.301  31.042  56.026  1.00  0.00     0.166 A 
HETATM    8  N   UNL     1       3.489  30.055  56.530  1.00  0.00    -0.046 NA
HETATM    9  C   UNL     1       6.425  28.309  55.413  1.00  0.00     0.204 C 
HETATM   10  C   UNL     1       6.085  26.923  55.963  1.00  0.00     0.062 C 
HETATM   11  H   UNL     1       3.120  27.500  57.239  1.00  0.00     0.184 HD
ENDROOT
BRANCH  10  12
HETATM   12  C   UNL     1       7.125  25.867  55.819  1.00  0.00     0.256 C 
HETATM   13  N   UNL     1       6.870  24.984  54.790  1.00  0.00    -0.323 N 
HETATM   14  H   UNL     1       6.057  25.163  54.214  1.00  0.00     0.169 HD
HETATM   15  O   UNL     1       8.092  25.861  56.567  1.00  0.00    -0.267 OA
BRANCH  13  16
HETATM   16  C   UNL     1       7.576  23.793  54.506  1.00  0.00     0.035 A 
HETATM   17  C   UNL     1       8.362  23.110  55.441  1.00  0.00     0.032 A 
HETATM   18  C   UNL     1       8.997  21.912  55.097  1.00  0.00     0.044 A 
HETATM   19  C   UNL     1       8.845  21.397  53.818  1.00  0.00     0.116 A 
HETATM   20  F   UNL     1       9.444  20.244  53.492  1.00  0.00    -0.206 F 
HETATM   21  C   UNL     1       8.075  22.060  52.873  1.00  0.00     0.044 A 
HETATM   22  C   UNL     1       7.442  23.259  53.216  1.00  0.00     0.032 A 
ENDBRANCH  13  16
ENDBRANCH  10  12
BRANCH   9  23
HETATM   23  C   UNL     1       7.815  28.860  55.735  1.00  0.00    -0.005 A 
HETATM   24  C   UNL     1       8.191  29.366  56.998  1.00  0.00     0.064 A 
HETATM   25 CL   UNL     1       7.055  29.396  58.311  1.00  0.00    -0.082 Cl
HETATM   26  C   UNL     1       9.499  29.845  57.197  1.00  0.00     0.056 A 
HETATM   27 CL   UNL     1      10.041  30.473  58.718  1.00  0.00    -0.083 Cl
HETATM   28  C   UNL     1      10.428  29.830  56.153  1.00  0.00     0.026 A 
HETATM   29  C   UNL     1      10.066  29.340  54.903  1.00  0.00     0.002 A 
HETATM   30  C   UNL     1       8.773  28.861  54.696  1.00  0.00     0.011 A 
ENDBRANCH   9  23
BRANCH   7  31
HETATM   31  C   UNL     1       3.964  32.482  56.154  1.00  0.00     0.085 C 
BRANCH  31  32
HETATM   32  C   UNL     1       3.695  32.899  57.603  1.00  0.00     0.034 C 
BRANCH  32  33
HETATM   33  C   UNL     1       4.793  32.506  58.589  1.00  0.00     0.164 C 
BRANCH  33  34
HETATM   34  O   UNL     1       4.400  31.392  59.377  1.00  0.00    -0.401 OA
HETATM   35  H   UNL     1       3.698  30.931  58.877  1.00  0.00     0.209 HD
ENDBRANCH  33  34
ENDBRANCH  32  33
ENDBRANCH  31  32
ENDBRANCH   7  31
TORSDOF 7
ENDMDL
MODEL 8
REMARK VINA RESULT:      -8.3      8.604     12.066
REMARK  7 active torsions:
REMARK  status: ('A' for Active; 'I' for Inactive)
REMARK    1  A    between atoms: C_7  and  C_8 
REMARK    2  A    between atoms: C_8  and  C_9 
REMARK    3  A    between atoms: C_9  and  C_10 
REMARK    4  A    between atoms: C_10  and  O_11 
REMARK    5  A    between atoms: C_13  and  C_14 
REMARK    6  A    between atoms: C_22  and  C_23 
REMARK       I    between atoms: C_23  and  N_24 
REMARK    7  A    between atoms: N_24  and  C_25 
ROOT
HETATM    1  C   UNL     1       4.551  24.334  51.549  1.00  0.00     0.070 C 
HETATM    2  C   UNL     1       5.086  25.741  51.672  1.00  0.00     0.037 C 
HETATM    3  N   UNL     1       4.878  26.552  50.563  1.00  0.00    -0.192 N 
HETATM    4  C   UNL     1       5.096  27.880  50.569  1.00  0.00     0.726 A 
HETATM    5  N   UNL     1       5.669  28.464  51.665  1.00  0.00    -0.083 N 
HETATM    6  N   UNL     1       5.783  29.801  51.506  1.00  0.00    -0.140 NA
HETATM    7  C   UNL     1       5.222  29.957  50.295  1.00  0.00     0.166 A 
HETATM    8  N   UNL     1       4.808  28.799  49.684  1.00  0.00    -0.046 NA
HETATM    9  C   UNL     1       6.106  27.716  52.856  1.00  0.00     0.204 C 
HETATM   10  C   UNL     1       5.687  26.247  52.780  1.00  0.00     0.062 C 
HETATM   11  H   UNL     1       4.341  26.165  49.791  1.00  0.00     0.184 HD
ENDROOT
BRANCH  10  12
HETATM   12  C   UNL     1       5.937  25.412  53.987  1.00  0.00     0.256 C 
HETATM   13  N   UNL     1       7.153  24.758  53.958  1.00  0.00    -0.323 N 
HETATM   14  H   UNL     1       7.763  24.944  53.172  1.00  0.00     0.169 HD
HETATM   15  O   UNL     1       5.107  25.374  54.883  1.00  0.00    -0.267 OA
BRANCH  13  16
HETATM   16  C   UNL     1       7.604  23.777  54.869  1.00  0.00     0.035 A 
HETATM   17  C   UNL     1       8.031  24.057  56.171  1.00  0.00     0.032 A 
HETATM   18  C   UNL     1       8.423  23.025  57.030  1.00  0.00     0.044 A 
HETATM   19  C   UNL     1       8.388  21.711  56.585  1.00  0.00     0.116 A 
HETATM   20  F   UNL     1       8.754  20.722  57.411  1.00  0.00    -0.206 F 
HETATM   21  C   UNL     1       7.974  21.410  55.295  1.00  0.00     0.044 A 
HETATM   22  C   UNL     1       7.584  22.442  54.436  1.00  0.00     0.032 A 
ENDBRANCH  13  16
ENDBRANCH  10  12
BRANCH   9  23
HETATM   23  C   UNL     1       5.744  28.475  54.132  1.00  0.00    -0.005 A 
HETATM   24  C   UNL     1       6.675  28.831  55.132  1.00  0.00     0.064 A 
HETATM   25 CL   UNL     1       8.352  28.408  54.966  1.00  0.00    -0.082 Cl
HETATM   26  C   UNL     1       6.244  29.537  56.270  1.00  0.00     0.056 A 
HETATM   27 CL   UNL     1       7.325  30.016  57.536  1.00  0.00    -0.083 Cl
HETATM   28  C   UNL     1       4.899  29.885  56.422  1.00  0.00     0.026 A 
HETATM   29  C   UNL     1       3.972  29.535  55.447  1.00  0.00     0.002 A 
HETATM   30  C   UNL     1       4.390  28.837  54.314  1.00  0.00     0.011 A 
ENDBRANCH   9  23
BRANCH   7  31
HETATM   31  C   UNL     1       4.956  31.296  49.712  1.00  0.00     0.085 C 
BRANCH  31  32
HETATM   32  C   UNL     1       3.773  31.291  48.739  1.00  0.00     0.034 C 
BRANCH  32  33
HETATM   33  C   UNL     1       4.166  31.325  47.264  1.00  0.00     0.164 C 
BRANCH  33  34
HETATM   34  O   UNL     1       4.603  30.050  46.819  1.00  0.00    -0.401 OA
HETATM   35  H   UNL     1       3.798  29.514  46.677  1.00  0.00     0.209 HD
ENDBRANCH  33  34
ENDBRANCH  32  33
ENDBRANCH  31  32
ENDBRANCH   7  31
TORSDOF 7
ENDMDL
MODEL 9
REMARK VINA RESULT:      -8.1      2.030      2.404
REMARK  7 active torsions:
REMARK  status: ('A' for Active; 'I' for Inactive)
REMARK    1  A    between atoms: C_7  and  C_8 
REMARK    2  A    between atoms: C_8  and  C_9 
REMARK    3  A    between atoms: C_9  and  C_10 
REMARK    4  A    between atoms: C_10  and  O_11 
REMARK    5  A    between atoms: C_13  and  C_14 
REMARK    6  A    between atoms: C_22  and  C_23 
REMARK       I    between atoms: C_23  and  N_24 
REMARK    7  A    between atoms: N_24  and  C_25 
ROOT
HETATM    1  C   UNL     1       8.686  32.246  60.176  1.00  0.00     0.070 C 
HETATM    2  C   UNL     1       7.557  32.424  61.164  1.00  0.00     0.037 C 
HETATM    3  N   UNL     1       7.946  32.547  62.493  1.00  0.00    -0.192 N 
HETATM    4  C   UNL     1       7.106  32.917  63.477  1.00  0.00     0.726 A 
HETATM    5  N   UNL     1       5.773  33.062  63.205  1.00  0.00    -0.083 N 
HETATM    6  N   UNL     1       5.091  33.466  64.300  1.00  0.00    -0.140 NA
HETATM    7  C   UNL     1       6.091  33.577  65.191  1.00  0.00     0.166 A 
HETATM    8  N   UNL     1       7.336  33.230  64.725  1.00  0.00    -0.046 NA
HETATM    9  C   UNL     1       5.174  32.802  61.886  1.00  0.00     0.204 C 
HETATM   10  C   UNL     1       6.244  32.519  60.831  1.00  0.00     0.062 C 
HETATM   11  H   UNL     1       8.944  32.566  62.691  1.00  0.00     0.184 HD
ENDROOT
BRANCH  10  12
HETATM   12  C   UNL     1       5.781  32.384  59.421  1.00  0.00     0.256 C 
HETATM   13  N   UNL     1       5.069  31.226  59.187  1.00  0.00    -0.323 N 
HETATM   14  H   UNL     1       4.887  30.623  59.979  1.00  0.00     0.169 HD
HETATM   15  O   UNL     1       6.032  33.267  58.613  1.00  0.00    -0.267 OA
BRANCH  13  16
HETATM   16  C   UNL     1       4.642  30.739  57.931  1.00  0.00     0.035 A 
HETATM   17  C   UNL     1       3.532  31.234  57.237  1.00  0.00     0.032 A 
HETATM   18  C   UNL     1       3.196  30.730  55.977  1.00  0.00     0.044 A 
HETATM   19  C   UNL     1       3.972  29.729  55.409  1.00  0.00     0.116 A 
HETATM   20  F   UNL     1       3.656  29.253  54.197  1.00  0.00    -0.206 F 
HETATM   21  C   UNL     1       5.074  29.219  56.081  1.00  0.00     0.044 A 
HETATM   22  C   UNL     1       5.408  29.722  57.342  1.00  0.00     0.032 A 
ENDBRANCH  13  16
ENDBRANCH  10  12
BRANCH   9  23
HETATM   23  C   UNL     1       4.133  33.869  61.547  1.00  0.00    -0.005 A 
HETATM   24  C   UNL     1       4.382  35.259  61.589  1.00  0.00     0.064 A 
HETATM   25 CL   UNL     1       5.945  35.861  62.048  1.00  0.00    -0.082 Cl
HETATM   26  C   UNL     1       3.358  36.162  61.251  1.00  0.00     0.056 A 
HETATM   27 CL   UNL     1       3.586  37.879  61.269  1.00  0.00    -0.083 Cl
HETATM   28  C   UNL     1       2.094  35.697  60.880  1.00  0.00     0.026 A 
HETATM   29  C   UNL     1       1.836  34.332  60.841  1.00  0.00     0.002 A 
HETATM   30  C   UNL     1       2.844  33.428  61.172  1.00  0.00     0.011 A 
ENDBRANCH   9  23
BRANCH   7  31
HETATM   31  C   UNL     1       5.886  34.151  66.544  1.00  0.00     0.085 C 
BRANCH  31  32
HETATM   32  C   UNL     1       4.406  34.244  66.928  1.00  0.00     0.034 C 
BRANCH  32  33
HETATM   33  C   UNL     1       3.770  35.608  66.676  1.00  0.00     0.164 C 
BRANCH  33  34
HETATM   34  O   UNL     1       3.239  35.693  65.362  1.00  0.00    -0.401 OA
HETATM   35  H   UNL     1       2.500  35.055  65.319  1.00  0.00     0.209 HD
ENDBRANCH  33  34
ENDBRANCH  32  33
ENDBRANCH  31  32
ENDBRANCH   7  31
TORSDOF 7
ENDMDL
MODEL 10
REMARK VINA RESULT:      -7.9      4.432      6.088
REMARK  7 active torsions:
REMARK  status: ('A' for Active; 'I' for Inactive)
REMARK    1  A    between atoms: C_7  and  C_8 
REMARK    2  A    between atoms: C_8  and  C_9 
REMARK    3  A    between atoms: C_9  and  C_10 
REMARK    4  A    between atoms: C_10  and  O_11 
REMARK    5  A    between atoms: C_13  and  C_14 
REMARK    6  A    between atoms: C_22  and  C_23 
REMARK       I    between atoms: C_23  and  N_24 
REMARK    7  A    between atoms: N_24  and  C_25 
ROOT
HETATM    1  C   UNL     1       8.899  30.249  58.938  1.00  0.00     0.070 C 
HETATM    2  C   UNL     1       7.429  30.534  58.743  1.00  0.00     0.037 C 
HETATM    3  N   UNL     1       6.891  31.487  59.601  1.00  0.00    -0.192 N 
HETATM    4  C   UNL     1       5.664  32.015  59.440  1.00  0.00     0.726 A 
HETATM    5  N   UNL     1       4.838  31.517  58.471  1.00  0.00    -0.083 N 
HETATM    6  N   UNL     1       3.664  32.187  58.435  1.00  0.00    -0.140 NA
HETATM    7  C   UNL     1       3.870  33.103  59.396  1.00  0.00     0.166 A 
HETATM    8  N   UNL     1       5.077  33.015  60.045  1.00  0.00    -0.046 NA
HETATM    9  C   UNL     1       5.194  30.392  57.591  1.00  0.00     0.204 C 
HETATM   10  C   UNL     1       6.651  29.969  57.783  1.00  0.00     0.062 C 
HETATM   11  H   UNL     1       7.527  31.954  60.242  1.00  0.00     0.184 HD
ENDROOT
BRANCH  10  12
HETATM   12  C   UNL     1       7.182  28.938  56.850  1.00  0.00     0.256 C 
HETATM   13  N   UNL     1       6.888  27.646  57.236  1.00  0.00    -0.323 N 
HETATM   14  H   UNL     1       6.312  27.526  58.059  1.00  0.00     0.169 HD
HETATM   15  O   UNL     1       7.794  29.282  55.849  1.00  0.00    -0.267 OA
BRANCH  13  16
HETATM   16  C   UNL     1       7.386  26.459  56.653  1.00  0.00     0.035 A 
HETATM   17  C   UNL     1       7.073  26.033  55.358  1.00  0.00     0.032 A 
HETATM   18  C   UNL     1       7.639  24.866  54.834  1.00  0.00     0.044 A 
HETATM   19  C   UNL     1       8.520  24.124  55.609  1.00  0.00     0.116 A 
HETATM   20  F   UNL     1       9.071  23.013  55.104  1.00  0.00    -0.206 F 
HETATM   21  C   UNL     1       8.840  24.524  56.898  1.00  0.00     0.044 A 
HETATM   22  C   UNL     1       8.272  25.690  57.422  1.00  0.00     0.032 A 
ENDBRANCH  13  16
ENDBRANCH  10  12
BRANCH   9  23
HETATM   23  C   UNL     1       4.734  30.661  56.158  1.00  0.00    -0.005 A 
HETATM   24  C   UNL     1       4.191  29.677  55.304  1.00  0.00     0.064 A 
HETATM   25 CL   UNL     1       4.011  28.038  55.850  1.00  0.00    -0.082 Cl
HETATM   26  C   UNL     1       3.790  30.026  54.001  1.00  0.00     0.056 A 
HETATM   27 CL   UNL     1       3.109  28.880  52.896  1.00  0.00    -0.083 Cl
HETATM   28  C   UNL     1       3.928  31.339  53.544  1.00  0.00     0.026 A 
HETATM   29  C   UNL     1       4.467  32.315  54.374  1.00  0.00     0.002 A 
HETATM   30  C   UNL     1       4.866  31.980  55.667  1.00  0.00     0.011 A 
ENDBRANCH   9  23
BRANCH   7  31
HETATM   31  C   UNL     1       2.914  34.209  59.654  1.00  0.00     0.085 C 
BRANCH  31  32
HETATM   32  C   UNL     1       3.130  34.869  61.020  1.00  0.00     0.034 C 
BRANCH  32  33
HETATM   33  C   UNL     1       2.149  34.423  62.101  1.00  0.00     0.164 C 
BRANCH  33  34
HETATM   34  O   UNL     1       2.509  33.156  62.630  1.00  0.00    -0.401 OA
HETATM   35  H   UNL     1       2.038  33.066  63.482  1.00  0.00     0.209 HD
ENDBRANCH  33  34
ENDBRANCH  32  33
ENDBRANCH  31  32
ENDBRANCH   7  31
TORSDOF 7
ENDMDL
