MODEL 1
REMARK VINA RESULT:      -9.8      0.000      0.000
REMARK  3 active torsions:
REMARK  status: ('A' for Active; 'I' for Inactive)
REMARK    1  A    between atoms: O_2  and  C_3 
REMARK    2  A    between atoms: C_5  and  N_6 
REMARK       I    between atoms: N_6  and  C_7 
REMARK       I    between atoms: C_7  and  N_8 
REMARK    3  A    between atoms: C_11  and  C_12 
ROOT
HETATM    1  N   UNL     1       7.306  30.678  59.676  1.00  0.00    -0.306 N 
HETATM    2  C   UNL     1       8.127  30.700  58.571  1.00  0.00     0.323 C 
HETATM    3  N   UNL     1       7.900  29.676  57.641  1.00  0.00    -0.330 N 
HETATM    4  C   UNL     1       6.952  28.587  57.866  1.00  0.00     0.155 C 
HETATM    5  C   UNL     1       6.827  27.639  56.719  1.00  0.00     0.001 C 
HETATM    6  C   UNL     1       7.500  27.728  55.560  1.00  0.00    -0.046 C 
HETATM    7  C   UNL     1       8.455  28.869  55.339  1.00  0.00     0.059 C 
HETATM    8  C   UNL     1       8.963  29.439  56.662  1.00  0.00     0.132 C 
HETATM    9  O   UNL     1       9.024  31.524  58.404  1.00  0.00    -0.247 OA
HETATM   10  H   UNL     1       6.656  29.914  59.773  1.00  0.00     0.171 HD
ENDROOT
BRANCH   1  11
HETATM   11  C   UNL     1       7.348  31.520  60.813  1.00  0.00     0.077 A 
HETATM   12  C   UNL     1       6.587  32.681  60.976  1.00  0.00     0.069 A 
HETATM   13  C   UNL     1       6.724  33.457  62.135  1.00  0.00     0.070 A 
HETATM   14  C   UNL     1       7.633  33.074  63.127  1.00  0.00     0.040 A 
HETATM   15  C   UNL     1       8.389  31.914  62.981  1.00  0.00     0.047 A 
HETATM   16  C   UNL     1       8.235  31.148  61.832  1.00  0.00     0.143 A 
HETATM   17  F   UNL     1       8.971  30.034  61.691  1.00  0.00    -0.204 F 
BRANCH  13  18
HETATM   18  O   UNL     1       6.039  34.609  62.414  1.00  0.00    -0.356 OA
HETATM   19  C   UNL     1       5.869  34.938  63.788  1.00  0.00     0.210 C 
ENDBRANCH  13  18
ENDBRANCH   1  11
BRANCH   6  20
HETATM   20  C   UNL     1       7.398  26.777  54.493  1.00  0.00    -0.002 A 
HETATM   21  C   UNL     1       7.625  25.361  54.542  1.00  0.00     0.003 A 
HETATM   22  C   UNL     1       7.392  24.863  53.257  1.00  0.00     0.043 A 
HETATM   23  C   UNL     1       8.016  24.447  55.546  1.00  0.00     0.014 A 
HETATM   24  C   UNL     1       7.512  23.505  52.935  1.00  0.00     0.030 A 
HETATM   25  N   UNL     1       7.054  25.933  52.461  1.00  0.00    -0.364 N 
HETATM   26  C   UNL     1       7.885  22.624  53.953  1.00  0.00     0.002 A 
HETATM   27  C   UNL     1       8.137  23.086  55.242  1.00  0.00     0.001 A 
HETATM   28  H   UNL     1       6.838  25.867  51.477  1.00  0.00     0.165 HD
HETATM   29  C   UNL     1       7.056  27.091  53.194  1.00  0.00     0.101 A 
ENDBRANCH   6  20
TORSDOF 3
ENDMDL
MODEL 2
REMARK VINA RESULT:      -9.8      7.063     10.218
REMARK  3 active torsions:
REMARK  status: ('A' for Active; 'I' for Inactive)
REMARK    1  A    between atoms: O_2  and  C_3 
REMARK    2  A    between atoms: C_5  and  N_6 
REMARK       I    between atoms: N_6  and  C_7 
REMARK       I    between atoms: C_7  and  N_8 
REMARK    3  A    between atoms: C_11  and  C_12 
ROOT
HETATM    1  N   UNL     1       4.345  27.184  50.135  1.00  0.00    -0.306 N 
HETATM    2  C   UNL     1       4.586  27.605  51.424  1.00  0.00     0.323 C 
HETATM    3  N   UNL     1       5.162  26.644  52.266  1.00  0.00    -0.330 N 
HETATM    4  C   UNL     1       5.387  25.258  51.862  1.00  0.00     0.155 C 
HETATM    5  C   UNL     1       6.067  24.422  52.896  1.00  0.00     0.001 C 
HETATM    6  C   UNL     1       6.460  24.851  54.107  1.00  0.00    -0.046 C 
HETATM    7  C   UNL     1       6.240  26.288  54.496  1.00  0.00     0.059 C 
HETATM    8  C   UNL     1       5.093  26.914  53.704  1.00  0.00     0.132 C 
HETATM    9  O   UNL     1       4.294  28.725  51.842  1.00  0.00    -0.247 OA
HETATM   10  H   UNL     1       4.536  26.221  49.905  1.00  0.00     0.171 HD
ENDROOT
BRANCH   1  11
HETATM   11  C   UNL     1       3.704  27.890  49.090  1.00  0.00     0.077 A 
HETATM   12  C   UNL     1       2.358  27.748  48.739  1.00  0.00     0.069 A 
HETATM   13  C   UNL     1       1.828  28.481  47.668  1.00  0.00     0.070 A 
HETATM   14  C   UNL     1       2.651  29.350  46.943  1.00  0.00     0.040 A 
HETATM   15  C   UNL     1       3.989  29.507  47.290  1.00  0.00     0.047 A 
HETATM   16  C   UNL     1       4.499  28.783  48.360  1.00  0.00     0.143 A 
HETATM   17  F   UNL     1       5.793  28.931  48.688  1.00  0.00    -0.204 F 
BRANCH  13  18
HETATM   18  O   UNL     1       0.533  28.433  47.228  1.00  0.00    -0.356 OA
HETATM   19  C   UNL     1       0.231  27.472  46.224  1.00  0.00     0.210 C 
ENDBRANCH  13  18
ENDBRANCH   1  11
BRANCH   6  20
HETATM   20  C   UNL     1       7.067  24.016  55.101  1.00  0.00    -0.002 A 
HETATM   21  C   UNL     1       7.612  22.698  54.940  1.00  0.00     0.003 A 
HETATM   22  C   UNL     1       8.098  22.301  56.188  1.00  0.00     0.043 A 
HETATM   23  C   UNL     1       7.732  21.792  53.863  1.00  0.00     0.014 A 
HETATM   24  C   UNL     1       8.712  21.060  56.405  1.00  0.00     0.030 A 
HETATM   25  N   UNL     1       7.847  23.327  57.069  1.00  0.00    -0.364 N 
HETATM   26  C   UNL     1       8.831  20.193  55.316  1.00  0.00     0.002 A 
HETATM   27  C   UNL     1       8.347  20.550  54.061  1.00  0.00     0.001 A 
HETATM   28  H   UNL     1       8.087  23.310  58.050  1.00  0.00     0.165 HD
HETATM   29  C   UNL     1       7.224  24.364  56.426  1.00  0.00     0.101 A 
ENDBRANCH   6  20
TORSDOF 3
ENDMDL
MODEL 3
REMARK VINA RESULT:      -9.8      1.816      2.717
REMARK  3 active torsions:
REMARK  status: ('A' for Active; 'I' for Inactive)
REMARK    1  A    between atoms: O_2  and  C_3 
REMARK    2  A    between atoms: C_5  and  N_6 
REMARK       I    between atoms: N_6  and  C_7 
REMARK       I    between atoms: C_7  and  N_8 
REMARK    3  A    between atoms: C_11  and  C_12 
ROOT
HETATM    1  N   UNL     1       7.825  29.275  58.312  1.00  0.00    -0.306 N 
HETATM    2  C   UNL     1       7.453  29.137  56.993  1.00  0.00     0.323 C 
HETATM    3  N   UNL     1       7.578  27.842  56.473  1.00  0.00    -0.330 N 
HETATM    4  C   UNL     1       8.170  26.734  57.219  1.00  0.00     0.155 C 
HETATM    5  C   UNL     1       8.148  25.428  56.494  1.00  0.00     0.001 C 
HETATM    6  C   UNL     1       7.644  25.229  55.266  1.00  0.00    -0.046 C 
HETATM    7  C   UNL     1       7.018  26.378  54.522  1.00  0.00     0.059 C 
HETATM    8  C   UNL     1       7.554  27.722  55.014  1.00  0.00     0.132 C 
HETATM    9  O   UNL     1       7.070  30.071  56.290  1.00  0.00    -0.247 OA
HETATM   10  H   UNL     1       8.210  28.474  58.785  1.00  0.00     0.171 HD
ENDROOT
BRANCH   1  11
HETATM   11  C   UNL     1       7.889  30.461  59.082  1.00  0.00     0.077 A 
HETATM   12  C   UNL     1       6.779  31.159  59.569  1.00  0.00     0.069 A 
HETATM   13  C   UNL     1       6.955  32.339  60.303  1.00  0.00     0.070 A 
HETATM   14  C   UNL     1       8.245  32.826  60.541  1.00  0.00     0.040 A 
HETATM   15  C   UNL     1       9.357  32.136  60.071  1.00  0.00     0.047 A 
HETATM   16  C   UNL     1       9.169  30.960  59.354  1.00  0.00     0.143 A 
HETATM   17  F   UNL     1      10.245  30.300  58.894  1.00  0.00    -0.204 F 
BRANCH  13  18
HETATM   18  O   UNL     1       5.956  33.109  60.834  1.00  0.00    -0.356 OA
HETATM   19  C   UNL     1       6.143  33.579  62.164  1.00  0.00     0.210 C 
ENDBRANCH  13  18
ENDBRANCH   1  11
BRANCH   6  20
HETATM   20  C   UNL     1       7.680  23.976  54.572  1.00  0.00    -0.002 A 
HETATM   21  C   UNL     1       7.972  22.675  55.103  1.00  0.00     0.003 A 
HETATM   22  C   UNL     1       7.872  21.768  54.045  1.00  0.00     0.043 A 
HETATM   23  C   UNL     1       8.323  22.173  56.376  1.00  0.00     0.014 A 
HETATM   24  C   UNL     1       8.087  20.392  54.201  1.00  0.00     0.030 A 
HETATM   25  N   UNL     1       7.549  22.489  52.919  1.00  0.00    -0.364 N 
HETATM   26  C   UNL     1       8.416  19.924  55.475  1.00  0.00     0.002 A 
HETATM   27  C   UNL     1       8.536  20.800  56.550  1.00  0.00     0.001 A 
HETATM   28  H   UNL     1       7.420  22.088  52.002  1.00  0.00     0.165 HD
HETATM   29  C   UNL     1       7.432  23.820  53.224  1.00  0.00     0.101 A 
ENDBRANCH   6  20
TORSDOF 3
ENDMDL
MODEL 4
REMARK VINA RESULT:      -9.6      7.278      9.829
REMARK  3 active torsions:
REMARK  status: ('A' for Active; 'I' for Inactive)
REMARK    1  A    between atoms: O_2  and  C_3 
REMARK    2  A    between atoms: C_5  and  N_6 
REMARK       I    between atoms: N_6  and  C_7 
REMARK       I    between atoms: C_7  and  N_8 
REMARK    3  A    between atoms: C_11  and  C_12 
ROOT
HETATM    1  N   UNL     1       5.309  27.487  50.151  1.00  0.00    -0.306 N 
HETATM    2  C   UNL     1       4.938  27.516  51.477  1.00  0.00     0.323 C 
HETATM    3  N   UNL     1       5.563  26.561  52.291  1.00  0.00    -0.330 N 
HETATM    4  C   UNL     1       6.454  25.526  51.770  1.00  0.00     0.155 C 
HETATM    5  C   UNL     1       7.056  24.653  52.821  1.00  0.00     0.001 C 
HETATM    6  C   UNL     1       6.837  24.761  54.141  1.00  0.00    -0.046 C 
HETATM    7  C   UNL     1       5.935  25.847  54.660  1.00  0.00     0.059 C 
HETATM    8  C   UNL     1       4.943  26.310  53.593  1.00  0.00     0.132 C 
HETATM    9  O   UNL     1       4.096  28.288  51.934  1.00  0.00    -0.247 OA
HETATM   10  H   UNL     1       5.941  26.763  49.849  1.00  0.00     0.171 HD
ENDROOT
BRANCH   1  11
HETATM   11  C   UNL     1       4.796  28.261  49.083  1.00  0.00     0.077 A 
HETATM   12  C   UNL     1       5.256  29.531  48.724  1.00  0.00     0.069 A 
HETATM   13  C   UNL     1       4.659  30.223  47.662  1.00  0.00     0.070 A 
HETATM   14  C   UNL     1       3.593  29.643  46.964  1.00  0.00     0.040 A 
HETATM   15  C   UNL     1       3.133  28.375  47.306  1.00  0.00     0.047 A 
HETATM   16  C   UNL     1       3.741  27.696  48.354  1.00  0.00     0.143 A 
HETATM   17  F   UNL     1       3.290  26.476  48.687  1.00  0.00    -0.204 F 
BRANCH  13  18
HETATM   18  O   UNL     1       5.016  31.465  47.212  1.00  0.00    -0.356 OA
HETATM   19  C   UNL     1       4.522  32.580  47.946  1.00  0.00     0.210 C 
ENDBRANCH  13  18
ENDBRANCH   1  11
BRANCH   6  20
HETATM   20  C   UNL     1       7.389  23.878  55.126  1.00  0.00    -0.002 A 
HETATM   21  C   UNL     1       7.828  22.523  54.956  1.00  0.00     0.003 A 
HETATM   22  C   UNL     1       8.298  22.085  56.197  1.00  0.00     0.043 A 
HETATM   23  C   UNL     1       7.866  21.613  53.875  1.00  0.00     0.014 A 
HETATM   24  C   UNL     1       8.816  20.799  56.403  1.00  0.00     0.030 A 
HETATM   25  N   UNL     1       8.136  23.124  57.083  1.00  0.00    -0.364 N 
HETATM   26  C   UNL     1       8.855  19.929  55.311  1.00  0.00     0.002 A 
HETATM   27  C   UNL     1       8.384  20.327  54.063  1.00  0.00     0.001 A 
HETATM   28  H   UNL     1       8.387  23.086  58.061  1.00  0.00     0.165 HD
HETATM   29  C   UNL     1       7.588  24.208  56.450  1.00  0.00     0.101 A 
ENDBRANCH   6  20
TORSDOF 3
ENDMDL
MODEL 5
REMARK VINA RESULT:      -9.6      3.725      9.911
REMARK  3 active torsions:
REMARK  status: ('A' for Active; 'I' for Inactive)
REMARK    1  A    between atoms: O_2  and  C_3 
REMARK    2  A    between atoms: C_5  and  N_6 
REMARK       I    between atoms: N_6  and  C_7 
REMARK       I    between atoms: C_7  and  N_8 
REMARK    3  A    between atoms: C_11  and  C_12 
ROOT
HETATM    1  N   UNL     1       7.659  25.228  55.365  1.00  0.00    -0.306 N 
HETATM    2  C   UNL     1       6.527  25.986  55.569  1.00  0.00     0.323 C 
HETATM    3  N   UNL     1       6.703  27.106  56.393  1.00  0.00    -0.330 N 
HETATM    4  C   UNL     1       7.953  27.399  57.089  1.00  0.00     0.155 C 
HETATM    5  C   UNL     1       7.937  28.675  57.864  1.00  0.00     0.001 C 
HETATM    6  C   UNL     1       6.895  29.519  57.951  1.00  0.00    -0.046 C 
HETATM    7  C   UNL     1       5.624  29.212  57.208  1.00  0.00     0.059 C 
HETATM    8  C   UNL     1       5.484  27.715  56.930  1.00  0.00     0.132 C 
HETATM    9  O   UNL     1       5.423  25.704  55.105  1.00  0.00    -0.247 OA
HETATM   10  H   UNL     1       8.500  25.485  55.857  1.00  0.00     0.171 HD
ENDROOT
BRANCH   1  11
HETATM   11  C   UNL     1       7.777  24.007  54.659  1.00  0.00     0.077 A 
HETATM   12  C   UNL     1       7.742  22.738  55.246  1.00  0.00     0.069 A 
HETATM   13  C   UNL     1       7.893  21.592  54.455  1.00  0.00     0.070 A 
HETATM   14  C   UNL     1       8.091  21.717  53.076  1.00  0.00     0.040 A 
HETATM   15  C   UNL     1       8.118  22.974  52.479  1.00  0.00     0.047 A 
HETATM   16  C   UNL     1       7.955  24.102  53.273  1.00  0.00     0.143 A 
HETATM   17  F   UNL     1       7.990  25.314  52.695  1.00  0.00    -0.204 F 
BRANCH  13  18
HETATM   18  O   UNL     1       7.875  20.299  54.906  1.00  0.00    -0.356 OA
HETATM   19  C   UNL     1       8.365  20.070  56.221  1.00  0.00     0.210 C 
ENDBRANCH  13  18
ENDBRANCH   1  11
BRANCH   6  20
HETATM   20  C   UNL     1       6.888  30.714  58.742  1.00  0.00    -0.002 A 
HETATM   21  C   UNL     1       7.723  31.042  59.862  1.00  0.00     0.003 A 
HETATM   22  C   UNL     1       7.350  32.317  60.293  1.00  0.00     0.043 A 
HETATM   23  C   UNL     1       8.755  30.380  60.565  1.00  0.00     0.014 A 
HETATM   24  C   UNL     1       7.965  32.966  61.372  1.00  0.00     0.030 A 
HETATM   25  N   UNL     1       6.324  32.738  59.479  1.00  0.00    -0.364 N 
HETATM   26  C   UNL     1       8.993  32.292  62.036  1.00  0.00     0.002 A 
HETATM   27  C   UNL     1       9.384  31.016  61.642  1.00  0.00     0.001 A 
HETATM   28  H   UNL     1       5.853  33.627  59.566  1.00  0.00     0.165 HD
HETATM   29  C   UNL     1       6.036  31.780  58.543  1.00  0.00     0.101 A 
ENDBRANCH   6  20
TORSDOF 3
ENDMDL
MODEL 6
REMARK VINA RESULT:      -9.3      3.570      4.829
REMARK  3 active torsions:
REMARK  status: ('A' for Active; 'I' for Inactive)
REMARK    1  A    between atoms: O_2  and  C_3 
REMARK    2  A    between atoms: C_5  and  N_6 
REMARK       I    between atoms: N_6  and  C_7 
REMARK       I    between atoms: C_7  and  N_8 
REMARK    3  A    between atoms: C_11  and  C_12 
ROOT
HETATM    1  N   UNL     1       5.183  28.896  56.774  1.00  0.00    -0.306 N 
HETATM    2  C   UNL     1       6.382  28.427  57.265  1.00  0.00     0.323 C 
HETATM    3  N   UNL     1       6.643  27.075  57.003  1.00  0.00    -0.330 N 
HETATM    4  C   UNL     1       5.678  26.183  56.365  1.00  0.00     0.155 C 
HETATM    5  C   UNL     1       6.187  24.799  56.130  1.00  0.00     0.001 C 
HETATM    6  C   UNL     1       7.413  24.356  56.454  1.00  0.00    -0.046 C 
HETATM    7  C   UNL     1       8.401  25.297  57.089  1.00  0.00     0.059 C 
HETATM    8  C   UNL     1       7.698  26.450  57.804  1.00  0.00     0.132 C 
HETATM    9  O   UNL     1       7.167  29.112  57.918  1.00  0.00    -0.247 OA
HETATM   10  H   UNL     1       4.562  28.241  56.326  1.00  0.00     0.171 HD
ENDROOT
BRANCH   1  11
HETATM   11  C   UNL     1       4.610  30.178  56.948  1.00  0.00     0.077 A 
HETATM   12  C   UNL     1       4.122  30.677  58.160  1.00  0.00     0.069 A 
HETATM   13  C   UNL     1       3.550  31.955  58.216  1.00  0.00     0.070 A 
HETATM   14  C   UNL     1       3.457  32.729  57.055  1.00  0.00     0.040 A 
HETATM   15  C   UNL     1       3.947  32.247  55.845  1.00  0.00     0.047 A 
HETATM   16  C   UNL     1       4.523  30.983  55.805  1.00  0.00     0.143 A 
HETATM   17  F   UNL     1       4.988  30.518  54.634  1.00  0.00    -0.204 F 
BRANCH  13  18
HETATM   18  O   UNL     1       3.040  32.556  59.336  1.00  0.00    -0.356 OA
HETATM   19  C   UNL     1       3.949  33.310  60.130  1.00  0.00     0.210 C 
ENDBRANCH  13  18
ENDBRANCH   1  11
BRANCH   6  20
HETATM   20  C   UNL     1       7.862  23.009  56.262  1.00  0.00    -0.002 A 
HETATM   21  C   UNL     1       7.977  22.278  55.032  1.00  0.00     0.003 A 
HETATM   22  C   UNL     1       8.468  21.010  55.352  1.00  0.00     0.043 A 
HETATM   23  C   UNL     1       7.702  22.560  53.675  1.00  0.00     0.014 A 
HETATM   24  C   UNL     1       8.714  20.024  54.387  1.00  0.00     0.030 A 
HETATM   25  N   UNL     1       8.630  20.969  56.718  1.00  0.00    -0.364 N 
HETATM   26  C   UNL     1       8.449  20.338  53.052  1.00  0.00     0.002 A 
HETATM   27  C   UNL     1       7.947  21.587  52.697  1.00  0.00     0.001 A 
HETATM   28  H   UNL     1       8.967  20.167  57.229  1.00  0.00     0.165 HD
HETATM   29  C   UNL     1       8.266  22.166  57.276  1.00  0.00     0.101 A 
ENDBRANCH   6  20
TORSDOF 3
ENDMDL
MODEL 7
REMARK VINA RESULT:      -9.1      1.651      2.146
REMARK  3 active torsions:
REMARK  status: ('A' for Active; 'I' for Inactive)
REMARK    1  A    between atoms: O_2  and  C_3 
REMARK    2  A    between atoms: C_5  and  N_6 
REMARK       I    between atoms: N_6  and  C_7 
REMARK       I    between atoms: C_7  and  N_8 
REMARK    3  A    between atoms: C_11  and  C_12 
ROOT
HETATM    1  N   UNL     1       6.098  31.414  59.078  1.00  0.00    -0.306 N 
HETATM    2  C   UNL     1       7.273  31.132  58.418  1.00  0.00     0.323 C 
HETATM    3  N   UNL     1       7.221  30.026  57.557  1.00  0.00    -0.330 N 
HETATM    4  C   UNL     1       6.053  29.155  57.444  1.00  0.00     0.155 C 
HETATM    5  C   UNL     1       6.194  28.074  56.423  1.00  0.00     0.001 C 
HETATM    6  C   UNL     1       7.272  27.873  55.648  1.00  0.00    -0.046 C 
HETATM    7  C   UNL     1       8.455  28.795  55.763  1.00  0.00     0.059 C 
HETATM    8  C   UNL     1       8.507  29.472  57.132  1.00  0.00     0.132 C 
HETATM    9  O   UNL     1       8.316  31.763  58.580  1.00  0.00    -0.247 OA
HETATM   10  H   UNL     1       5.317  30.790  58.950  1.00  0.00     0.171 HD
ENDROOT
BRANCH   1  11
HETATM   11  C   UNL     1       5.865  32.403  60.063  1.00  0.00     0.077 A 
HETATM   12  C   UNL     1       6.516  32.469  61.299  1.00  0.00     0.069 A 
HETATM   13  C   UNL     1       6.191  33.479  62.213  1.00  0.00     0.070 A 
HETATM   14  C   UNL     1       5.205  34.419  61.893  1.00  0.00     0.040 A 
HETATM   15  C   UNL     1       4.557  34.370  60.663  1.00  0.00     0.047 A 
HETATM   16  C   UNL     1       4.897  33.370  59.760  1.00  0.00     0.143 A 
HETATM   17  F   UNL     1       4.264  33.320  58.577  1.00  0.00    -0.204 F 
BRANCH  13  18
HETATM   18  O   UNL     1       6.754  33.653  63.449  1.00  0.00    -0.356 OA
HETATM   19  C   UNL     1       7.844  32.802  63.783  1.00  0.00     0.210 C 
ENDBRANCH  13  18
ENDBRANCH   1  11
BRANCH   6  20
HETATM   20  C   UNL     1       7.401  26.798  54.710  1.00  0.00    -0.002 A 
HETATM   21  C   UNL     1       7.518  25.393  54.979  1.00  0.00     0.003 A 
HETATM   22  C   UNL     1       7.607  24.744  53.745  1.00  0.00     0.043 A 
HETATM   23  C   UNL     1       7.568  24.602  56.149  1.00  0.00     0.014 A 
HETATM   24  C   UNL     1       7.724  23.353  53.625  1.00  0.00     0.030 A 
HETATM   25  N   UNL     1       7.562  25.714  52.771  1.00  0.00    -0.364 N 
HETATM   26  C   UNL     1       7.755  22.597  54.799  1.00  0.00     0.002 A 
HETATM   27  C   UNL     1       7.680  23.210  56.046  1.00  0.00     0.001 A 
HETATM   28  H   UNL     1       7.614  25.530  51.779  1.00  0.00     0.165 HD
HETATM   29  C   UNL     1       7.440  26.954  53.340  1.00  0.00     0.101 A 
ENDBRANCH   6  20
TORSDOF 3
ENDMDL
MODEL 8
REMARK VINA RESULT:      -9.0      6.188      9.701
REMARK  3 active torsions:
REMARK  status: ('A' for Active; 'I' for Inactive)
REMARK    1  A    between atoms: O_2  and  C_3 
REMARK    2  A    between atoms: C_5  and  N_6 
REMARK       I    between atoms: N_6  and  C_7 
REMARK       I    between atoms: C_7  and  N_8 
REMARK    3  A    between atoms: C_11  and  C_12 
ROOT
HETATM    1  N   UNL     1       6.702  34.274  68.219  1.00  0.00    -0.306 N 
HETATM    2  C   UNL     1       5.601  34.183  67.397  1.00  0.00     0.323 C 
HETATM    3  N   UNL     1       5.876  33.812  66.073  1.00  0.00    -0.330 N 
HETATM    4  C   UNL     1       7.232  33.647  65.554  1.00  0.00     0.155 C 
HETATM    5  C   UNL     1       7.292  33.191  64.133  1.00  0.00     0.001 C 
HETATM    6  C   UNL     1       6.228  32.938  63.353  1.00  0.00    -0.046 C 
HETATM    7  C   UNL     1       4.840  33.091  63.913  1.00  0.00     0.059 C 
HETATM    8  C   UNL     1       4.816  34.060  65.094  1.00  0.00     0.132 C 
HETATM    9  O   UNL     1       4.454  34.437  67.761  1.00  0.00    -0.247 OA
HETATM   10  H   UNL     1       7.613  34.133  67.813  1.00  0.00     0.171 HD
ENDROOT
BRANCH   1  11
HETATM   11  C   UNL     1       6.753  34.701  69.567  1.00  0.00     0.077 A 
HETATM   12  C   UNL     1       7.200  35.956  69.990  1.00  0.00     0.069 A 
HETATM   13  C   UNL     1       7.232  36.269  71.356  1.00  0.00     0.070 A 
HETATM   14  C   UNL     1       6.824  35.319  72.299  1.00  0.00     0.040 A 
HETATM   15  C   UNL     1       6.368  34.070  71.889  1.00  0.00     0.047 A 
HETATM   16  C   UNL     1       6.331  33.777  70.531  1.00  0.00     0.143 A 
HETATM   17  F   UNL     1       5.898  32.567  70.139  1.00  0.00    -0.204 F 
BRANCH  13  18
HETATM   18  O   UNL     1       7.643  37.458  71.896  1.00  0.00    -0.356 OA
HETATM   19  C   UNL     1       8.214  38.406  71.003  1.00  0.00     0.210 C 
ENDBRANCH  13  18
ENDBRANCH   1  11
BRANCH   6  20
HETATM   20  C   UNL     1       6.312  32.548  61.977  1.00  0.00    -0.002 A 
HETATM   21  C   UNL     1       7.488  32.263  61.205  1.00  0.00     0.003 A 
HETATM   22  C   UNL     1       7.062  31.917  59.920  1.00  0.00     0.043 A 
HETATM   23  C   UNL     1       8.877  32.273  61.462  1.00  0.00     0.014 A 
HETATM   24  C   UNL     1       7.948  31.565  58.894  1.00  0.00     0.030 A 
HETATM   25  N   UNL     1       5.689  32.003  59.909  1.00  0.00    -0.364 N 
HETATM   26  C   UNL     1       9.315  31.568  59.184  1.00  0.00     0.002 A 
HETATM   27  C   UNL     1       9.777  31.919  60.449  1.00  0.00     0.001 A 
HETATM   28  H   UNL     1       5.111  31.813  59.104  1.00  0.00     0.165 HD
HETATM   29  C   UNL     1       5.227  32.385  61.141  1.00  0.00     0.101 A 
ENDBRANCH   6  20
TORSDOF 3
ENDMDL
MODEL 9
REMARK VINA RESULT:      -8.9      3.105      3.676
REMARK  3 active torsions:
REMARK  status: ('A' for Active; 'I' for Inactive)
REMARK    1  A    between atoms: O_2  and  C_3 
REMARK    2  A    between atoms: C_5  and  N_6 
REMARK       I    between atoms: N_6  and  C_7 
REMARK       I    between atoms: C_7  and  N_8 
REMARK    3  A    between atoms: C_11  and  C_12 
ROOT
HETATM    1  N   UNL     1       5.094  30.885  58.038  1.00  0.00    -0.306 N 
HETATM    2  C   UNL     1       6.415  30.498  58.072  1.00  0.00     0.323 C 
HETATM    3  N   UNL     1       6.659  29.179  57.664  1.00  0.00    -0.330 N 
HETATM    4  C   UNL     1       5.595  28.233  57.338  1.00  0.00     0.155 C 
HETATM    5  C   UNL     1       6.084  26.902  56.869  1.00  0.00     0.001 C 
HETATM    6  C   UNL     1       7.373  26.549  56.738  1.00  0.00    -0.046 C 
HETATM    7  C   UNL     1       8.454  27.545  57.057  1.00  0.00     0.059 C 
HETATM    8  C   UNL     1       7.961  28.616  58.029  1.00  0.00     0.132 C 
HETATM    9  O   UNL     1       7.329  31.223  58.461  1.00  0.00    -0.247 OA
HETATM   10  H   UNL     1       4.402  30.196  57.789  1.00  0.00     0.171 HD
ENDROOT
BRANCH   1  11
HETATM   11  C   UNL     1       4.531  32.111  58.465  1.00  0.00     0.077 A 
HETATM   12  C   UNL     1       3.841  32.298  59.666  1.00  0.00     0.069 A 
HETATM   13  C   UNL     1       3.301  33.552  59.981  1.00  0.00     0.070 A 
HETATM   14  C   UNL     1       3.444  34.618  59.086  1.00  0.00     0.040 A 
HETATM   15  C   UNL     1       4.137  34.446  57.891  1.00  0.00     0.047 A 
HETATM   16  C   UNL     1       4.677  33.201  57.596  1.00  0.00     0.143 A 
HETATM   17  F   UNL     1       5.338  33.036  56.439  1.00  0.00    -0.204 F 
BRANCH  13  18
HETATM   18  O   UNL     1       2.610  33.864  61.122  1.00  0.00    -0.356 OA
HETATM   19  C   UNL     1       1.387  34.571  60.958  1.00  0.00     0.210 C 
ENDBRANCH  13  18
ENDBRANCH   1  11
BRANCH   6  20
HETATM   20  C   UNL     1       7.816  25.248  56.333  1.00  0.00    -0.002 A 
HETATM   21  C   UNL     1       7.779  24.666  55.022  1.00  0.00     0.003 A 
HETATM   22  C   UNL     1       8.332  23.387  55.124  1.00  0.00     0.043 A 
HETATM   23  C   UNL     1       7.320  25.090  53.754  1.00  0.00     0.014 A 
HETATM   24  C   UNL     1       8.465  22.526  54.027  1.00  0.00     0.030 A 
HETATM   25  N   UNL     1       8.676  23.197  56.442  1.00  0.00    -0.364 N 
HETATM   26  C   UNL     1       8.017  22.980  52.784  1.00  0.00     0.002 A 
HETATM   27  C   UNL     1       7.450  24.244  52.646  1.00  0.00     0.001 A 
HETATM   28  H   UNL     1       9.093  22.353  56.808  1.00  0.00     0.165 HD
HETATM   29  C   UNL     1       8.368  24.309  57.180  1.00  0.00     0.101 A 
ENDBRANCH   6  20
TORSDOF 3
ENDMDL
MODEL 10
REMARK VINA RESULT:      -8.7      6.412     10.273
REMARK  3 active torsions:
REMARK  status: ('A' for Active; 'I' for Inactive)
REMARK    1  A    between atoms: O_2  and  C_3 
REMARK    2  A    between atoms: C_5  and  N_6 
REMARK       I    between atoms: N_6  and  C_7 
REMARK       I    between atoms: C_7  and  N_8 
REMARK    3  A    between atoms: C_11  and  C_12 
ROOT
HETATM    1  N   UNL     1       6.689  34.532  68.784  1.00  0.00    -0.306 N 
HETATM    2  C   UNL     1       5.590  34.288  67.991  1.00  0.00     0.323 C 
HETATM    3  N   UNL     1       5.877  33.990  66.652  1.00  0.00    -0.330 N 
HETATM    4  C   UNL     1       7.225  34.047  66.091  1.00  0.00     0.155 C 
HETATM    5  C   UNL     1       7.309  33.633  64.659  1.00  0.00     0.001 C 
HETATM    6  C   UNL     1       6.273  33.234  63.903  1.00  0.00    -0.046 C 
HETATM    7  C   UNL     1       4.896  33.160  64.505  1.00  0.00     0.059 C 
HETATM    8  C   UNL     1       4.761  34.091  65.710  1.00  0.00     0.132 C 
HETATM    9  O   UNL     1       4.429  34.355  68.393  1.00  0.00    -0.247 OA
HETATM   10  H   UNL     1       7.598  34.541  68.349  1.00  0.00     0.171 HD
ENDROOT
BRANCH   1  11
HETATM   11  C   UNL     1       6.716  34.936  70.140  1.00  0.00     0.077 A 
HETATM   12  C   UNL     1       6.135  34.229  71.196  1.00  0.00     0.069 A 
HETATM   13  C   UNL     1       6.200  34.733  72.502  1.00  0.00     0.070 A 
HETATM   14  C   UNL     1       6.839  35.953  72.748  1.00  0.00     0.040 A 
HETATM   15  C   UNL     1       7.430  36.662  71.706  1.00  0.00     0.047 A 
HETATM   16  C   UNL     1       7.368  36.145  70.418  1.00  0.00     0.143 A 
HETATM   17  F   UNL     1       7.932  36.835  69.413  1.00  0.00    -0.204 F 
BRANCH  13  18
HETATM   18  O   UNL     1       5.676  34.138  73.618  1.00  0.00    -0.356 OA
HETATM   19  C   UNL     1       4.287  34.334  73.858  1.00  0.00     0.210 C 
ENDBRANCH  13  18
ENDBRANCH   1  11
BRANCH   6  20
HETATM   20  C   UNL     1       6.372  32.888  62.516  1.00  0.00    -0.002 A 
HETATM   21  C   UNL     1       7.358  32.067  61.874  1.00  0.00     0.003 A 
HETATM   22  C   UNL     1       7.029  32.015  60.517  1.00  0.00     0.043 A 
HETATM   23  C   UNL     1       8.509  31.368  62.304  1.00  0.00     0.014 A 
HETATM   24  C   UNL     1       7.777  31.288  59.581  1.00  0.00     0.030 A 
HETATM   25  N   UNL     1       5.901  32.782  60.342  1.00  0.00    -0.364 N 
HETATM   26  C   UNL     1       8.899  30.594  60.040  1.00  0.00     0.002 A 
HETATM   27  C   UNL     1       9.264  30.634  61.382  1.00  0.00     0.001 A 
HETATM   28  H   UNL     1       5.443  32.930  59.454  1.00  0.00     0.165 HD
HETATM   29  C   UNL     1       5.498  33.315  61.538  1.00  0.00     0.101 A 
ENDBRANCH   6  20
TORSDOF 3
ENDMDL
