MODEL 1
REMARK VINA RESULT:     -10.5      0.000      0.000
REMARK  8 active torsions:
REMARK  status: ('A' for Active; 'I' for Inactive)
REMARK    1  A    between atoms: C_4  and  C_5 
REMARK    2  A    between atoms: C_9  and  C_10 
REMARK       I    between atoms: C_10  and  N_11 
REMARK    3  A    between atoms: N_11  and  C_12 
REMARK    4  A    between atoms: C_12  and  C_13 
REMARK    5  A    between atoms: C_13  and  C_14 
REMARK    6  A    between atoms: C_14  and  C_15 
REMARK    7  A    between atoms: C_15  and  O_16 
REMARK    8  A    between atoms: O_16  and  C_17 
ROOT
HETATM    1  C   UNL     1       9.350  31.332  59.079  1.00  0.00     0.270 C 
HETATM    2  N   UNL     1       8.956  30.186  58.435  1.00  0.00    -0.345 N 
HETATM    3  O   UNL     1      10.090  32.167  58.568  1.00  0.00    -0.266 OA
HETATM    4  H   UNL     1       8.226  29.618  58.836  1.00  0.00     0.163 HD
ENDROOT
BRANCH   2   5
HETATM    5  C   UNL     1       9.389  29.876  57.100  1.00  0.00     0.217 C 
BRANCH   5   6
HETATM    6  C   UNL     1       8.632  28.671  56.565  1.00  0.00    -0.085 C 
BRANCH   6   7
HETATM    7  C   UNL     1       7.983  27.638  56.106  1.00  0.00    -0.078 C 
BRANCH   7   8
HETATM    8  C   UNL     1       7.227  26.433  55.569  1.00  0.00     0.269 C 
BRANCH   8   9
HETATM    9  O   UNL     1       7.890  25.241  55.969  1.00  0.00    -0.337 OA
BRANCH   9  10
HETATM   10  C   UNL     1       7.920  24.198  55.065  1.00  0.00     0.099 A 
HETATM   11  C   UNL     1       8.091  22.823  55.344  1.00  0.00     0.100 A 
HETATM   12  C   UNL     1       8.086  21.935  54.239  1.00  0.00    -0.005 A 
HETATM   13  N   UNL     1       8.253  22.331  56.599  1.00  0.00    -0.257 NA
HETATM   14  C   UNL     1       8.254  20.562  54.469  1.00  0.00     0.015 A 
HETATM   15  C   UNL     1       7.917  22.407  52.928  1.00  0.00     0.014 A 
HETATM   16  C   UNL     1       8.419  20.083  55.760  1.00  0.00     0.020 A 
HETATM   17  C   UNL     1       8.411  21.002  56.784  1.00  0.00     0.117 A 
HETATM   18  C   UNL     1       7.748  23.764  52.681  1.00  0.00     0.004 A 
HETATM   19  C   UNL     1       7.749  24.653  53.747  1.00  0.00     0.039 A 
ENDBRANCH   9  10
ENDBRANCH   8   9
ENDBRANCH   7   8
ENDBRANCH   6   7
ENDBRANCH   5   6
ENDBRANCH   2   5
BRANCH   1  20
HETATM   20  C   UNL     1       8.844  31.482  60.415  1.00  0.00     0.120 A 
HETATM   21  N   UNL     1       9.051  30.529  61.372  1.00  0.00    -0.272 N 
HETATM   22  N   UNL     1       8.501  30.813  62.562  1.00  0.00    -0.174 NA
HETATM   23  H   UNL     1       9.564  29.659  61.261  1.00  0.00     0.189 HD
HETATM   24  C   UNL     1       7.872  31.983  62.372  1.00  0.00     0.089 A 
HETATM   25  C   UNL     1       8.082  32.447  61.044  1.00  0.00     0.071 A 
BRANCH  24  26
HETATM   26  C   UNL     1       7.092  32.623  63.437  1.00  0.00    -0.006 A 
HETATM   27  C   UNL     1       5.692  32.657  63.369  1.00  0.00     0.014 A 
HETATM   28  C   UNL     1       4.942  33.263  64.380  1.00  0.00     0.001 A 
HETATM   29  C   UNL     1       5.585  33.849  65.468  1.00  0.00     0.000 A 
HETATM   30  C   UNL     1       6.975  33.830  65.547  1.00  0.00     0.001 A 
HETATM   31  C   UNL     1       7.726  33.220  64.537  1.00  0.00     0.014 A 
ENDBRANCH  24  26
ENDBRANCH   1  20
TORSDOF 8
ENDMDL
MODEL 2
REMARK VINA RESULT:      -9.9      1.351      2.521
REMARK  8 active torsions:
REMARK  status: ('A' for Active; 'I' for Inactive)
REMARK    1  A    between atoms: C_4  and  C_5 
REMARK    2  A    between atoms: C_9  and  C_10 
REMARK       I    between atoms: C_10  and  N_11 
REMARK    3  A    between atoms: N_11  and  C_12 
REMARK    4  A    between atoms: C_12  and  C_13 
REMARK    5  A    between atoms: C_13  and  C_14 
REMARK    6  A    between atoms: C_14  and  C_15 
REMARK    7  A    between atoms: C_15  and  O_16 
REMARK    8  A    between atoms: O_16  and  C_17 
ROOT
HETATM    1  C   UNL     1       8.399  30.523  59.063  1.00  0.00     0.270 C 
HETATM    2  N   UNL     1       7.598  29.497  58.626  1.00  0.00    -0.345 N 
HETATM    3  O   UNL     1       9.251  31.055  58.360  1.00  0.00    -0.266 OA
HETATM    4  H   UNL     1       6.813  29.207  59.186  1.00  0.00     0.163 HD
ENDROOT
BRANCH   2   5
HETATM    5  C   UNL     1       7.706  28.963  57.295  1.00  0.00     0.217 C 
BRANCH   5   6
HETATM    6  C   UNL     1       8.017  27.476  57.345  1.00  0.00    -0.085 C 
BRANCH   6   7
HETATM    7  C   UNL     1       8.284  26.201  57.389  1.00  0.00    -0.078 C 
BRANCH   7   8
HETATM    8  C   UNL     1       8.596  24.714  57.439  1.00  0.00     0.269 C 
BRANCH   8   9
HETATM    9  O   UNL     1       7.543  23.988  56.820  1.00  0.00    -0.337 OA
BRANCH   9  10
HETATM   10  C   UNL     1       7.729  23.594  55.510  1.00  0.00     0.099 A 
HETATM   11  C   UNL     1       7.454  24.339  54.341  1.00  0.00     0.100 A 
HETATM   12  C   UNL     1       7.732  23.716  53.098  1.00  0.00    -0.005 A 
HETATM   13  N   UNL     1       6.947  25.598  54.360  1.00  0.00    -0.257 NA
HETATM   14  C   UNL     1       7.472  24.418  51.912  1.00  0.00     0.015 A 
HETATM   15  C   UNL     1       8.259  22.417  53.038  1.00  0.00     0.014 A 
HETATM   16  C   UNL     1       6.953  25.703  51.958  1.00  0.00     0.020 A 
HETATM   17  C   UNL     1       6.709  26.246  53.199  1.00  0.00     0.117 A 
HETATM   18  C   UNL     1       8.524  21.707  54.202  1.00  0.00     0.004 A 
HETATM   19  C   UNL     1       8.261  22.296  55.432  1.00  0.00     0.039 A 
ENDBRANCH   9  10
ENDBRANCH   8   9
ENDBRANCH   7   8
ENDBRANCH   6   7
ENDBRANCH   5   6
ENDBRANCH   2   5
BRANCH   1  20
HETATM   20  C   UNL     1       8.178  30.925  60.425  1.00  0.00     0.120 A 
HETATM   21  N   UNL     1       8.771  30.275  61.471  1.00  0.00    -0.272 N 
HETATM   22  N   UNL     1       8.451  30.765  62.678  1.00  0.00    -0.174 NA
HETATM   23  H   UNL     1       9.408  29.486  61.412  1.00  0.00     0.189 HD
HETATM   24  C   UNL     1       7.578  31.752  62.421  1.00  0.00     0.089 A 
HETATM   25  C   UNL     1       7.398  31.898  61.017  1.00  0.00     0.071 A 
BRANCH  24  26
HETATM   26  C   UNL     1       6.941  32.519  63.496  1.00  0.00    -0.006 A 
HETATM   27  C   UNL     1       5.543  32.572  63.597  1.00  0.00     0.014 A 
HETATM   28  C   UNL     1       4.928  33.299  64.620  1.00  0.00     0.001 A 
HETATM   29  C   UNL     1       5.704  33.987  65.549  1.00  0.00     0.000 A 
HETATM   30  C   UNL     1       7.093  33.951  65.458  1.00  0.00     0.001 A 
HETATM   31  C   UNL     1       7.709  33.220  64.437  1.00  0.00     0.014 A 
ENDBRANCH  24  26
ENDBRANCH   1  20
TORSDOF 8
ENDMDL
MODEL 3
REMARK VINA RESULT:      -9.5      1.736      2.445
REMARK  8 active torsions:
REMARK  status: ('A' for Active; 'I' for Inactive)
REMARK    1  A    between atoms: C_4  and  C_5 
REMARK    2  A    between atoms: C_9  and  C_10 
REMARK       I    between atoms: C_10  and  N_11 
REMARK    3  A    between atoms: N_11  and  C_12 
REMARK    4  A    between atoms: C_12  and  C_13 
REMARK    5  A    between atoms: C_13  and  C_14 
REMARK    6  A    between atoms: C_14  and  C_15 
REMARK    7  A    between atoms: C_15  and  O_16 
REMARK    8  A    between atoms: O_16  and  C_17 
ROOT
HETATM    1  C   UNL     1       8.240  31.012  61.448  1.00  0.00     0.270 C 
HETATM    2  N   UNL     1       7.766  30.749  60.187  1.00  0.00    -0.345 N 
HETATM    3  O   UNL     1       9.395  30.782  61.792  1.00  0.00    -0.266 OA
HETATM    4  H   UNL     1       6.863  31.102  59.912  1.00  0.00     0.163 HD
ENDROOT
BRANCH   2   5
HETATM    5  C   UNL     1       8.601  30.176  59.165  1.00  0.00     0.217 C 
BRANCH   5   6
HETATM    6  C   UNL     1       7.826  29.137  58.372  1.00  0.00    -0.085 C 
BRANCH   6   7
HETATM    7  C   UNL     1       7.161  28.246  57.692  1.00  0.00    -0.078 C 
BRANCH   7   8
HETATM    8  C   UNL     1       6.385  27.207  56.898  1.00  0.00     0.269 C 
BRANCH   8   9
HETATM    9  O   UNL     1       7.259  26.153  56.515  1.00  0.00    -0.337 OA
BRANCH   9  10
HETATM   10  C   UNL     1       6.968  25.482  55.344  1.00  0.00     0.099 A 
HETATM   11  C   UNL     1       7.600  24.324  54.837  1.00  0.00     0.100 A 
HETATM   12  C   UNL     1       7.121  23.814  53.605  1.00  0.00    -0.005 A 
HETATM   13  N   UNL     1       8.623  23.694  55.471  1.00  0.00    -0.257 NA
HETATM   14  C   UNL     1       7.720  22.667  53.064  1.00  0.00     0.015 A 
HETATM   15  C   UNL     1       6.063  24.436  52.923  1.00  0.00     0.014 A 
HETATM   16  C   UNL     1       8.764  22.043  53.729  1.00  0.00     0.020 A 
HETATM   17  C   UNL     1       9.177  22.591  54.921  1.00  0.00     0.117 A 
HETATM   18  C   UNL     1       5.456  25.571  53.445  1.00  0.00     0.004 A 
HETATM   19  C   UNL     1       5.908  26.089  54.651  1.00  0.00     0.039 A 
ENDBRANCH   9  10
ENDBRANCH   8   9
ENDBRANCH   7   8
ENDBRANCH   6   7
ENDBRANCH   5   6
ENDBRANCH   2   5
BRANCH   1  20
HETATM   20  C   UNL     1       7.273  31.566  62.356  1.00  0.00     0.120 A 
HETATM   21  N   UNL     1       5.943  31.271  62.255  1.00  0.00    -0.272 N 
HETATM   22  N   UNL     1       5.172  31.881  63.168  1.00  0.00    -0.174 NA
HETATM   23  H   UNL     1       5.507  30.655  61.574  1.00  0.00     0.189 HD
HETATM   24  C   UNL     1       6.023  32.641  63.875  1.00  0.00     0.089 A 
HETATM   25  C   UNL     1       7.354  32.453  63.410  1.00  0.00     0.071 A 
BRANCH  24  26
HETATM   26  C   UNL     1       5.560  33.518  64.955  1.00  0.00    -0.006 A 
HETATM   27  C   UNL     1       4.255  34.029  64.944  1.00  0.00     0.014 A 
HETATM   28  C   UNL     1       3.806  34.864  65.971  1.00  0.00     0.001 A 
HETATM   29  C   UNL     1       4.661  35.203  67.018  1.00  0.00     0.000 A 
HETATM   30  C   UNL     1       5.963  34.709  67.039  1.00  0.00     0.001 A 
HETATM   31  C   UNL     1       6.411  33.870  66.013  1.00  0.00     0.014 A 
ENDBRANCH  24  26
ENDBRANCH   1  20
TORSDOF 8
ENDMDL
MODEL 4
REMARK VINA RESULT:      -9.5      2.784     11.666
REMARK  8 active torsions:
REMARK  status: ('A' for Active; 'I' for Inactive)
REMARK    1  A    between atoms: C_4  and  C_5 
REMARK    2  A    between atoms: C_9  and  C_10 
REMARK       I    between atoms: C_10  and  N_11 
REMARK    3  A    between atoms: N_11  and  C_12 
REMARK    4  A    between atoms: C_12  and  C_13 
REMARK    5  A    between atoms: C_13  and  C_14 
REMARK    6  A    between atoms: C_14  and  C_15 
REMARK    7  A    between atoms: C_15  and  O_16 
REMARK    8  A    between atoms: O_16  and  C_17 
ROOT
HETATM    1  C   UNL     1       4.908  27.186  54.304  1.00  0.00     0.270 C 
HETATM    2  N   UNL     1       4.868  27.741  55.559  1.00  0.00    -0.345 N 
HETATM    3  O   UNL     1       4.193  27.563  53.381  1.00  0.00    -0.266 OA
HETATM    4  H   UNL     1       5.582  27.505  56.229  1.00  0.00     0.163 HD
ENDROOT
BRANCH   2   5
HETATM    5  C   UNL     1       3.971  28.817  55.886  1.00  0.00     0.217 C 
BRANCH   5   6
HETATM    6  C   UNL     1       4.709  29.908  56.645  1.00  0.00    -0.085 C 
BRANCH   6   7
HETATM    7  C   UNL     1       5.342  30.843  57.295  1.00  0.00    -0.078 C 
BRANCH   7   8
HETATM    8  C   UNL     1       6.080  31.934  58.054  1.00  0.00     0.269 C 
BRANCH   8   9
HETATM    9  O   UNL     1       5.794  31.823  59.443  1.00  0.00    -0.337 OA
BRANCH   9  10
HETATM   10  C   UNL     1       6.852  31.946  60.320  1.00  0.00     0.099 A 
HETATM   11  C   UNL     1       6.801  32.327  61.680  1.00  0.00     0.100 A 
HETATM   12  C   UNL     1       8.031  32.382  62.382  1.00  0.00    -0.005 A 
HETATM   13  N   UNL     1       5.647  32.632  62.327  1.00  0.00    -0.257 NA
HETATM   14  C   UNL     1       8.028  32.756  63.733  1.00  0.00     0.015 A 
HETATM   15  C   UNL     1       9.244  32.070  61.748  1.00  0.00     0.014 A 
HETATM   16  C   UNL     1       6.836  33.065  64.372  1.00  0.00     0.020 A 
HETATM   17  C   UNL     1       5.680  32.988  63.630  1.00  0.00     0.117 A 
HETATM   18  C   UNL     1       9.267  31.695  60.411  1.00  0.00     0.004 A 
HETATM   19  C   UNL     1       8.074  31.634  59.702  1.00  0.00     0.039 A 
ENDBRANCH   9  10
ENDBRANCH   8   9
ENDBRANCH   7   8
ENDBRANCH   6   7
ENDBRANCH   5   6
ENDBRANCH   2   5
BRANCH   1  20
HETATM   20  C   UNL     1       5.845  26.108  54.148  1.00  0.00     0.120 A 
HETATM   21  N   UNL     1       6.998  26.258  53.431  1.00  0.00    -0.272 N 
HETATM   22  N   UNL     1       7.756  25.153  53.368  1.00  0.00    -0.174 NA
HETATM   23  H   UNL     1       7.316  27.100  52.961  1.00  0.00     0.189 HD
HETATM   24  C   UNL     1       7.055  24.224  54.037  1.00  0.00     0.089 A 
HETATM   25  C   UNL     1       5.860  24.791  54.560  1.00  0.00     0.071 A 
BRANCH  24  26
HETATM   26  C   UNL     1       7.525  22.840  54.158  1.00  0.00    -0.006 A 
HETATM   27  C   UNL     1       7.900  22.116  53.018  1.00  0.00     0.014 A 
HETATM   28  C   UNL     1       8.351  20.797  53.125  1.00  0.00     0.001 A 
HETATM   29  C   UNL     1       8.424  20.185  54.375  1.00  0.00     0.000 A 
HETATM   30  C   UNL     1       8.048  20.889  55.516  1.00  0.00     0.001 A 
HETATM   31  C   UNL     1       7.601  22.210  55.409  1.00  0.00     0.014 A 
ENDBRANCH  24  26
ENDBRANCH   1  20
TORSDOF 8
ENDMDL
MODEL 5
REMARK VINA RESULT:      -9.5      2.343     11.479
REMARK  8 active torsions:
REMARK  status: ('A' for Active; 'I' for Inactive)
REMARK    1  A    between atoms: C_4  and  C_5 
REMARK    2  A    between atoms: C_9  and  C_10 
REMARK       I    between atoms: C_10  and  N_11 
REMARK    3  A    between atoms: N_11  and  C_12 
REMARK    4  A    between atoms: C_12  and  C_13 
REMARK    5  A    between atoms: C_13  and  C_14 
REMARK    6  A    between atoms: C_14  and  C_15 
REMARK    7  A    between atoms: C_15  and  O_16 
REMARK    8  A    between atoms: O_16  and  C_17 
ROOT
HETATM    1  C   UNL     1       5.729  27.199  54.874  1.00  0.00     0.270 C 
HETATM    2  N   UNL     1       6.628  27.873  55.663  1.00  0.00    -0.345 N 
HETATM    3  O   UNL     1       4.626  27.646  54.581  1.00  0.00    -0.266 OA
HETATM    4  H   UNL     1       7.574  27.534  55.739  1.00  0.00     0.163 HD
ENDROOT
BRANCH   2   5
HETATM    5  C   UNL     1       6.333  29.169  56.212  1.00  0.00     0.217 C 
BRANCH   5   6
HETATM    6  C   UNL     1       7.545  29.719  56.947  1.00  0.00    -0.085 C 
BRANCH   6   7
HETATM    7  C   UNL     1       8.584  30.189  57.578  1.00  0.00    -0.078 C 
BRANCH   7   8
HETATM    8  C   UNL     1       9.795  30.739  58.314  1.00  0.00     0.269 C 
BRANCH   8   9
HETATM    9  O   UNL     1       9.503  32.042  58.802  1.00  0.00    -0.337 OA
BRANCH   9  10
HETATM   10  C   UNL     1       8.743  32.133  59.951  1.00  0.00     0.099 A 
HETATM   11  C   UNL     1       7.359  32.404  60.047  1.00  0.00     0.100 A 
HETATM   12  C   UNL     1       6.799  32.446  61.348  1.00  0.00    -0.005 A 
HETATM   13  N   UNL     1       6.564  32.619  58.967  1.00  0.00    -0.257 NA
HETATM   14  C   UNL     1       5.429  32.714  61.491  1.00  0.00     0.015 A 
HETATM   15  C   UNL     1       7.589  32.227  62.487  1.00  0.00     0.014 A 
HETATM   16  C   UNL     1       4.638  32.930  60.373  1.00  0.00     0.020 A 
HETATM   17  C   UNL     1       5.248  32.873  59.141  1.00  0.00     0.117 A 
HETATM   18  C   UNL     1       8.946  31.959  62.365  1.00  0.00     0.004 A 
HETATM   19  C   UNL     1       9.518  31.912  61.101  1.00  0.00     0.039 A 
ENDBRANCH   9  10
ENDBRANCH   8   9
ENDBRANCH   7   8
ENDBRANCH   6   7
ENDBRANCH   5   6
ENDBRANCH   2   5
BRANCH   1  20
HETATM   20  C   UNL     1       6.170  25.908  54.421  1.00  0.00     0.120 A 
HETATM   21  N   UNL     1       5.860  25.440  53.175  1.00  0.00    -0.272 N 
HETATM   22  N   UNL     1       6.333  24.213  52.913  1.00  0.00    -0.174 NA
HETATM   23  H   UNL     1       5.323  25.924  52.461  1.00  0.00     0.189 HD
HETATM   24  C   UNL     1       6.946  23.838  54.047  1.00  0.00     0.089 A 
HETATM   25  C   UNL     1       6.884  24.884  55.010  1.00  0.00     0.071 A 
BRANCH  24  26
HETATM   26  C   UNL     1       7.562  22.515  54.192  1.00  0.00    -0.006 A 
HETATM   27  C   UNL     1       8.022  21.820  53.064  1.00  0.00     0.014 A 
HETATM   28  C   UNL     1       8.612  20.560  53.193  1.00  0.00     0.001 A 
HETATM   29  C   UNL     1       8.743  19.978  54.453  1.00  0.00     0.000 A 
HETATM   30  C   UNL     1       8.284  20.653  55.581  1.00  0.00     0.001 A 
HETATM   31  C   UNL     1       7.697  21.915  55.452  1.00  0.00     0.014 A 
ENDBRANCH  24  26
ENDBRANCH   1  20
TORSDOF 8
ENDMDL
MODEL 6
REMARK VINA RESULT:      -9.4      2.790      3.232
REMARK  8 active torsions:
REMARK  status: ('A' for Active; 'I' for Inactive)
REMARK    1  A    between atoms: C_4  and  C_5 
REMARK    2  A    between atoms: C_9  and  C_10 
REMARK       I    between atoms: C_10  and  N_11 
REMARK    3  A    between atoms: N_11  and  C_12 
REMARK    4  A    between atoms: C_12  and  C_13 
REMARK    5  A    between atoms: C_13  and  C_14 
REMARK    6  A    between atoms: C_14  and  C_15 
REMARK    7  A    between atoms: C_15  and  O_16 
REMARK    8  A    between atoms: O_16  and  C_17 
ROOT
HETATM    1  C   UNL     1       3.940  31.623  58.679  1.00  0.00     0.270 C 
HETATM    2  N   UNL     1       4.591  30.498  58.237  1.00  0.00    -0.345 N 
HETATM    3  O   UNL     1       3.246  32.325  57.951  1.00  0.00    -0.266 OA
HETATM    4  H   UNL     1       5.013  29.873  58.906  1.00  0.00     0.163 HD
ENDROOT
BRANCH   2   5
HETATM    5  C   UNL     1       4.508  30.059  56.870  1.00  0.00     0.217 C 
BRANCH   5   6
HETATM    6  C   UNL     1       4.929  28.603  56.757  1.00  0.00    -0.085 C 
BRANCH   6   7
HETATM    7  C   UNL     1       5.289  27.354  56.659  1.00  0.00    -0.078 C 
BRANCH   7   8
HETATM    8  C   UNL     1       5.709  25.897  56.544  1.00  0.00     0.269 C 
BRANCH   8   9
HETATM    9  O   UNL     1       7.065  25.827  56.123  1.00  0.00    -0.337 OA
BRANCH   9  10
HETATM   10  C   UNL     1       7.326  25.185  54.929  1.00  0.00     0.099 A 
HETATM   11  C   UNL     1       7.527  23.801  54.724  1.00  0.00     0.100 A 
HETATM   12  C   UNL     1       7.780  23.376  53.396  1.00  0.00    -0.005 A 
HETATM   13  N   UNL     1       7.485  22.884  55.724  1.00  0.00    -0.257 NA
HETATM   14  C   UNL     1       7.987  22.012  53.145  1.00  0.00     0.015 A 
HETATM   15  C   UNL     1       7.828  24.295  52.335  1.00  0.00     0.014 A 
HETATM   16  C   UNL     1       7.941  21.095  54.184  1.00  0.00     0.020 A 
HETATM   17  C   UNL     1       7.688  21.577  55.448  1.00  0.00     0.117 A 
HETATM   18  C   UNL     1       7.624  25.649  52.564  1.00  0.00     0.004 A 
HETATM   19  C   UNL     1       7.373  26.090  53.856  1.00  0.00     0.039 A 
ENDBRANCH   9  10
ENDBRANCH   8   9
ENDBRANCH   7   8
ENDBRANCH   6   7
ENDBRANCH   5   6
ENDBRANCH   2   5
BRANCH   1  20
HETATM   20  C   UNL     1       4.142  31.934  60.067  1.00  0.00     0.120 A 
HETATM   21  N   UNL     1       3.102  31.974  60.952  1.00  0.00    -0.272 N 
HETATM   22  N   UNL     1       3.456  32.295  62.206  1.00  0.00    -0.174 NA
HETATM   23  H   UNL     1       2.124  31.789  60.749  1.00  0.00     0.189 HD
HETATM   24  C   UNL     1       4.779  32.515  62.137  1.00  0.00     0.089 A 
HETATM   25  C   UNL     1       5.250  32.278  60.816  1.00  0.00     0.071 A 
BRANCH  24  26
HETATM   26  C   UNL     1       5.552  32.945  63.306  1.00  0.00    -0.006 A 
HETATM   27  C   UNL     1       6.953  32.881  63.292  1.00  0.00     0.014 A 
HETATM   28  C   UNL     1       7.698  33.290  64.401  1.00  0.00     0.001 A 
HETATM   29  C   UNL     1       7.049  33.762  65.541  1.00  0.00     0.000 A 
HETATM   30  C   UNL     1       5.659  33.824  65.573  1.00  0.00     0.001 A 
HETATM   31  C   UNL     1       4.913  33.418  64.461  1.00  0.00     0.014 A 
ENDBRANCH  24  26
ENDBRANCH   1  20
TORSDOF 8
ENDMDL
MODEL 7
REMARK VINA RESULT:      -9.3      1.579      2.079
REMARK  8 active torsions:
REMARK  status: ('A' for Active; 'I' for Inactive)
REMARK    1  A    between atoms: C_4  and  C_5 
REMARK    2  A    between atoms: C_9  and  C_10 
REMARK       I    between atoms: C_10  and  N_11 
REMARK    3  A    between atoms: N_11  and  C_12 
REMARK    4  A    between atoms: C_12  and  C_13 
REMARK    5  A    between atoms: C_13  and  C_14 
REMARK    6  A    between atoms: C_14  and  C_15 
REMARK    7  A    between atoms: C_15  and  O_16 
REMARK    8  A    between atoms: O_16  and  C_17 
ROOT
HETATM    1  C   UNL     1       7.060  31.678  59.282  1.00  0.00     0.270 C 
HETATM    2  N   UNL     1       5.872  31.094  58.921  1.00  0.00    -0.345 N 
HETATM    3  O   UNL     1       7.990  31.847  58.501  1.00  0.00    -0.266 OA
HETATM    4  H   UNL     1       5.090  31.125  59.555  1.00  0.00     0.163 HD
ENDROOT
BRANCH   2   5
HETATM    5  C   UNL     1       5.631  30.628  57.582  1.00  0.00     0.217 C 
BRANCH   5   6
HETATM    6  C   UNL     1       6.322  29.293  57.354  1.00  0.00    -0.085 C 
BRANCH   6   7
HETATM    7  C   UNL     1       6.914  28.149  57.159  1.00  0.00    -0.078 C 
BRANCH   7   8
HETATM    8  C   UNL     1       7.604  26.813  56.932  1.00  0.00     0.269 C 
BRANCH   8   9
HETATM    9  O   UNL     1       6.708  25.921  56.282  1.00  0.00    -0.337 OA
BRANCH   9  10
HETATM   10  C   UNL     1       7.128  25.354  55.096  1.00  0.00     0.099 A 
HETATM   11  C   UNL     1       7.438  23.997  54.854  1.00  0.00     0.100 A 
HETATM   12  C   UNL     1       7.850  23.652  53.543  1.00  0.00    -0.005 A 
HETATM   13  N   UNL     1       7.357  23.032  55.806  1.00  0.00    -0.257 NA
HETATM   14  C   UNL     1       8.169  22.316  53.258  1.00  0.00     0.015 A 
HETATM   15  C   UNL     1       7.942  24.621  52.531  1.00  0.00     0.014 A 
HETATM   16  C   UNL     1       8.080  21.349  54.248  1.00  0.00     0.020 A 
HETATM   17  C   UNL     1       7.672  21.755  55.498  1.00  0.00     0.117 A 
HETATM   18  C   UNL     1       7.628  25.948  52.794  1.00  0.00     0.004 A 
HETATM   19  C   UNL     1       7.222  26.311  54.071  1.00  0.00     0.039 A 
ENDBRANCH   9  10
ENDBRANCH   8   9
ENDBRANCH   7   8
ENDBRANCH   6   7
ENDBRANCH   5   6
ENDBRANCH   2   5
BRANCH   1  20
HETATM   20  C   UNL     1       7.148  32.070  60.662  1.00  0.00     0.120 A 
HETATM   21  N   UNL     1       8.291  31.890  61.388  1.00  0.00    -0.272 N 
HETATM   22  N   UNL     1       8.204  32.294  62.664  1.00  0.00    -0.174 NA
HETATM   23  H   UNL     1       9.165  31.491  61.056  1.00  0.00     0.189 HD
HETATM   24  C   UNL     1       6.939  32.722  62.798  1.00  0.00     0.089 A 
HETATM   25  C   UNL     1       6.250  32.618  61.557  1.00  0.00     0.071 A 
BRANCH  24  26
HETATM   26  C   UNL     1       6.418  33.207  64.079  1.00  0.00    -0.006 A 
HETATM   27  C   UNL     1       7.295  33.538  65.122  1.00  0.00     0.014 A 
HETATM   28  C   UNL     1       6.807  34.003  66.346  1.00  0.00     0.001 A 
HETATM   29  C   UNL     1       5.434  34.135  66.544  1.00  0.00     0.000 A 
HETATM   30  C   UNL     1       4.549  33.802  65.520  1.00  0.00     0.001 A 
HETATM   31  C   UNL     1       5.038  33.341  64.294  1.00  0.00     0.014 A 
ENDBRANCH  24  26
ENDBRANCH   1  20
TORSDOF 8
ENDMDL
MODEL 8
REMARK VINA RESULT:      -9.2      4.676     10.115
REMARK  8 active torsions:
REMARK  status: ('A' for Active; 'I' for Inactive)
REMARK    1  A    between atoms: C_4  and  C_5 
REMARK    2  A    between atoms: C_9  and  C_10 
REMARK       I    between atoms: C_10  and  N_11 
REMARK    3  A    between atoms: N_11  and  C_12 
REMARK    4  A    between atoms: C_12  and  C_13 
REMARK    5  A    between atoms: C_13  and  C_14 
REMARK    6  A    between atoms: C_14  and  C_15 
REMARK    7  A    between atoms: C_15  and  O_16 
REMARK    8  A    between atoms: O_16  and  C_17 
ROOT
HETATM    1  C   UNL     1       5.838  27.349  52.510  1.00  0.00     0.270 C 
HETATM    2  N   UNL     1       4.468  27.315  52.436  1.00  0.00    -0.345 N 
HETATM    3  O   UNL     1       6.486  28.390  52.483  1.00  0.00    -0.266 OA
HETATM    4  H   UNL     1       3.981  26.453  52.623  1.00  0.00     0.163 HD
ENDROOT
BRANCH   2   5
HETATM    5  C   UNL     1       3.684  28.514  52.315  1.00  0.00     0.217 C 
BRANCH   5   6
HETATM    6  C   UNL     1       3.760  29.327  53.597  1.00  0.00    -0.085 C 
BRANCH   6   7
HETATM    7  C   UNL     1       3.826  30.024  54.697  1.00  0.00    -0.078 C 
BRANCH   7   8
HETATM    8  C   UNL     1       3.901  30.838  55.978  1.00  0.00     0.269 C 
BRANCH   8   9
HETATM    9  O   UNL     1       4.047  29.962  57.088  1.00  0.00    -0.337 OA
BRANCH   9  10
HETATM   10  C   UNL     1       5.306  29.448  57.329  1.00  0.00     0.099 A 
HETATM   11  C   UNL     1       5.706  28.094  57.280  1.00  0.00     0.100 A 
HETATM   12  C   UNL     1       7.064  27.811  57.567  1.00  0.00    -0.005 A 
HETATM   13  N   UNL     1       4.860  27.077  56.972  1.00  0.00    -0.257 NA
HETATM   14  C   UNL     1       7.505  26.480  57.531  1.00  0.00     0.015 A 
HETATM   15  C   UNL     1       7.969  28.836  57.886  1.00  0.00     0.014 A 
HETATM   16  C   UNL     1       6.622  25.458  57.216  1.00  0.00     0.020 A 
HETATM   17  C   UNL     1       5.318  25.806  56.946  1.00  0.00     0.117 A 
HETATM   18  C   UNL     1       7.551  30.160  57.925  1.00  0.00     0.004 A 
HETATM   19  C   UNL     1       6.225  30.462  57.646  1.00  0.00     0.039 A 
ENDBRANCH   9  10
ENDBRANCH   8   9
ENDBRANCH   7   8
ENDBRANCH   6   7
ENDBRANCH   5   6
ENDBRANCH   2   5
BRANCH   1  20
HETATM   20  C   UNL     1       6.472  26.063  52.608  1.00  0.00     0.120 A 
HETATM   21  N   UNL     1       7.157  25.519  51.559  1.00  0.00    -0.272 N 
HETATM   22  N   UNL     1       7.675  24.307  51.807  1.00  0.00    -0.174 NA
HETATM   23  H   UNL     1       7.300  25.938  50.645  1.00  0.00     0.189 HD
HETATM   24  C   UNL     1       7.282  24.021  53.058  1.00  0.00     0.089 A 
HETATM   25  C   UNL     1       6.542  25.108  53.603  1.00  0.00     0.071 A 
BRANCH  24  26
HETATM   26  C   UNL     1       7.606  22.742  53.698  1.00  0.00    -0.006 A 
HETATM   27  C   UNL     1       7.506  22.599  55.089  1.00  0.00     0.014 A 
HETATM   28  C   UNL     1       7.811  21.382  55.706  1.00  0.00     0.001 A 
HETATM   29  C   UNL     1       8.227  20.297  54.937  1.00  0.00     0.000 A 
HETATM   30  C   UNL     1       8.338  20.425  53.555  1.00  0.00     0.001 A 
HETATM   31  C   UNL     1       8.029  21.641  52.938  1.00  0.00     0.014 A 
ENDBRANCH  24  26
ENDBRANCH   1  20
TORSDOF 8
ENDMDL
MODEL 9
REMARK VINA RESULT:      -9.0      2.746     11.237
REMARK  8 active torsions:
REMARK  status: ('A' for Active; 'I' for Inactive)
REMARK    1  A    between atoms: C_4  and  C_5 
REMARK    2  A    between atoms: C_9  and  C_10 
REMARK       I    between atoms: C_10  and  N_11 
REMARK    3  A    between atoms: N_11  and  C_12 
REMARK    4  A    between atoms: C_12  and  C_13 
REMARK    5  A    between atoms: C_13  and  C_14 
REMARK    6  A    between atoms: C_14  and  C_15 
REMARK    7  A    between atoms: C_15  and  O_16 
REMARK    8  A    between atoms: O_16  and  C_17 
ROOT
HETATM    1  C   UNL     1       5.932  27.322  54.903  1.00  0.00     0.270 C 
HETATM    2  N   UNL     1       4.579  27.497  55.050  1.00  0.00    -0.345 N 
HETATM    3  O   UNL     1       6.694  28.227  54.581  1.00  0.00    -0.266 OA
HETATM    4  H   UNL     1       4.026  26.765  55.469  1.00  0.00     0.163 HD
ENDROOT
BRANCH   2   5
HETATM    5  C   UNL     1       3.949  28.771  54.832  1.00  0.00     0.217 C 
BRANCH   5   6
HETATM    6  C   UNL     1       4.044  29.628  56.084  1.00  0.00    -0.085 C 
BRANCH   6   7
HETATM    7  C   UNL     1       4.124  30.364  57.157  1.00  0.00    -0.078 C 
BRANCH   7   8
HETATM    8  C   UNL     1       4.218  31.222  58.408  1.00  0.00     0.269 C 
BRANCH   8   9
HETATM    9  O   UNL     1       5.457  31.918  58.414  1.00  0.00    -0.337 OA
BRANCH   9  10
HETATM   10  C   UNL     1       5.942  32.340  59.636  1.00  0.00     0.099 A 
HETATM   11  C   UNL     1       7.104  31.889  60.302  1.00  0.00     0.100 A 
HETATM   12  C   UNL     1       7.398  32.478  61.557  1.00  0.00    -0.005 A 
HETATM   13  N   UNL     1       7.930  30.937  59.798  1.00  0.00    -0.257 NA
HETATM   14  C   UNL     1       8.540  32.059  62.254  1.00  0.00     0.015 A 
HETATM   15  C   UNL     1       6.569  33.467  62.108  1.00  0.00     0.014 A 
HETATM   16  C   UNL     1       9.369  31.084  61.720  1.00  0.00     0.020 A 
HETATM   17  C   UNL     1       9.023  30.557  60.496  1.00  0.00     0.117 A 
HETATM   18  C   UNL     1       5.434  33.896  61.432  1.00  0.00     0.004 A 
HETATM   19  C   UNL     1       5.125  33.334  60.200  1.00  0.00     0.039 A 
ENDBRANCH   9  10
ENDBRANCH   8   9
ENDBRANCH   7   8
ENDBRANCH   6   7
ENDBRANCH   5   6
ENDBRANCH   2   5
BRANCH   1  20
HETATM   20  C   UNL     1       6.400  25.983  55.139  1.00  0.00     0.120 A 
HETATM   21  N   UNL     1       6.670  25.530  56.399  1.00  0.00    -0.272 N 
HETATM   22  N   UNL     1       7.112  24.264  56.446  1.00  0.00    -0.174 NA
HETATM   23  H   UNL     1       6.569  26.049  57.266  1.00  0.00     0.189 HD
HETATM   24  C   UNL     1       7.175  23.880  55.162  1.00  0.00     0.089 A 
HETATM   25  C   UNL     1       6.715  24.924  54.312  1.00  0.00     0.071 A 
BRANCH  24  26
HETATM   26  C   UNL     1       7.667  22.554  54.775  1.00  0.00    -0.006 A 
HETATM   27  C   UNL     1       7.873  22.240  53.423  1.00  0.00     0.014 A 
HETATM   28  C   UNL     1       8.344  20.980  53.046  1.00  0.00     0.001 A 
HETATM   29  C   UNL     1       8.607  20.015  54.017  1.00  0.00     0.000 A 
HETATM   30  C   UNL     1       8.400  20.309  55.362  1.00  0.00     0.001 A 
HETATM   31  C   UNL     1       7.933  21.572  55.740  1.00  0.00     0.014 A 
ENDBRANCH  24  26
ENDBRANCH   1  20
TORSDOF 8
ENDMDL
MODEL 10
REMARK VINA RESULT:      -8.9      3.189     11.117
REMARK  8 active torsions:
REMARK  status: ('A' for Active; 'I' for Inactive)
REMARK    1  A    between atoms: C_4  and  C_5 
REMARK    2  A    between atoms: C_9  and  C_10 
REMARK       I    between atoms: C_10  and  N_11 
REMARK    3  A    between atoms: N_11  and  C_12 
REMARK    4  A    between atoms: C_12  and  C_13 
REMARK    5  A    between atoms: C_13  and  C_14 
REMARK    6  A    between atoms: C_14  and  C_15 
REMARK    7  A    between atoms: C_15  and  O_16 
REMARK    8  A    between atoms: O_16  and  C_17 
ROOT
HETATM    1  C   UNL     1       4.377  29.059  55.214  1.00  0.00     0.270 C 
HETATM    2  N   UNL     1       3.991  29.545  56.439  1.00  0.00    -0.345 N 
HETATM    3  O   UNL     1       4.245  29.690  54.171  1.00  0.00    -0.266 OA
HETATM    4  H   UNL     1       4.267  29.056  57.276  1.00  0.00     0.163 HD
ENDROOT
BRANCH   2   5
HETATM    5  C   UNL     1       3.395  30.844  56.587  1.00  0.00     0.217 C 
BRANCH   5   6
HETATM    6  C   UNL     1       3.574  31.348  58.011  1.00  0.00    -0.085 C 
BRANCH   6   7
HETATM    7  C   UNL     1       3.727  31.780  59.231  1.00  0.00    -0.078 C 
BRANCH   7   8
HETATM    8  C   UNL     1       3.906  32.284  60.654  1.00  0.00     0.269 C 
BRANCH   8   9
HETATM    9  O   UNL     1       4.939  33.260  60.685  1.00  0.00    -0.337 OA
BRANCH   9  10
HETATM   10  C   UNL     1       6.089  32.945  61.380  1.00  0.00     0.099 A 
HETATM   11  C   UNL     1       7.321  32.501  60.848  1.00  0.00     0.100 A 
HETATM   12  C   UNL     1       8.365  32.240  61.770  1.00  0.00    -0.005 A 
HETATM   13  N   UNL     1       7.539  32.322  59.520  1.00  0.00    -0.257 NA
HETATM   14  C   UNL     1       9.604  31.796  61.287  1.00  0.00     0.015 A 
HETATM   15  C   UNL     1       8.178  32.416  63.150  1.00  0.00     0.014 A 
HETATM   16  C   UNL     1       9.803  31.620  59.926  1.00  0.00     0.020 A 
HETATM   17  C   UNL     1       8.746  31.894  59.089  1.00  0.00     0.117 A 
HETATM   18  C   UNL     1       6.958  32.856  63.647  1.00  0.00     0.004 A 
HETATM   19  C   UNL     1       5.920  33.120  62.764  1.00  0.00     0.039 A 
ENDBRANCH   9  10
ENDBRANCH   8   9
ENDBRANCH   7   8
ENDBRANCH   6   7
ENDBRANCH   5   6
ENDBRANCH   2   5
BRANCH   1  20
HETATM   20  C   UNL     1       4.938  27.736  55.236  1.00  0.00     0.120 A 
HETATM   21  N   UNL     1       4.846  26.936  56.339  1.00  0.00    -0.272 N 
HETATM   22  N   UNL     1       5.434  25.738  56.202  1.00  0.00    -0.174 NA
HETATM   23  H   UNL     1       4.389  27.163  57.218  1.00  0.00     0.189 HD
HETATM   24  C   UNL     1       5.971  25.764  54.973  1.00  0.00     0.089 A 
HETATM   25  C   UNL     1       5.663  26.993  54.326  1.00  0.00     0.071 A 
BRANCH  24  26
HETATM   26  C   UNL     1       6.757  24.642  54.449  1.00  0.00    -0.006 A 
HETATM   27  C   UNL     1       7.128  23.582  55.289  1.00  0.00     0.014 A 
HETATM   28  C   UNL     1       7.875  22.509  54.797  1.00  0.00     0.001 A 
HETATM   29  C   UNL     1       8.267  22.487  53.460  1.00  0.00     0.000 A 
HETATM   30  C   UNL     1       7.913  23.536  52.615  1.00  0.00     0.001 A 
HETATM   31  C   UNL     1       7.162  24.608  53.107  1.00  0.00     0.014 A 
ENDBRANCH  24  26
ENDBRANCH   1  20
TORSDOF 8
ENDMDL
