MODEL 1
REMARK VINA RESULT:      -9.2      0.000      0.000
REMARK  9 active torsions:
REMARK  status: ('A' for Active; 'I' for Inactive)
REMARK    1  A    between atoms: C_2  and  C_3 
REMARK    2  A    between atoms: C_3  and  O_4 
REMARK    3  A    between atoms: O_4  and  C_5 
REMARK    4  A    between atoms: C_8  and  C_9 
REMARK    5  A    between atoms: N_10  and  N_11 
REMARK       I    between atoms: N_11  and  C_12 
REMARK    6  A    between atoms: C_12  and  C_13 
REMARK    7  A    between atoms: C_17  and  C_18 
REMARK    8  A    between atoms: C_21  and  O_22 
REMARK    9  A    between atoms: O_22  and  C_23 
ROOT
HETATM    1  N   UNL     1       8.133  28.579  58.083  1.00  0.00    -0.242 N 
HETATM    2  C   UNL     1       8.932  29.704  57.938  1.00  0.00     0.289 C 
HETATM    3  O   UNL     1       9.752  29.858  57.036  1.00  0.00    -0.264 OA
HETATM    4  H   UNL     1       7.504  28.491  58.869  1.00  0.00     0.192 HD
ENDROOT
BRANCH   2   5
HETATM    5  C   UNL     1       8.749  30.712  58.951  1.00  0.00     0.121 A 
HETATM    6  N   UNL     1       9.499  31.855  58.950  1.00  0.00    -0.272 N 
HETATM    7  H   UNL     1      10.216  32.108  58.275  1.00  0.00     0.189 HD
HETATM    8  N   UNL     1       9.238  32.686  59.968  1.00  0.00    -0.174 NA
HETATM    9  C   UNL     1       8.249  32.089  60.650  1.00  0.00     0.089 A 
HETATM   10  C   UNL     1       7.917  30.842  60.046  1.00  0.00     0.071 A 
BRANCH   9  11
HETATM   11  C   UNL     1       7.663  32.699  61.847  1.00  0.00    -0.005 A 
HETATM   12  C   UNL     1       8.178  32.434  63.122  1.00  0.00     0.016 A 
HETATM   13  C   UNL     1       7.616  33.038  64.253  1.00  0.00     0.037 A 
HETATM   14  C   UNL     1       6.540  33.919  64.132  1.00  0.00     0.068 A 
HETATM   15  C   UNL     1       6.011  34.176  62.868  1.00  0.00     0.037 A 
HETATM   16  C   UNL     1       6.569  33.569  61.737  1.00  0.00     0.016 A 
BRANCH  14  17
HETATM   17  O   UNL     1       6.097  34.446  65.313  1.00  0.00    -0.352 OA
BRANCH  17  18
HETATM   18  C   UNL     1       4.905  33.887  65.862  1.00  0.00     0.171 C 
HETATM   19  C   UNL     1       4.864  34.231  67.340  1.00  0.00     0.034 C 
ENDBRANCH  17  18
ENDBRANCH  14  17
ENDBRANCH   9  11
ENDBRANCH   2   5
BRANCH   1  20
HETATM   20  N   UNL     1       8.221  27.563  57.178  1.00  0.00    -0.184 NA
HETATM   21  C   UNL     1       7.112  26.966  56.882  1.00  0.00     0.150 C 
BRANCH  21  22
HETATM   22  C   UNL     1       7.076  25.853  55.912  1.00  0.00    -0.017 A 
HETATM   23  C   UNL     1       6.165  25.863  54.853  1.00  0.00     0.016 A 
HETATM   24  C   UNL     1       6.138  24.802  53.941  1.00  0.00     0.037 A 
HETATM   25  C   UNL     1       7.020  23.730  54.085  1.00  0.00     0.068 A 
HETATM   26  C   UNL     1       7.929  23.729  55.149  1.00  0.00     0.037 A 
HETATM   27  C   UNL     1       7.961  24.785  56.065  1.00  0.00     0.016 A 
BRANCH  25  28
HETATM   28  O   UNL     1       7.096  22.638  53.266  1.00  0.00    -0.351 OA
BRANCH  28  29
HETATM   29  C   UNL     1       8.389  22.065  53.071  1.00  0.00     0.175 C 
BRANCH  29  30
HETATM   30  C   UNL     1       8.260  20.551  53.216  1.00  0.00     0.022 C 
HETATM   31  C   UNL     1       8.644  20.085  54.610  1.00  0.00     0.007 C 
ENDBRANCH  29  30
ENDBRANCH  28  29
ENDBRANCH  25  28
ENDBRANCH  21  22
ENDBRANCH   1  20
TORSDOF 9
ENDMDL
MODEL 2
REMARK VINA RESULT:      -9.1      1.632     12.276
REMARK  9 active torsions:
REMARK  status: ('A' for Active; 'I' for Inactive)
REMARK    1  A    between atoms: C_2  and  C_3 
REMARK    2  A    between atoms: C_3  and  O_4 
REMARK    3  A    between atoms: O_4  and  C_5 
REMARK    4  A    between atoms: C_8  and  C_9 
REMARK    5  A    between atoms: N_10  and  N_11 
REMARK       I    between atoms: N_11  and  C_12 
REMARK    6  A    between atoms: C_12  and  C_13 
REMARK    7  A    between atoms: C_17  and  C_18 
REMARK    8  A    between atoms: C_21  and  O_22 
REMARK    9  A    between atoms: O_22  and  C_23 
ROOT
HETATM    1  N   UNL     1       8.114  30.559  60.804  1.00  0.00    -0.242 N 
HETATM    2  C   UNL     1       8.139  30.959  59.477  1.00  0.00     0.289 C 
HETATM    3  O   UNL     1       8.012  32.122  59.103  1.00  0.00    -0.264 OA
HETATM    4  H   UNL     1       8.183  29.580  61.050  1.00  0.00     0.192 HD
ENDROOT
BRANCH   2   5
HETATM    5  C   UNL     1       8.315  29.891  58.525  1.00  0.00     0.121 A 
HETATM    6  N   UNL     1       9.464  29.785  57.793  1.00  0.00    -0.272 N 
HETATM    7  H   UNL     1      10.271  30.401  57.838  1.00  0.00     0.189 HD
HETATM    8  N   UNL     1       9.474  28.760  56.929  1.00  0.00    -0.174 NA
HETATM    9  C   UNL     1       8.301  28.139  57.125  1.00  0.00     0.089 A 
HETATM   10  C   UNL     1       7.541  28.823  58.117  1.00  0.00     0.071 A 
BRANCH   9  11
HETATM   11  C   UNL     1       7.929  26.941  56.367  1.00  0.00    -0.005 A 
HETATM   12  C   UNL     1       8.050  25.663  56.924  1.00  0.00     0.016 A 
HETATM   13  C   UNL     1       7.675  24.531  56.192  1.00  0.00     0.037 A 
HETATM   14  C   UNL     1       7.168  24.654  54.897  1.00  0.00     0.068 A 
HETATM   15  C   UNL     1       7.057  25.921  54.328  1.00  0.00     0.037 A 
HETATM   16  C   UNL     1       7.437  27.054  55.058  1.00  0.00     0.016 A 
BRANCH  14  17
HETATM   17  O   UNL     1       6.830  23.471  54.300  1.00  0.00    -0.352 OA
BRANCH  17  18
HETATM   18  C   UNL     1       7.732  22.380  54.475  1.00  0.00     0.171 C 
HETATM   19  C   UNL     1       7.914  21.703  53.128  1.00  0.00     0.034 C 
ENDBRANCH  17  18
ENDBRANCH  14  17
ENDBRANCH   9  11
ENDBRANCH   2   5
BRANCH   1  20
HETATM   20  N   UNL     1       7.955  31.487  61.791  1.00  0.00    -0.184 NA
HETATM   21  C   UNL     1       6.827  31.461  62.423  1.00  0.00     0.150 C 
BRANCH  21  22
HETATM   22  C   UNL     1       6.538  32.412  63.515  1.00  0.00    -0.017 A 
HETATM   23  C   UNL     1       7.578  33.036  64.207  1.00  0.00     0.016 A 
HETATM   24  C   UNL     1       7.293  33.934  65.242  1.00  0.00     0.037 A 
HETATM   25  C   UNL     1       5.970  34.209  65.587  1.00  0.00     0.068 A 
HETATM   26  C   UNL     1       4.934  33.580  64.887  1.00  0.00     0.037 A 
HETATM   27  C   UNL     1       5.211  32.680  63.853  1.00  0.00     0.016 A 
BRANCH  25  28
HETATM   28  O   UNL     1       5.558  35.064  66.572  1.00  0.00    -0.351 OA
BRANCH  28  29
HETATM   29  C   UNL     1       4.994  34.476  67.744  1.00  0.00     0.175 C 
BRANCH  29  30
HETATM   30  C   UNL     1       6.136  34.144  68.701  1.00  0.00     0.022 C 
HETATM   31  C   UNL     1       6.918  35.386  69.096  1.00  0.00     0.007 C 
ENDBRANCH  29  30
ENDBRANCH  28  29
ENDBRANCH  25  28
ENDBRANCH  21  22
ENDBRANCH   1  20
TORSDOF 9
ENDMDL
MODEL 3
REMARK VINA RESULT:      -8.5      1.974      2.889
REMARK  9 active torsions:
REMARK  status: ('A' for Active; 'I' for Inactive)
REMARK    1  A    between atoms: C_2  and  C_3 
REMARK    2  A    between atoms: C_3  and  O_4 
REMARK    3  A    between atoms: O_4  and  C_5 
REMARK    4  A    between atoms: C_8  and  C_9 
REMARK    5  A    between atoms: N_10  and  N_11 
REMARK       I    between atoms: N_11  and  C_12 
REMARK    6  A    between atoms: C_12  and  C_13 
REMARK    7  A    between atoms: C_17  and  C_18 
REMARK    8  A    between atoms: C_21  and  O_22 
REMARK    9  A    between atoms: O_22  and  C_23 
ROOT
HETATM    1  N   UNL     1       7.626  30.101  59.090  1.00  0.00    -0.242 N 
HETATM    2  C   UNL     1       7.304  31.429  59.324  1.00  0.00     0.289 C 
HETATM    3  O   UNL     1       7.025  32.238  58.443  1.00  0.00    -0.264 OA
HETATM    4  H   UNL     1       7.887  29.491  59.854  1.00  0.00     0.192 HD
ENDROOT
BRANCH   2   5
HETATM    5  C   UNL     1       7.330  31.824  60.710  1.00  0.00     0.121 A 
HETATM    6  N   UNL     1       8.447  31.630  61.475  1.00  0.00    -0.272 N 
HETATM    7  H   UNL     1       9.325  31.219  61.171  1.00  0.00     0.189 HD
HETATM    8  N   UNL     1       8.316  32.020  62.750  1.00  0.00    -0.174 NA
HETATM    9  C   UNL     1       7.077  32.530  62.824  1.00  0.00     0.089 A 
HETATM   10  C   UNL     1       6.422  32.420  61.563  1.00  0.00     0.071 A 
BRANCH   9  11
HETATM   11  C   UNL     1       6.547  33.085  64.072  1.00  0.00    -0.005 A 
HETATM   12  C   UNL     1       7.399  33.498  65.103  1.00  0.00     0.016 A 
HETATM   13  C   UNL     1       6.877  34.041  66.282  1.00  0.00     0.037 A 
HETATM   14  C   UNL     1       5.498  34.187  66.451  1.00  0.00     0.068 A 
HETATM   15  C   UNL     1       4.641  33.765  65.437  1.00  0.00     0.037 A 
HETATM   16  C   UNL     1       5.163  33.217  64.259  1.00  0.00     0.016 A 
BRANCH  14  17
HETATM   17  O   UNL     1       5.124  34.742  67.643  1.00  0.00    -0.352 OA
BRANCH  17  18
HETATM   18  C   UNL     1       5.765  34.242  68.816  1.00  0.00     0.171 C 
HETATM   19  C   UNL     1       6.666  35.336  69.359  1.00  0.00     0.034 C 
ENDBRANCH  17  18
ENDBRANCH  14  17
ENDBRANCH   9  11
ENDBRANCH   2   5
BRANCH   1  20
HETATM   20  N   UNL     1       7.630  29.617  57.816  1.00  0.00    -0.184 NA
HETATM   21  C   UNL     1       6.877  28.588  57.594  1.00  0.00     0.150 C 
BRANCH  21  22
HETATM   22  C   UNL     1       6.792  27.975  56.253  1.00  0.00    -0.017 A 
HETATM   23  C   UNL     1       7.690  28.340  55.247  1.00  0.00     0.016 A 
HETATM   24  C   UNL     1       7.599  27.755  53.980  1.00  0.00     0.037 A 
HETATM   25  C   UNL     1       6.611  26.806  53.715  1.00  0.00     0.068 A 
HETATM   26  C   UNL     1       5.716  26.446  54.729  1.00  0.00     0.037 A 
HETATM   27  C   UNL     1       5.800  27.028  55.997  1.00  0.00     0.016 A 
BRANCH  25  28
HETATM   28  O   UNL     1       6.417  26.161  52.525  1.00  0.00    -0.351 OA
BRANCH  28  29
HETATM   29  C   UNL     1       6.380  24.734  52.561  1.00  0.00     0.175 C 
BRANCH  29  30
HETATM   30  C   UNL     1       7.816  24.223  52.488  1.00  0.00     0.022 C 
HETATM   31  C   UNL     1       7.964  22.865  53.152  1.00  0.00     0.007 C 
ENDBRANCH  29  30
ENDBRANCH  28  29
ENDBRANCH  25  28
ENDBRANCH  21  22
ENDBRANCH   1  20
TORSDOF 9
ENDMDL
MODEL 4
REMARK VINA RESULT:      -8.3      1.658     12.359
REMARK  9 active torsions:
REMARK  status: ('A' for Active; 'I' for Inactive)
REMARK    1  A    between atoms: C_2  and  C_3 
REMARK    2  A    between atoms: C_3  and  O_4 
REMARK    3  A    between atoms: O_4  and  C_5 
REMARK    4  A    between atoms: C_8  and  C_9 
REMARK    5  A    between atoms: N_10  and  N_11 
REMARK       I    between atoms: N_11  and  C_12 
REMARK    6  A    between atoms: C_12  and  C_13 
REMARK    7  A    between atoms: C_17  and  C_18 
REMARK    8  A    between atoms: C_21  and  O_22 
REMARK    9  A    between atoms: O_22  and  C_23 
ROOT
HETATM    1  N   UNL     1       7.359  30.687  58.990  1.00  0.00    -0.242 N 
HETATM    2  C   UNL     1       6.460  30.397  57.975  1.00  0.00     0.289 C 
HETATM    3  O   UNL     1       5.406  31.002  57.791  1.00  0.00    -0.264 OA
HETATM    4  H   UNL     1       8.191  30.128  59.118  1.00  0.00     0.192 HD
ENDROOT
BRANCH   2   5
HETATM    5  C   UNL     1       6.838  29.295  57.127  1.00  0.00     0.121 A 
HETATM    6  N   UNL     1       7.425  29.513  55.911  1.00  0.00    -0.272 N 
HETATM    7  H   UNL     1       7.650  30.415  55.501  1.00  0.00     0.189 HD
HETATM    8  N   UNL     1       7.695  28.396  55.222  1.00  0.00    -0.174 NA
HETATM    9  C   UNL     1       7.308  27.397  56.029  1.00  0.00     0.089 A 
HETATM   10  C   UNL     1       6.759  27.921  57.234  1.00  0.00     0.071 A 
BRANCH   9  11
HETATM   11  C   UNL     1       7.453  25.992  55.636  1.00  0.00    -0.005 A 
HETATM   12  C   UNL     1       7.535  24.975  56.595  1.00  0.00     0.016 A 
HETATM   13  C   UNL     1       7.656  23.638  56.202  1.00  0.00     0.037 A 
HETATM   14  C   UNL     1       7.691  23.291  54.849  1.00  0.00     0.068 A 
HETATM   15  C   UNL     1       7.626  24.298  53.888  1.00  0.00     0.037 A 
HETATM   16  C   UNL     1       7.510  25.637  54.281  1.00  0.00     0.016 A 
BRANCH  14  17
HETATM   17  O   UNL     1       7.800  21.950  54.605  1.00  0.00    -0.352 OA
BRANCH  17  18
HETATM   18  C   UNL     1       8.824  21.541  53.700  1.00  0.00     0.171 C 
HETATM   19  C   UNL     1       8.246  20.468  52.795  1.00  0.00     0.034 C 
ENDBRANCH  17  18
ENDBRANCH  14  17
ENDBRANCH   9  11
ENDBRANCH   2   5
BRANCH   1  20
HETATM   20  N   UNL     1       7.103  31.713  59.852  1.00  0.00    -0.184 NA
HETATM   21  C   UNL     1       7.150  31.424  61.112  1.00  0.00     0.150 C 
BRANCH  21  22
HETATM   22  C   UNL     1       6.896  32.450  62.143  1.00  0.00    -0.017 A 
HETATM   23  C   UNL     1       7.656  32.483  63.315  1.00  0.00     0.016 A 
HETATM   24  C   UNL     1       7.405  33.457  64.287  1.00  0.00     0.037 A 
HETATM   25  C   UNL     1       6.396  34.401  64.090  1.00  0.00     0.068 A 
HETATM   26  C   UNL     1       5.640  34.361  62.913  1.00  0.00     0.037 A 
HETATM   27  C   UNL     1       5.884  33.389  61.938  1.00  0.00     0.016 A 
BRANCH  25  28
HETATM   28  O   UNL     1       6.054  35.402  64.957  1.00  0.00    -0.351 OA
BRANCH  28  29
HETATM   29  C   UNL     1       4.663  35.569  65.234  1.00  0.00     0.175 C 
BRANCH  29  30
HETATM   30  C   UNL     1       4.510  35.835  66.729  1.00  0.00     0.022 C 
HETATM   31  C   UNL     1       5.315  34.851  67.561  1.00  0.00     0.007 C 
ENDBRANCH  29  30
ENDBRANCH  28  29
ENDBRANCH  25  28
ENDBRANCH  21  22
ENDBRANCH   1  20
TORSDOF 9
ENDMDL
MODEL 5
REMARK VINA RESULT:      -8.1      2.503     12.322
REMARK  9 active torsions:
REMARK  status: ('A' for Active; 'I' for Inactive)
REMARK    1  A    between atoms: C_2  and  C_3 
REMARK    2  A    between atoms: C_3  and  O_4 
REMARK    3  A    between atoms: O_4  and  C_5 
REMARK    4  A    between atoms: C_8  and  C_9 
REMARK    5  A    between atoms: N_10  and  N_11 
REMARK       I    between atoms: N_11  and  C_12 
REMARK    6  A    between atoms: C_12  and  C_13 
REMARK    7  A    between atoms: C_17  and  C_18 
REMARK    8  A    between atoms: C_21  and  O_22 
REMARK    9  A    between atoms: O_22  and  C_23 
ROOT
HETATM    1  N   UNL     1       7.448  31.344  60.393  1.00  0.00    -0.242 N 
HETATM    2  C   UNL     1       8.623  30.702  60.031  1.00  0.00     0.289 C 
HETATM    3  O   UNL     1       9.668  30.759  60.674  1.00  0.00    -0.264 OA
HETATM    4  H   UNL     1       6.629  31.294  59.802  1.00  0.00     0.192 HD
ENDROOT
BRANCH   2   5
HETATM    5  C   UNL     1       8.549  29.950  58.804  1.00  0.00     0.121 A 
HETATM    6  N   UNL     1       9.604  29.916  57.936  1.00  0.00    -0.272 N 
HETATM    7  H   UNL     1      10.501  30.381  58.053  1.00  0.00     0.189 HD
HETATM    8  N   UNL     1       9.381  29.200  56.825  1.00  0.00    -0.174 NA
HETATM    9  C   UNL     1       8.143  28.707  56.981  1.00  0.00     0.089 A 
HETATM   10  C   UNL     1       7.584  29.160  58.211  1.00  0.00     0.071 A 
BRANCH   9  11
HETATM   11  C   UNL     1       7.525  27.846  55.969  1.00  0.00    -0.005 A 
HETATM   12  C   UNL     1       7.735  28.065  54.603  1.00  0.00     0.016 A 
HETATM   13  C   UNL     1       7.150  27.223  53.651  1.00  0.00     0.037 A 
HETATM   14  C   UNL     1       6.353  26.145  54.044  1.00  0.00     0.068 A 
HETATM   15  C   UNL     1       6.126  25.928  55.402  1.00  0.00     0.037 A 
HETATM   16  C   UNL     1       6.707  26.774  56.355  1.00  0.00     0.016 A 
BRANCH  14  17
HETATM   17  O   UNL     1       5.854  25.397  53.014  1.00  0.00    -0.352 OA
BRANCH  17  18
HETATM   18  C   UNL     1       6.307  25.723  51.702  1.00  0.00     0.171 C 
HETATM   19  C   UNL     1       5.087  25.912  50.819  1.00  0.00     0.034 C 
ENDBRANCH  17  18
ENDBRANCH  14  17
ENDBRANCH   9  11
ENDBRANCH   2   5
BRANCH   1  20
HETATM   20  N   UNL     1       7.403  32.083  61.539  1.00  0.00    -0.184 NA
HETATM   21  C   UNL     1       6.348  31.932  62.273  1.00  0.00     0.150 C 
BRANCH  21  22
HETATM   22  C   UNL     1       6.184  32.674  63.539  1.00  0.00    -0.017 A 
HETATM   23  C   UNL     1       7.297  33.018  64.310  1.00  0.00     0.016 A 
HETATM   24  C   UNL     1       7.131  33.718  65.510  1.00  0.00     0.037 A 
HETATM   25  C   UNL     1       5.853  34.076  65.941  1.00  0.00     0.068 A 
HETATM   26  C   UNL     1       4.743  33.728  65.162  1.00  0.00     0.037 A 
HETATM   27  C   UNL     1       4.902  33.026  63.963  1.00  0.00     0.016 A 
BRANCH  25  28
HETATM   28  O   UNL     1       5.555  34.759  67.087  1.00  0.00    -0.351 OA
BRANCH  28  29
HETATM   29  C   UNL     1       6.510  34.694  68.147  1.00  0.00     0.175 C 
BRANCH  29  30
HETATM   30  C   UNL     1       5.853  33.987  69.329  1.00  0.00     0.022 C 
HETATM   31  C   UNL     1       6.082  34.737  70.631  1.00  0.00     0.007 C 
ENDBRANCH  29  30
ENDBRANCH  28  29
ENDBRANCH  25  28
ENDBRANCH  21  22
ENDBRANCH   1  20
TORSDOF 9
ENDMDL
MODEL 6
REMARK VINA RESULT:      -8.1      2.229     12.461
REMARK  9 active torsions:
REMARK  status: ('A' for Active; 'I' for Inactive)
REMARK    1  A    between atoms: C_2  and  C_3 
REMARK    2  A    between atoms: C_3  and  O_4 
REMARK    3  A    between atoms: O_4  and  C_5 
REMARK    4  A    between atoms: C_8  and  C_9 
REMARK    5  A    between atoms: N_10  and  N_11 
REMARK       I    between atoms: N_11  and  C_12 
REMARK    6  A    between atoms: C_12  and  C_13 
REMARK    7  A    between atoms: C_17  and  C_18 
REMARK    8  A    between atoms: C_21  and  O_22 
REMARK    9  A    between atoms: O_22  and  C_23 
ROOT
HETATM    1  N   UNL     1       6.550  31.348  57.889  1.00  0.00    -0.242 N 
HETATM    2  C   UNL     1       7.387  30.245  57.974  1.00  0.00     0.289 C 
HETATM    3  O   UNL     1       8.180  30.048  58.890  1.00  0.00    -0.264 OA
HETATM    4  H   UNL     1       5.946  31.477  57.089  1.00  0.00     0.192 HD
ENDROOT
BRANCH   2   5
HETATM    5  C   UNL     1       7.279  29.317  56.877  1.00  0.00     0.121 A 
HETATM    6  N   UNL     1       6.640  29.667  55.720  1.00  0.00    -0.272 N 
HETATM    7  H   UNL     1       6.204  30.562  55.516  1.00  0.00     0.189 HD
HETATM    8  N   UNL     1       6.593  28.694  54.800  1.00  0.00    -0.174 NA
HETATM    9  C   UNL     1       7.262  27.671  55.353  1.00  0.00     0.089 A 
HETATM   10  C   UNL     1       7.704  28.021  56.661  1.00  0.00     0.071 A 
BRANCH   9  11
HETATM   11  C   UNL     1       7.449  26.401  54.645  1.00  0.00    -0.005 A 
HETATM   12  C   UNL     1       7.398  25.177  55.322  1.00  0.00     0.016 A 
HETATM   13  C   UNL     1       7.562  23.974  54.627  1.00  0.00     0.037 A 
HETATM   14  C   UNL     1       7.773  23.970  53.247  1.00  0.00     0.068 A 
HETATM   15  C   UNL     1       7.840  25.184  52.566  1.00  0.00     0.037 A 
HETATM   16  C   UNL     1       7.681  26.388  53.262  1.00  0.00     0.016 A 
BRANCH  14  17
HETATM   17  O   UNL     1       7.905  22.727  52.692  1.00  0.00    -0.352 OA
BRANCH  17  18
HETATM   18  C   UNL     1       8.606  21.750  53.459  1.00  0.00     0.171 C 
HETATM   19  C   UNL     1       8.185  20.378  52.965  1.00  0.00     0.034 C 
ENDBRANCH  17  18
ENDBRANCH  14  17
ENDBRANCH   9  11
ENDBRANCH   2   5
BRANCH   1  20
HETATM   20  N   UNL     1       6.566  32.290  58.875  1.00  0.00    -0.184 NA
HETATM   21  C   UNL     1       5.558  32.285  59.685  1.00  0.00     0.150 C 
BRANCH  21  22
HETATM   22  C   UNL     1       5.462  33.253  60.796  1.00  0.00    -0.017 A 
HETATM   23  C   UNL     1       6.416  33.259  61.816  1.00  0.00     0.016 A 
HETATM   24  C   UNL     1       6.315  34.179  62.866  1.00  0.00     0.037 A 
HETATM   25  C   UNL     1       5.262  35.094  62.898  1.00  0.00     0.068 A 
HETATM   26  C   UNL     1       4.311  35.081  61.871  1.00  0.00     0.037 A 
HETATM   27  C   UNL     1       4.405  34.163  60.820  1.00  0.00     0.016 A 
BRANCH  25  28
HETATM   28  O   UNL     1       5.051  36.041  63.861  1.00  0.00    -0.351 OA
BRANCH  28  29
HETATM   29  C   UNL     1       4.801  37.374  63.414  1.00  0.00     0.175 C 
BRANCH  29  30
HETATM   30  C   UNL     1       6.143  38.091  63.295  1.00  0.00     0.022 C 
HETATM   31  C   UNL     1       6.478  38.421  61.851  1.00  0.00     0.007 C 
ENDBRANCH  29  30
ENDBRANCH  28  29
ENDBRANCH  25  28
ENDBRANCH  21  22
ENDBRANCH   1  20
TORSDOF 9
ENDMDL
MODEL 7
REMARK VINA RESULT:      -8.0      2.745      3.557
REMARK  9 active torsions:
REMARK  status: ('A' for Active; 'I' for Inactive)
REMARK    1  A    between atoms: C_2  and  C_3 
REMARK    2  A    between atoms: C_3  and  O_4 
REMARK    3  A    between atoms: O_4  and  C_5 
REMARK    4  A    between atoms: C_8  and  C_9 
REMARK    5  A    between atoms: N_10  and  N_11 
REMARK       I    between atoms: N_11  and  C_12 
REMARK    6  A    between atoms: C_12  and  C_13 
REMARK    7  A    between atoms: C_17  and  C_18 
REMARK    8  A    between atoms: C_21  and  O_22 
REMARK    9  A    between atoms: O_22  and  C_23 
ROOT
HETATM    1  N   UNL     1       7.109  29.841  58.275  1.00  0.00    -0.242 N 
HETATM    2  C   UNL     1       8.283  30.228  58.903  1.00  0.00     0.289 C 
HETATM    3  O   UNL     1       9.397  30.160  58.391  1.00  0.00    -0.264 OA
HETATM    4  H   UNL     1       6.224  29.882  58.763  1.00  0.00     0.192 HD
ENDROOT
BRANCH   2   5
HETATM    5  C   UNL     1       8.116  30.720  60.248  1.00  0.00     0.121 A 
HETATM    6  N   UNL     1       8.937  30.300  61.257  1.00  0.00    -0.272 N 
HETATM    7  H   UNL     1       9.708  29.643  61.177  1.00  0.00     0.189 HD
HETATM    8  N   UNL     1       8.645  30.820  62.457  1.00  0.00    -0.174 NA
HETATM    9  C   UNL     1       7.615  31.649  62.228  1.00  0.00     0.089 A 
HETATM   10  C   UNL     1       7.249  31.610  60.851  1.00  0.00     0.071 A 
BRANCH   9  11
HETATM   11  C   UNL     1       7.003  32.432  63.305  1.00  0.00    -0.005 A 
HETATM   12  C   UNL     1       5.614  32.492  63.460  1.00  0.00     0.016 A 
HETATM   13  C   UNL     1       5.047  33.232  64.504  1.00  0.00     0.037 A 
HETATM   14  C   UNL     1       5.855  33.917  65.414  1.00  0.00     0.068 A 
HETATM   15  C   UNL     1       7.240  33.876  65.258  1.00  0.00     0.037 A 
HETATM   16  C   UNL     1       7.806  33.140  64.210  1.00  0.00     0.016 A 
BRANCH  14  17
HETATM   17  O   UNL     1       5.174  34.589  66.390  1.00  0.00    -0.352 OA
BRANCH  17  18
HETATM   18  C   UNL     1       4.058  35.374  65.974  1.00  0.00     0.171 C 
HETATM   19  C   UNL     1       4.590  36.664  65.376  1.00  0.00     0.034 C 
ENDBRANCH  17  18
ENDBRANCH  14  17
ENDBRANCH   9  11
ENDBRANCH   2   5
BRANCH   1  20
HETATM   20  N   UNL     1       7.148  29.362  56.999  1.00  0.00    -0.184 NA
HETATM   21  C   UNL     1       6.486  28.273  56.778  1.00  0.00     0.150 C 
BRANCH  21  22
HETATM   22  C   UNL     1       6.447  27.658  55.436  1.00  0.00    -0.017 A 
HETATM   23  C   UNL     1       7.610  27.556  54.668  1.00  0.00     0.016 A 
HETATM   24  C   UNL     1       7.562  26.974  53.396  1.00  0.00     0.037 A 
HETATM   25  C   UNL     1       6.354  26.493  52.890  1.00  0.00     0.068 A 
HETATM   26  C   UNL     1       5.195  26.599  53.667  1.00  0.00     0.037 A 
HETATM   27  C   UNL     1       5.235  27.180  54.938  1.00  0.00     0.016 A 
BRANCH  25  28
HETATM   28  O   UNL     1       6.173  25.904  51.670  1.00  0.00    -0.351 OA
BRANCH  28  29
HETATM   29  C   UNL     1       5.066  26.356  50.891  1.00  0.00     0.175 C 
BRANCH  29  30
HETATM   30  C   UNL     1       5.419  27.726  50.320  1.00  0.00     0.022 C 
HETATM   31  C   UNL     1       4.971  27.867  48.875  1.00  0.00     0.007 C 
ENDBRANCH  29  30
ENDBRANCH  28  29
ENDBRANCH  25  28
ENDBRANCH  21  22
ENDBRANCH   1  20
TORSDOF 9
ENDMDL
MODEL 8
REMARK VINA RESULT:      -7.8      2.309      2.919
REMARK  9 active torsions:
REMARK  status: ('A' for Active; 'I' for Inactive)
REMARK    1  A    between atoms: C_2  and  C_3 
REMARK    2  A    between atoms: C_3  and  O_4 
REMARK    3  A    between atoms: O_4  and  C_5 
REMARK    4  A    between atoms: C_8  and  C_9 
REMARK    5  A    between atoms: N_10  and  N_11 
REMARK       I    between atoms: N_11  and  C_12 
REMARK    6  A    between atoms: C_12  and  C_13 
REMARK    7  A    between atoms: C_17  and  C_18 
REMARK    8  A    between atoms: C_21  and  O_22 
REMARK    9  A    between atoms: O_22  and  C_23 
ROOT
HETATM    1  N   UNL     1       7.801  28.910  58.705  1.00  0.00    -0.242 N 
HETATM    2  C   UNL     1       7.299  30.099  58.199  1.00  0.00     0.289 C 
HETATM    3  O   UNL     1       7.183  30.347  57.002  1.00  0.00    -0.264 OA
HETATM    4  H   UNL     1       7.911  28.778  59.702  1.00  0.00     0.192 HD
ENDROOT
BRANCH   2   5
HETATM    5  C   UNL     1       6.922  31.070  59.196  1.00  0.00     0.121 A 
HETATM    6  N   UNL     1       7.427  31.008  60.464  1.00  0.00    -0.272 N 
HETATM    7  H   UNL     1       8.086  30.322  60.821  1.00  0.00     0.189 HD
HETATM    8  N   UNL     1       6.966  31.959  61.288  1.00  0.00    -0.174 NA
HETATM    9  C   UNL     1       6.152  32.704  60.525  1.00  0.00     0.089 A 
HETATM   10  C   UNL     1       6.092  32.174  59.204  1.00  0.00     0.071 A 
BRANCH   9  11
HETATM   11  C   UNL     1       5.449  33.872  61.064  1.00  0.00    -0.005 A 
HETATM   12  C   UNL     1       5.829  34.450  62.281  1.00  0.00     0.016 A 
HETATM   13  C   UNL     1       5.157  35.575  62.772  1.00  0.00     0.037 A 
HETATM   14  C   UNL     1       4.101  36.146  62.057  1.00  0.00     0.068 A 
HETATM   15  C   UNL     1       3.706  35.568  60.852  1.00  0.00     0.037 A 
HETATM   16  C   UNL     1       4.375  34.439  60.363  1.00  0.00     0.016 A 
BRANCH  14  17
HETATM   17  O   UNL     1       3.542  37.246  62.644  1.00  0.00    -0.352 OA
BRANCH  17  18
HETATM   18  C   UNL     1       3.444  38.424  61.845  1.00  0.00     0.171 C 
HETATM   19  C   UNL     1       4.771  39.156  61.927  1.00  0.00     0.034 C 
ENDBRANCH  17  18
ENDBRANCH  14  17
ENDBRANCH   9  11
ENDBRANCH   2   5
BRANCH   1  20
HETATM   20  N   UNL     1       8.186  27.918  57.852  1.00  0.00    -0.184 NA
HETATM   21  C   UNL     1       7.395  26.898  57.768  1.00  0.00     0.150 C 
BRANCH  21  22
HETATM   22  C   UNL     1       7.701  25.762  56.875  1.00  0.00    -0.017 A 
HETATM   23  C   UNL     1       7.036  25.619  55.655  1.00  0.00     0.016 A 
HETATM   24  C   UNL     1       7.331  24.537  54.818  1.00  0.00     0.037 A 
HETATM   25  C   UNL     1       8.291  23.598  55.198  1.00  0.00     0.068 A 
HETATM   26  C   UNL     1       8.952  23.750  56.422  1.00  0.00     0.037 A 
HETATM   27  C   UNL     1       8.661  24.828  57.265  1.00  0.00     0.016 A 
BRANCH  25  28
HETATM   28  O   UNL     1       8.672  22.502  54.475  1.00  0.00    -0.351 OA
BRANCH  28  29
HETATM   29  C   UNL     1       8.809  21.272  55.186  1.00  0.00     0.175 C 
BRANCH  29  30
HETATM   30  C   UNL     1       8.706  20.131  54.179  1.00  0.00     0.022 C 
HETATM   31  C   UNL     1       8.181  20.610  52.837  1.00  0.00     0.007 C 
ENDBRANCH  29  30
ENDBRANCH  28  29
ENDBRANCH  25  28
ENDBRANCH  21  22
ENDBRANCH   1  20
TORSDOF 9
ENDMDL
MODEL 9
REMARK VINA RESULT:      -7.7      3.174      3.698
REMARK  9 active torsions:
REMARK  status: ('A' for Active; 'I' for Inactive)
REMARK    1  A    between atoms: C_2  and  C_3 
REMARK    2  A    between atoms: C_3  and  O_4 
REMARK    3  A    between atoms: O_4  and  C_5 
REMARK    4  A    between atoms: C_8  and  C_9 
REMARK    5  A    between atoms: N_10  and  N_11 
REMARK       I    between atoms: N_11  and  C_12 
REMARK    6  A    between atoms: C_12  and  C_13 
REMARK    7  A    between atoms: C_17  and  C_18 
REMARK    8  A    between atoms: C_21  and  O_22 
REMARK    9  A    between atoms: O_22  and  C_23 
ROOT
HETATM    1  N   UNL     1       5.042  28.448  57.537  1.00  0.00    -0.242 N 
HETATM    2  C   UNL     1       5.257  29.772  57.187  1.00  0.00     0.289 C 
HETATM    3  O   UNL     1       5.862  30.132  56.180  1.00  0.00    -0.264 OA
HETATM    4  H   UNL     1       4.571  28.213  58.401  1.00  0.00     0.192 HD
ENDROOT
BRANCH   2   5
HETATM    5  C   UNL     1       4.724  30.739  58.114  1.00  0.00     0.121 A 
HETATM    6  N   UNL     1       3.507  30.548  58.706  1.00  0.00    -0.272 N 
HETATM    7  H   UNL     1       2.886  29.755  58.572  1.00  0.00     0.189 HD
HETATM    8  N   UNL     1       3.129  31.542  59.522  1.00  0.00    -0.174 NA
HETATM    9  C   UNL     1       4.154  32.407  59.501  1.00  0.00     0.089 A 
HETATM   10  C   UNL     1       5.175  31.941  58.623  1.00  0.00     0.071 A 
BRANCH   9  11
HETATM   11  C   UNL     1       4.134  33.643  60.289  1.00  0.00    -0.005 A 
HETATM   12  C   UNL     1       3.961  34.890  59.679  1.00  0.00     0.016 A 
HETATM   13  C   UNL     1       3.928  36.058  60.449  1.00  0.00     0.037 A 
HETATM   14  C   UNL     1       4.060  36.002  61.838  1.00  0.00     0.068 A 
HETATM   15  C   UNL     1       4.248  34.766  62.453  1.00  0.00     0.037 A 
HETATM   16  C   UNL     1       4.286  33.597  61.682  1.00  0.00     0.016 A 
BRANCH  14  17
HETATM   17  O   UNL     1       3.998  37.214  62.468  1.00  0.00    -0.352 OA
BRANCH  17  18
HETATM   18  C   UNL     1       5.117  37.580  63.274  1.00  0.00     0.171 C 
HETATM   19  C   UNL     1       6.224  38.052  62.349  1.00  0.00     0.034 C 
ENDBRANCH  17  18
ENDBRANCH  14  17
ENDBRANCH   9  11
ENDBRANCH   2   5
BRANCH   1  20
HETATM   20  N   UNL     1       5.500  27.449  56.730  1.00  0.00    -0.184 NA
HETATM   21  C   UNL     1       6.568  26.838  57.130  1.00  0.00     0.150 C 
BRANCH  21  22
HETATM   22  C   UNL     1       7.160  25.735  56.345  1.00  0.00    -0.017 A 
HETATM   23  C   UNL     1       7.802  24.673  56.986  1.00  0.00     0.016 A 
HETATM   24  C   UNL     1       8.362  23.635  56.234  1.00  0.00     0.037 A 
HETATM   25  C   UNL     1       8.280  23.656  54.841  1.00  0.00     0.068 A 
HETATM   26  C   UNL     1       7.634  24.723  54.208  1.00  0.00     0.037 A 
HETATM   27  C   UNL     1       7.074  25.765  54.953  1.00  0.00     0.016 A 
BRANCH  25  28
HETATM   28  O   UNL     1       8.781  22.706  53.994  1.00  0.00    -0.351 OA
BRANCH  28  29
HETATM   29  C   UNL     1       7.877  22.148  53.040  1.00  0.00     0.175 C 
BRANCH  29  30
HETATM   30  C   UNL     1       8.027  20.630  53.081  1.00  0.00     0.022 C 
HETATM   31  C   UNL     1       8.694  20.164  54.364  1.00  0.00     0.007 C 
ENDBRANCH  29  30
ENDBRANCH  28  29
ENDBRANCH  25  28
ENDBRANCH  21  22
ENDBRANCH   1  20
TORSDOF 9
ENDMDL
MODEL 10
REMARK VINA RESULT:      -7.5      3.144      4.006
REMARK  9 active torsions:
REMARK  status: ('A' for Active; 'I' for Inactive)
REMARK    1  A    between atoms: C_2  and  C_3 
REMARK    2  A    between atoms: C_3  and  O_4 
REMARK    3  A    between atoms: O_4  and  C_5 
REMARK    4  A    between atoms: C_8  and  C_9 
REMARK    5  A    between atoms: N_10  and  N_11 
REMARK       I    between atoms: N_11  and  C_12 
REMARK    6  A    between atoms: C_12  and  C_13 
REMARK    7  A    between atoms: C_17  and  C_18 
REMARK    8  A    between atoms: C_21  and  O_22 
REMARK    9  A    between atoms: O_22  and  C_23 
ROOT
HETATM    1  N   UNL     1       4.379  30.601  58.705  1.00  0.00    -0.242 N 
HETATM    2  C   UNL     1       4.667  31.931  58.967  1.00  0.00     0.289 C 
HETATM    3  O   UNL     1       4.996  32.749  58.112  1.00  0.00    -0.264 OA
HETATM    4  H   UNL     1       4.153  29.963  59.457  1.00  0.00     0.192 HD
ENDROOT
BRANCH   2   5
HETATM    5  C   UNL     1       4.571  32.310  60.354  1.00  0.00     0.121 A 
HETATM    6  N   UNL     1       3.355  32.480  60.954  1.00  0.00    -0.272 N 
HETATM    7  H   UNL     1       2.444  32.360  60.520  1.00  0.00     0.189 HD
HETATM    8  N   UNL     1       3.421  32.859  62.238  1.00  0.00    -0.174 NA
HETATM    9  C   UNL     1       4.734  32.905  62.511  1.00  0.00     0.089 A 
HETATM   10  C   UNL     1       5.491  32.571  61.351  1.00  0.00     0.071 A 
BRANCH   9  11
HETATM   11  C   UNL     1       5.230  33.272  63.840  1.00  0.00    -0.005 A 
HETATM   12  C   UNL     1       6.602  33.354  64.106  1.00  0.00     0.016 A 
HETATM   13  C   UNL     1       7.058  33.723  65.377  1.00  0.00     0.037 A 
HETATM   14  C   UNL     1       6.156  34.021  66.400  1.00  0.00     0.068 A 
HETATM   15  C   UNL     1       4.789  33.927  66.149  1.00  0.00     0.037 A 
HETATM   16  C   UNL     1       4.332  33.554  64.879  1.00  0.00     0.016 A 
BRANCH  14  17
HETATM   17  O   UNL     1       6.735  34.377  67.586  1.00  0.00    -0.352 OA
BRANCH  17  18
HETATM   18  C   UNL     1       5.892  34.389  68.737  1.00  0.00     0.171 C 
HETATM   19  C   UNL     1       6.776  34.261  69.965  1.00  0.00     0.034 C 
ENDBRANCH  17  18
ENDBRANCH  14  17
ENDBRANCH   9  11
ENDBRANCH   2   5
BRANCH   1  20
HETATM   20  N   UNL     1       4.435  30.133  57.425  1.00  0.00    -0.184 NA
HETATM   21  C   UNL     1       5.277  29.176  57.204  1.00  0.00     0.150 C 
BRANCH  21  22
HETATM   22  C   UNL     1       5.428  28.582  55.860  1.00  0.00    -0.017 A 
HETATM   23  C   UNL     1       4.388  28.656  54.931  1.00  0.00     0.016 A 
HETATM   24  C   UNL     1       4.539  28.088  53.661  1.00  0.00     0.037 A 
HETATM   25  C   UNL     1       5.730  27.445  53.319  1.00  0.00     0.068 A 
HETATM   26  C   UNL     1       6.766  27.376  54.256  1.00  0.00     0.037 A 
HETATM   27  C   UNL     1       6.621  27.940  55.527  1.00  0.00     0.016 A 
BRANCH  25  28
HETATM   28  O   UNL     1       6.005  26.853  52.117  1.00  0.00    -0.351 OA
BRANCH  28  29
HETATM   29  C   UNL     1       6.047  25.427  52.093  1.00  0.00     0.175 C 
BRANCH  29  30
HETATM   30  C   UNL     1       7.502  25.002  51.910  1.00  0.00     0.022 C 
HETATM   31  C   UNL     1       7.880  23.871  52.851  1.00  0.00     0.007 C 
ENDBRANCH  29  30
ENDBRANCH  28  29
ENDBRANCH  25  28
ENDBRANCH  21  22
ENDBRANCH   1  20
TORSDOF 9
ENDMDL
