MODEL 1
REMARK VINA RESULT:     -10.4      0.000      0.000
REMARK  7 active torsions:
REMARK  status: ('A' for Active; 'I' for Inactive)
REMARK    1  A    between atoms: C_4  and  C_5 
REMARK    2  A    between atoms: C_5  and  O_6 
REMARK    3  A    between atoms: C_5  and  C_7 
REMARK    4  A    between atoms: C_9  and  C_10 
REMARK    5  A    between atoms: C_10  and  N_11 
REMARK       I    between atoms: N_11  and  C_12 
REMARK    6  A    between atoms: C_12  and  C_13 
REMARK       I    between atoms: C_13  and  N_14 
REMARK    7  A    between atoms: N_14  and  C_15 
ROOT
HETATM    1  N   UNL     1       8.847  30.226  57.120  1.00  0.00    -0.348 N 
HETATM    2  C   UNL     1       9.874  30.843  57.786  1.00  0.00     0.310 C 
HETATM    3  O   UNL     1      11.060  30.797  57.500  1.00  0.00    -0.262 OA
HETATM    4  H   UNL     1       7.929  30.293  57.555  1.00  0.00     0.163 HD
ENDROOT
BRANCH   2   5
HETATM    5  C   UNL     1       9.396  31.623  59.030  1.00  0.00     0.313 C 
HETATM    6  N   UNL     1       8.081  31.355  59.349  1.00  0.00    -0.319 N 
HETATM    7  H   UNL     1       7.627  30.681  58.736  1.00  0.00     0.169 HD
HETATM    8  O   UNL     1      10.185  32.384  59.573  1.00  0.00    -0.262 OA
BRANCH   6   9
HETATM    9  C   UNL     1       7.315  31.942  60.371  1.00  0.00     0.036 A 
HETATM   10  C   UNL     1       6.028  32.445  60.178  1.00  0.00     0.039 A 
HETATM   11  C   UNL     1       5.296  32.972  61.252  1.00  0.00    -0.028 A 
HETATM   12  C   UNL     1       5.860  33.019  62.531  1.00  0.00     0.050 A 
HETATM   13  C   UNL     1       3.940  33.574  61.024  1.00  0.00     0.050 C 
HETATM   14  N   UNL     1       5.098  33.540  63.611  1.00  0.00    -0.317 N 
HETATM   15  C   UNL     1       7.176  32.574  62.724  1.00  0.00    -0.028 A 
HETATM   16  C   UNL     1       3.728  33.772  63.513  1.00  0.00     0.224 C 
HETATM   17  C   UNL     1       5.718  33.677  64.925  1.00  0.00     0.132 C 
HETATM   18  O   UNL     1       3.051  34.205  64.448  1.00  0.00    -0.273 OA
HETATM   19  C   UNL     1       3.060  33.334  62.230  1.00  0.00     0.108 C 
HETATM   20  C   UNL     1       7.231  33.805  64.874  1.00  0.00     0.025 C 
HETATM   21  C   UNL     1       7.820  32.650  64.081  1.00  0.00     0.042 C 
HETATM   22  C   UNL     1       7.885  32.017  61.646  1.00  0.00     0.039 A 
ENDBRANCH   6   9
ENDBRANCH   2   5
BRANCH   1  23
HETATM   23  C   UNL     1       9.058  29.288  56.049  1.00  0.00     0.169 C 
BRANCH  23  24
HETATM   24  C   UNL     1       8.200  28.095  56.322  1.00  0.00     0.001 A 
HETATM   25  S   UNL     1       7.326  27.356  55.047  1.00  0.00    -0.095 SA
HETATM   26  C   UNL     1       6.769  26.089  56.060  1.00  0.00     0.017 A 
HETATM   27  C   UNL     1       7.201  26.266  57.360  1.00  0.00     0.018 A 
HETATM   28  C   UNL     1       8.018  27.423  57.513  1.00  0.00     0.017 A 
BRANCH  26  29
HETATM   29  C   UNL     1       5.956  24.968  55.468  1.00  0.00     0.198 C 
BRANCH  29  30
HETATM   30  C   UNL     1       6.768  23.992  54.662  1.00  0.00     0.016 A 
HETATM   31  S   UNL     1       7.610  22.724  55.463  1.00  0.00    -0.103 SA
HETATM   32  C   UNL     1       8.216  22.105  53.990  1.00  0.00     0.050 A 
HETATM   33  C   UNL     1       7.796  22.840  52.906  1.00  0.00     0.008 A 
HETATM   34  C   UNL     1       6.962  23.928  53.293  1.00  0.00     0.018 A 
ENDBRANCH  29  30
BRANCH  29  35
HETATM   35  O   UNL     1       5.016  25.577  54.581  1.00  0.00    -0.385 OA
HETATM   36  H   UNL     1       5.540  26.108  53.957  1.00  0.00     0.210 HD
ENDBRANCH  29  35
ENDBRANCH  26  29
ENDBRANCH  23  24
ENDBRANCH   1  23
TORSDOF 7
ENDMDL
MODEL 2
REMARK VINA RESULT:     -10.3      0.514      2.085
REMARK  7 active torsions:
REMARK  status: ('A' for Active; 'I' for Inactive)
REMARK    1  A    between atoms: C_4  and  C_5 
REMARK    2  A    between atoms: C_5  and  O_6 
REMARK    3  A    between atoms: C_5  and  C_7 
REMARK    4  A    between atoms: C_9  and  C_10 
REMARK    5  A    between atoms: C_10  and  N_11 
REMARK       I    between atoms: N_11  and  C_12 
REMARK    6  A    between atoms: C_12  and  C_13 
REMARK       I    between atoms: C_13  and  N_14 
REMARK    7  A    between atoms: N_14  and  C_15 
ROOT
HETATM    1  N   UNL     1       8.940  30.202  56.969  1.00  0.00    -0.348 N 
HETATM    2  C   UNL     1      10.002  30.791  57.604  1.00  0.00     0.310 C 
HETATM    3  O   UNL     1      11.176  30.731  57.270  1.00  0.00    -0.262 OA
HETATM    4  H   UNL     1       8.041  30.277  57.441  1.00  0.00     0.163 HD
ENDROOT
BRANCH   2   5
HETATM    5  C   UNL     1       9.586  31.559  58.877  1.00  0.00     0.313 C 
HETATM    6  N   UNL     1       8.286  31.294  59.253  1.00  0.00    -0.319 N 
HETATM    7  H   UNL     1       7.800  30.629  58.654  1.00  0.00     0.169 HD
HETATM    8  O   UNL     1      10.403  32.310  59.392  1.00  0.00    -0.262 OA
BRANCH   6   9
HETATM    9  C   UNL     1       7.571  31.872  60.316  1.00  0.00     0.036 A 
HETATM   10  C   UNL     1       8.075  31.986  61.612  1.00  0.00     0.039 A 
HETATM   11  C   UNL     1       7.330  32.620  62.617  1.00  0.00    -0.028 A 
HETATM   12  C   UNL     1       6.059  33.131  62.335  1.00  0.00     0.050 A 
HETATM   13  C   UNL     1       7.848  32.677  64.025  1.00  0.00     0.050 C 
HETATM   14  N   UNL     1       5.326  33.786  63.360  1.00  0.00    -0.317 N 
HETATM   15  C   UNL     1       5.518  32.966  61.051  1.00  0.00    -0.028 A 
HETATM   16  C   UNL     1       5.910  34.172  64.564  1.00  0.00     0.224 C 
HETATM   17  C   UNL     1       3.964  34.234  63.092  1.00  0.00     0.132 C 
HETATM   18  O   UNL     1       5.292  34.758  65.454  1.00  0.00    -0.273 OA
HETATM   19  C   UNL     1       7.402  33.960  64.688  1.00  0.00     0.108 C 
HETATM   20  C   UNL     1       3.274  33.457  61.982  1.00  0.00     0.025 C 
HETATM   21  C   UNL     1       4.137  33.470  60.731  1.00  0.00     0.042 C 
HETATM   22  C   UNL     1       6.288  32.359  60.045  1.00  0.00     0.039 A 
ENDBRANCH   6   9
ENDBRANCH   2   5
BRANCH   1  23
HETATM   23  C   UNL     1       9.093  29.278  55.876  1.00  0.00     0.169 C 
BRANCH  23  24
HETATM   24  C   UNL     1       8.262  28.076  56.184  1.00  0.00     0.001 A 
HETATM   25  S   UNL     1       7.333  27.334  54.950  1.00  0.00    -0.095 SA
HETATM   26  C   UNL     1       6.838  26.058  55.982  1.00  0.00     0.017 A 
HETATM   27  C   UNL     1       7.331  26.233  57.261  1.00  0.00     0.018 A 
HETATM   28  C   UNL     1       8.144  27.397  57.380  1.00  0.00     0.017 A 
BRANCH  26  29
HETATM   29  C   UNL     1       6.009  24.930  55.425  1.00  0.00     0.198 C 
BRANCH  29  30
HETATM   30  C   UNL     1       6.803  23.926  54.639  1.00  0.00     0.016 A 
HETATM   31  S   UNL     1       7.584  22.632  55.459  1.00  0.00    -0.103 SA
HETATM   32  C   UNL     1       8.199  21.988  54.001  1.00  0.00     0.050 A 
HETATM   33  C   UNL     1       7.827  22.735  52.907  1.00  0.00     0.008 A 
HETATM   34  C   UNL     1       7.023  23.852  53.274  1.00  0.00     0.018 A 
ENDBRANCH  29  30
BRANCH  29  35
HETATM   35  O   UNL     1       5.068  25.528  54.530  1.00  0.00    -0.385 OA
HETATM   36  H   UNL     1       5.314  26.466  54.470  1.00  0.00     0.210 HD
ENDBRANCH  29  35
ENDBRANCH  26  29
ENDBRANCH  23  24
ENDBRANCH   1  23
TORSDOF 7
ENDMDL
MODEL 3
REMARK VINA RESULT:      -9.8      3.830     11.581
REMARK  7 active torsions:
REMARK  status: ('A' for Active; 'I' for Inactive)
REMARK    1  A    between atoms: C_4  and  C_5 
REMARK    2  A    between atoms: C_5  and  O_6 
REMARK    3  A    between atoms: C_5  and  C_7 
REMARK    4  A    between atoms: C_9  and  C_10 
REMARK    5  A    between atoms: C_10  and  N_11 
REMARK       I    between atoms: N_11  and  C_12 
REMARK    6  A    between atoms: C_12  and  C_13 
REMARK       I    between atoms: C_13  and  N_14 
REMARK    7  A    between atoms: N_14  and  C_15 
ROOT
HETATM    1  N   UNL     1       6.840  31.108  59.109  1.00  0.00    -0.348 N 
HETATM    2  C   UNL     1       6.352  30.433  58.020  1.00  0.00     0.310 C 
HETATM    3  O   UNL     1       5.391  30.751  57.336  1.00  0.00    -0.262 OA
HETATM    4  H   UNL     1       7.590  30.647  59.619  1.00  0.00     0.163 HD
ENDROOT
BRANCH   2   5
HETATM    5  C   UNL     1       7.133  29.135  57.723  1.00  0.00     0.313 C 
HETATM    6  N   UNL     1       6.638  28.460  56.627  1.00  0.00    -0.319 N 
HETATM    7  H   UNL     1       5.850  28.916  56.170  1.00  0.00     0.169 HD
HETATM    8  O   UNL     1       8.057  28.833  58.466  1.00  0.00    -0.262 OA
BRANCH   6   9
HETATM    9  C   UNL     1       7.066  27.218  56.126  1.00  0.00     0.036 A 
HETATM   10  C   UNL     1       7.679  26.241  56.909  1.00  0.00     0.039 A 
HETATM   11  C   UNL     1       8.037  25.001  56.359  1.00  0.00    -0.028 A 
HETATM   12  C   UNL     1       7.799  24.737  55.006  1.00  0.00     0.050 A 
HETATM   13  C   UNL     1       8.759  23.981  57.190  1.00  0.00     0.050 C 
HETATM   14  N   UNL     1       8.150  23.470  54.470  1.00  0.00    -0.317 N 
HETATM   15  C   UNL     1       7.239  25.736  54.195  1.00  0.00    -0.028 A 
HETATM   16  C   UNL     1       8.486  22.386  55.276  1.00  0.00     0.224 C 
HETATM   17  C   UNL     1       7.989  23.228  53.040  1.00  0.00     0.132 C 
HETATM   18  O   UNL     1       8.774  21.276  54.825  1.00  0.00    -0.273 OA
HETATM   19  C   UNL     1       8.350  22.588  56.768  1.00  0.00     0.108 C 
HETATM   20  C   UNL     1       8.026  24.495  52.199  1.00  0.00     0.025 C 
HETATM   21  C   UNL     1       7.009  25.493  52.729  1.00  0.00     0.042 C 
HETATM   22  C   UNL     1       6.855  26.961  54.767  1.00  0.00     0.039 A 
ENDBRANCH   6   9
ENDBRANCH   2   5
BRANCH   1  23
HETATM   23  C   UNL     1       6.169  32.236  59.698  1.00  0.00     0.169 C 
BRANCH  23  24
HETATM   24  C   UNL     1       6.764  32.456  61.051  1.00  0.00     0.001 A 
HETATM   25  S   UNL     1       5.872  33.282  62.258  1.00  0.00    -0.095 SA
HETATM   26  C   UNL     1       7.079  33.010  63.446  1.00  0.00     0.017 A 
HETATM   27  C   UNL     1       8.166  32.349  62.908  1.00  0.00     0.018 A 
HETATM   28  C   UNL     1       7.989  32.036  61.529  1.00  0.00     0.017 A 
BRANCH  26  29
HETATM   29  C   UNL     1       6.836  33.450  64.866  1.00  0.00     0.198 C 
BRANCH  29  30
HETATM   30  C   UNL     1       5.565  34.230  65.049  1.00  0.00     0.016 A 
HETATM   31  S   UNL     1       5.454  35.829  64.428  1.00  0.00    -0.103 SA
HETATM   32  C   UNL     1       3.845  36.005  64.978  1.00  0.00     0.050 A 
HETATM   33  C   UNL     1       3.393  34.877  65.624  1.00  0.00     0.008 A 
HETATM   34  C   UNL     1       4.384  33.855  65.665  1.00  0.00     0.018 A 
ENDBRANCH  29  30
BRANCH  29  35
HETATM   35  O   UNL     1       7.922  34.314  65.210  1.00  0.00    -0.385 OA
HETATM   36  H   UNL     1       7.660  35.204  64.920  1.00  0.00     0.210 HD
ENDBRANCH  29  35
ENDBRANCH  26  29
ENDBRANCH  23  24
ENDBRANCH   1  23
TORSDOF 7
ENDMDL
MODEL 4
REMARK VINA RESULT:      -9.8      1.764      2.342
REMARK  7 active torsions:
REMARK  status: ('A' for Active; 'I' for Inactive)
REMARK    1  A    between atoms: C_4  and  C_5 
REMARK    2  A    between atoms: C_5  and  O_6 
REMARK    3  A    between atoms: C_5  and  C_7 
REMARK    4  A    between atoms: C_9  and  C_10 
REMARK    5  A    between atoms: C_10  and  N_11 
REMARK       I    between atoms: N_11  and  C_12 
REMARK    6  A    between atoms: C_12  and  C_13 
REMARK       I    between atoms: C_13  and  N_14 
REMARK    7  A    between atoms: N_14  and  C_15 
ROOT
HETATM    1  N   UNL     1       7.258  28.801  55.710  1.00  0.00    -0.348 N 
HETATM    2  C   UNL     1       8.240  29.387  56.464  1.00  0.00     0.310 C 
HETATM    3  O   UNL     1       9.372  29.667  56.097  1.00  0.00    -0.262 OA
HETATM    4  H   UNL     1       6.405  28.550  56.206  1.00  0.00     0.163 HD
ENDROOT
BRANCH   2   5
HETATM    5  C   UNL     1       7.799  29.653  57.919  1.00  0.00     0.313 C 
HETATM    6  N   UNL     1       7.261  30.911  58.086  1.00  0.00    -0.319 N 
HETATM    7  H   UNL     1       7.219  31.469  57.236  1.00  0.00     0.169 HD
HETATM    8  O   UNL     1       7.982  28.772  58.749  1.00  0.00    -0.262 OA
BRANCH   6   9
HETATM    9  C   UNL     1       6.826  31.500  59.286  1.00  0.00     0.036 A 
HETATM   10  C   UNL     1       5.619  32.188  59.415  1.00  0.00     0.039 A 
HETATM   11  C   UNL     1       5.219  32.709  60.654  1.00  0.00    -0.028 A 
HETATM   12  C   UNL     1       6.040  32.561  61.777  1.00  0.00     0.050 A 
HETATM   13  C   UNL     1       3.953  33.507  60.770  1.00  0.00     0.050 C 
HETATM   14  N   UNL     1       5.611  33.079  63.028  1.00  0.00    -0.317 N 
HETATM   15  C   UNL     1       7.284  31.926  61.645  1.00  0.00    -0.028 A 
HETATM   16  C   UNL     1       4.304  33.502  63.251  1.00  0.00     0.224 C 
HETATM   17  C   UNL     1       6.508  33.009  64.177  1.00  0.00     0.132 C 
HETATM   18  O   UNL     1       3.913  33.936  64.337  1.00  0.00    -0.273 OA
HETATM   19  C   UNL     1       3.321  33.279  62.124  1.00  0.00     0.108 C 
HETATM   20  C   UNL     1       7.979  32.936  63.799  1.00  0.00     0.025 C 
HETATM   21  C   UNL     1       8.204  31.789  62.827  1.00  0.00     0.042 C 
HETATM   22  C   UNL     1       7.657  31.379  60.405  1.00  0.00     0.039 A 
ENDBRANCH   6   9
ENDBRANCH   2   5
BRANCH   1  23
HETATM   23  C   UNL     1       7.488  28.282  54.387  1.00  0.00     0.169 C 
BRANCH  23  24
HETATM   24  C   UNL     1       7.051  26.853  54.383  1.00  0.00     0.001 A 
HETATM   25  S   UNL     1       7.780  25.736  53.308  1.00  0.00    -0.095 SA
HETATM   26  C   UNL     1       6.914  24.413  53.972  1.00  0.00     0.017 A 
HETATM   27  C   UNL     1       6.044  24.834  54.959  1.00  0.00     0.018 A 
HETATM   28  C   UNL     1       6.118  26.238  55.191  1.00  0.00     0.017 A 
BRANCH  26  29
HETATM   29  C   UNL     1       7.196  23.018  53.479  1.00  0.00     0.198 C 
BRANCH  29  30
HETATM   30  C   UNL     1       7.705  22.090  54.547  1.00  0.00     0.016 A 
HETATM   31  S   UNL     1       8.532  22.737  55.908  1.00  0.00    -0.103 SA
HETATM   32  C   UNL     1       8.748  21.188  56.598  1.00  0.00     0.050 A 
HETATM   33  C   UNL     1       8.209  20.193  55.816  1.00  0.00     0.008 A 
HETATM   34  C   UNL     1       7.607  20.713  54.634  1.00  0.00     0.018 A 
ENDBRANCH  29  30
BRANCH  29  35
HETATM   35  O   UNL     1       8.223  23.140  52.492  1.00  0.00    -0.385 OA
HETATM   36  H   UNL     1       9.003  23.487  52.958  1.00  0.00     0.210 HD
ENDBRANCH  29  35
ENDBRANCH  26  29
ENDBRANCH  23  24
ENDBRANCH   1  23
TORSDOF 7
ENDMDL
MODEL 5
REMARK VINA RESULT:      -9.7      3.307     10.421
REMARK  7 active torsions:
REMARK  status: ('A' for Active; 'I' for Inactive)
REMARK    1  A    between atoms: C_4  and  C_5 
REMARK    2  A    between atoms: C_5  and  O_6 
REMARK    3  A    between atoms: C_5  and  C_7 
REMARK    4  A    between atoms: C_9  and  C_10 
REMARK    5  A    between atoms: C_10  and  N_11 
REMARK       I    between atoms: N_11  and  C_12 
REMARK    6  A    between atoms: C_12  and  C_13 
REMARK       I    between atoms: C_13  and  N_14 
REMARK    7  A    between atoms: N_14  and  C_15 
ROOT
HETATM    1  N   UNL     1       9.284  30.793  60.166  1.00  0.00    -0.348 N 
HETATM    2  C   UNL     1       9.661  31.251  58.931  1.00  0.00     0.310 C 
HETATM    3  O   UNL     1      10.183  32.327  58.681  1.00  0.00    -0.262 OA
HETATM    4  H   UNL     1       8.774  29.912  60.178  1.00  0.00     0.163 HD
ENDROOT
BRANCH   2   5
HETATM    5  C   UNL     1       9.325  30.259  57.797  1.00  0.00     0.313 C 
HETATM    6  N   UNL     1       8.146  29.580  58.022  1.00  0.00    -0.319 N 
HETATM    7  H   UNL     1       7.668  29.837  58.883  1.00  0.00     0.169 HD
HETATM    8  O   UNL     1      10.111  30.159  56.865  1.00  0.00    -0.262 OA
BRANCH   6   9
HETATM    9  C   UNL     1       7.585  28.562  57.232  1.00  0.00     0.036 A 
HETATM   10  C   UNL     1       6.471  28.748  56.413  1.00  0.00     0.039 A 
HETATM   11  C   UNL     1       5.990  27.704  55.608  1.00  0.00    -0.028 A 
HETATM   12  C   UNL     1       6.613  26.452  55.635  1.00  0.00     0.050 A 
HETATM   13  C   UNL     1       4.751  27.890  54.783  1.00  0.00     0.050 C 
HETATM   14  N   UNL     1       6.124  25.411  54.801  1.00  0.00    -0.317 N 
HETATM   15  C   UNL     1       7.695  26.236  56.502  1.00  0.00    -0.028 A 
HETATM   16  C   UNL     1       5.216  25.645  53.771  1.00  0.00     0.224 C 
HETATM   17  C   UNL     1       6.713  24.079  54.898  1.00  0.00     0.132 C 
HETATM   18  O   UNL     1       4.799  24.755  53.028  1.00  0.00    -0.273 OA
HETATM   19  C   UNL     1       4.857  27.089  53.505  1.00  0.00     0.108 C 
HETATM   20  C   UNL     1       7.357  23.794  56.245  1.00  0.00     0.025 C 
HETATM   21  C   UNL     1       8.358  24.888  56.579  1.00  0.00     0.042 C 
HETATM   22  C   UNL     1       8.187  27.300  57.276  1.00  0.00     0.039 A 
ENDBRANCH   6   9
ENDBRANCH   2   5
BRANCH   1  23
HETATM   23  C   UNL     1       9.315  31.611  61.350  1.00  0.00     0.169 C 
BRANCH  23  24
HETATM   24  C   UNL     1       7.901  31.931  61.712  1.00  0.00     0.001 A 
HETATM   25  S   UNL     1       7.501  32.353  63.324  1.00  0.00    -0.095 SA
HETATM   26  C   UNL     1       5.870  32.687  62.914  1.00  0.00     0.017 A 
HETATM   27  C   UNL     1       5.629  32.424  61.579  1.00  0.00     0.018 A 
HETATM   28  C   UNL     1       6.795  31.982  60.889  1.00  0.00     0.017 A 
BRANCH  26  29
HETATM   29  C   UNL     1       4.938  33.234  63.963  1.00  0.00     0.198 C 
BRANCH  29  30
HETATM   30  C   UNL     1       4.653  34.703  63.813  1.00  0.00     0.016 A 
HETATM   31  S   UNL     1       3.287  35.213  62.902  1.00  0.00    -0.103 SA
HETATM   32  C   UNL     1       3.622  36.863  63.197  1.00  0.00     0.050 A 
HETATM   33  C   UNL     1       4.749  37.033  63.969  1.00  0.00     0.008 A 
HETATM   34  C   UNL     1       5.343  35.788  64.323  1.00  0.00     0.018 A 
ENDBRANCH  29  30
BRANCH  29  35
HETATM   35  O   UNL     1       5.594  33.051  65.220  1.00  0.00    -0.385 OA
HETATM   36  H   UNL     1       6.132  32.247  65.126  1.00  0.00     0.210 HD
ENDBRANCH  29  35
ENDBRANCH  26  29
ENDBRANCH  23  24
ENDBRANCH   1  23
TORSDOF 7
ENDMDL
MODEL 6
REMARK VINA RESULT:      -9.7      2.098      3.344
REMARK  7 active torsions:
REMARK  status: ('A' for Active; 'I' for Inactive)
REMARK    1  A    between atoms: C_4  and  C_5 
REMARK    2  A    between atoms: C_5  and  O_6 
REMARK    3  A    between atoms: C_5  and  C_7 
REMARK    4  A    between atoms: C_9  and  C_10 
REMARK    5  A    between atoms: C_10  and  N_11 
REMARK       I    between atoms: N_11  and  C_12 
REMARK    6  A    between atoms: C_12  and  C_13 
REMARK       I    between atoms: C_13  and  N_14 
REMARK    7  A    between atoms: N_14  and  C_15 
ROOT
HETATM    1  N   UNL     1       6.856  28.900  55.113  1.00  0.00    -0.348 N 
HETATM    2  C   UNL     1       7.671  29.321  56.131  1.00  0.00     0.310 C 
HETATM    3  O   UNL     1       8.892  29.320  56.137  1.00  0.00    -0.262 OA
HETATM    4  H   UNL     1       5.860  28.881  55.318  1.00  0.00     0.163 HD
ENDROOT
BRANCH   2   5
HETATM    5  C   UNL     1       6.881  29.795  57.371  1.00  0.00     0.313 C 
HETATM    6  N   UNL     1       7.518  30.815  58.045  1.00  0.00    -0.319 N 
HETATM    7  H   UNL     1       8.397  31.114  57.627  1.00  0.00     0.169 HD
HETATM    8  O   UNL     1       5.828  29.231  57.635  1.00  0.00    -0.262 OA
BRANCH   6   9
HETATM    9  C   UNL     1       7.114  31.427  59.244  1.00  0.00     0.036 A 
HETATM   10  C   UNL     1       7.767  31.240  60.463  1.00  0.00     0.039 A 
HETATM   11  C   UNL     1       7.344  31.921  61.614  1.00  0.00    -0.028 A 
HETATM   12  C   UNL     1       6.244  32.784  61.557  1.00  0.00     0.050 A 
HETATM   13  C   UNL     1       8.006  31.662  62.936  1.00  0.00     0.050 C 
HETATM   14  N   UNL     1       5.841  33.479  62.728  1.00  0.00    -0.317 N 
HETATM   15  C   UNL     1       5.543  32.931  60.351  1.00  0.00    -0.028 A 
HETATM   16  C   UNL     1       6.637  33.542  63.869  1.00  0.00     0.224 C 
HETATM   17  C   UNL     1       4.639  34.305  62.692  1.00  0.00     0.132 C 
HETATM   18  O   UNL     1       6.308  34.158  64.885  1.00  0.00    -0.273 OA
HETATM   19  C   UNL     1       8.013  32.926  63.766  1.00  0.00     0.108 C 
HETATM   20  C   UNL     1       3.642  33.885  61.623  1.00  0.00     0.025 C 
HETATM   21  C   UNL     1       4.334  33.821  60.271  1.00  0.00     0.042 C 
HETATM   22  C   UNL     1       5.998  32.269  59.198  1.00  0.00     0.039 A 
ENDBRANCH   6   9
ENDBRANCH   2   5
BRANCH   1  23
HETATM   23  C   UNL     1       7.352  28.237  53.935  1.00  0.00     0.169 C 
BRANCH  23  24
HETATM   24  C   UNL     1       6.916  26.810  54.007  1.00  0.00     0.001 A 
HETATM   25  S   UNL     1       7.756  25.610  53.117  1.00  0.00    -0.095 SA
HETATM   26  C   UNL     1       6.820  24.343  53.795  1.00  0.00     0.017 A 
HETATM   27  C   UNL     1       5.848  24.840  54.642  1.00  0.00     0.018 A 
HETATM   28  C   UNL     1       5.899  26.259  54.758  1.00  0.00     0.017 A 
BRANCH  26  29
HETATM   29  C   UNL     1       7.151  22.913  53.458  1.00  0.00     0.198 C 
BRANCH  29  30
HETATM   30  C   UNL     1       7.716  22.134  54.613  1.00  0.00     0.016 A 
HETATM   31  S   UNL     1       8.272  20.526  54.361  1.00  0.00    -0.103 SA
HETATM   32  C   UNL     1       8.734  20.357  55.998  1.00  0.00     0.050 A 
HETATM   33  C   UNL     1       8.473  21.493  56.730  1.00  0.00     0.008 A 
HETATM   34  C   UNL     1       7.887  22.516  55.932  1.00  0.00     0.018 A 
ENDBRANCH  29  30
BRANCH  29  35
HETATM   35  O   UNL     1       8.156  22.961  52.441  1.00  0.00    -0.385 OA
HETATM   36  H   UNL     1       8.276  22.045  52.139  1.00  0.00     0.210 HD
ENDBRANCH  29  35
ENDBRANCH  26  29
ENDBRANCH  23  24
ENDBRANCH   1  23
TORSDOF 7
ENDMDL
MODEL 7
REMARK VINA RESULT:      -9.5      3.795     11.160
REMARK  7 active torsions:
REMARK  status: ('A' for Active; 'I' for Inactive)
REMARK    1  A    between atoms: C_4  and  C_5 
REMARK    2  A    between atoms: C_5  and  O_6 
REMARK    3  A    between atoms: C_5  and  C_7 
REMARK    4  A    between atoms: C_9  and  C_10 
REMARK    5  A    between atoms: C_10  and  N_11 
REMARK       I    between atoms: N_11  and  C_12 
REMARK    6  A    between atoms: C_12  and  C_13 
REMARK       I    between atoms: C_13  and  N_14 
REMARK    7  A    between atoms: N_14  and  C_15 
ROOT
HETATM    1  N   UNL     1       5.348  31.119  57.018  1.00  0.00    -0.348 N 
HETATM    2  C   UNL     1       4.867  30.109  56.227  1.00  0.00     0.310 C 
HETATM    3  O   UNL     1       3.720  29.980  55.826  1.00  0.00    -0.262 OA
HETATM    4  H   UNL     1       6.309  31.016  57.338  1.00  0.00     0.163 HD
ENDROOT
BRANCH   2   5
HETATM    5  C   UNL     1       5.940  29.053  55.886  1.00  0.00     0.313 C 
HETATM    6  N   UNL     1       5.435  27.770  55.873  1.00  0.00    -0.319 N 
HETATM    7  H   UNL     1       4.438  27.707  56.072  1.00  0.00     0.169 HD
HETATM    8  O   UNL     1       7.087  29.436  55.694  1.00  0.00    -0.262 OA
BRANCH   6   9
HETATM    9  C   UNL     1       6.147  26.575  55.671  1.00  0.00     0.036 A 
HETATM   10  C   UNL     1       6.947  25.981  56.646  1.00  0.00     0.039 A 
HETATM   11  C   UNL     1       7.592  24.759  56.397  1.00  0.00    -0.028 A 
HETATM   12  C   UNL     1       7.454  24.131  55.155  1.00  0.00     0.050 A 
HETATM   13  C   UNL     1       8.507  24.160  57.425  1.00  0.00     0.050 C 
HETATM   14  N   UNL     1       8.098  22.886  54.927  1.00  0.00    -0.317 N 
HETATM   15  C   UNL     1       6.701  24.752  54.147  1.00  0.00    -0.028 A 
HETATM   16  C   UNL     1       8.653  22.134  55.959  1.00  0.00     0.224 C 
HETATM   17  C   UNL     1       8.032  22.278  53.602  1.00  0.00     0.132 C 
HETATM   18  O   UNL     1       9.197  21.043  55.778  1.00  0.00    -0.273 OA
HETATM   19  C   UNL     1       8.436  22.652  57.363  1.00  0.00     0.108 C 
HETATM   20  C   UNL     1       7.800  23.280  52.483  1.00  0.00     0.025 C 
HETATM   21  C   UNL     1       6.569  24.118  52.789  1.00  0.00     0.042 C 
HETATM   22  C   UNL     1       6.034  25.958  54.421  1.00  0.00     0.039 A 
ENDBRANCH   6   9
ENDBRANCH   2   5
BRANCH   1  23
HETATM   23  C   UNL     1       4.501  32.113  57.624  1.00  0.00     0.169 C 
BRANCH  23  24
HETATM   24  C   UNL     1       4.939  32.268  59.045  1.00  0.00     0.001 A 
HETATM   25  S   UNL     1       3.799  32.120  60.315  1.00  0.00    -0.095 SA
HETATM   26  C   UNL     1       5.008  32.265  61.522  1.00  0.00     0.017 A 
HETATM   27  C   UNL     1       6.251  32.480  60.957  1.00  0.00     0.018 A 
HETATM   28  C   UNL     1       6.210  32.488  59.533  1.00  0.00     0.017 A 
BRANCH  26  29
HETATM   29  C   UNL     1       4.632  32.114  62.973  1.00  0.00     0.198 C 
BRANCH  29  30
HETATM   30  C   UNL     1       5.554  32.837  63.915  1.00  0.00     0.016 A 
HETATM   31  S   UNL     1       4.902  33.649  65.283  1.00  0.00    -0.103 SA
HETATM   32  C   UNL     1       6.449  34.154  65.806  1.00  0.00     0.050 A 
HETATM   33  C   UNL     1       7.447  33.722  64.963  1.00  0.00     0.008 A 
HETATM   34  C   UNL     1       6.931  32.963  63.874  1.00  0.00     0.018 A 
ENDBRANCH  29  30
BRANCH  29  35
HETATM   35  O   UNL     1       4.725  30.719  63.269  1.00  0.00    -0.385 OA
HETATM   36  H   UNL     1       4.987  30.660  64.203  1.00  0.00     0.210 HD
ENDBRANCH  29  35
ENDBRANCH  26  29
ENDBRANCH  23  24
ENDBRANCH   1  23
TORSDOF 7
ENDMDL
MODEL 8
REMARK VINA RESULT:      -9.4      4.022     11.457
REMARK  7 active torsions:
REMARK  status: ('A' for Active; 'I' for Inactive)
REMARK    1  A    between atoms: C_4  and  C_5 
REMARK    2  A    between atoms: C_5  and  O_6 
REMARK    3  A    between atoms: C_5  and  C_7 
REMARK    4  A    between atoms: C_9  and  C_10 
REMARK    5  A    between atoms: C_10  and  N_11 
REMARK       I    between atoms: N_11  and  C_12 
REMARK    6  A    between atoms: C_12  and  C_13 
REMARK       I    between atoms: C_13  and  N_14 
REMARK    7  A    between atoms: N_14  and  C_15 
ROOT
HETATM    1  N   UNL     1       4.699  31.331  58.923  1.00  0.00    -0.348 N 
HETATM    2  C   UNL     1       4.177  30.581  57.901  1.00  0.00     0.310 C 
HETATM    3  O   UNL     1       3.013  30.565  57.529  1.00  0.00    -0.262 OA
HETATM    4  H   UNL     1       5.671  31.146  59.159  1.00  0.00     0.163 HD
ENDROOT
BRANCH   2   5
HETATM    5  C   UNL     1       5.227  29.669  57.232  1.00  0.00     0.313 C 
HETATM    6  N   UNL     1       4.737  28.409  56.962  1.00  0.00    -0.319 N 
HETATM    7  H   UNL     1       3.764  28.268  57.225  1.00  0.00     0.169 HD
HETATM    8  O   UNL     1       6.347  30.123  57.037  1.00  0.00    -0.262 OA
BRANCH   6   9
HETATM    9  C   UNL     1       5.442  27.317  56.425  1.00  0.00     0.036 A 
HETATM   10  C   UNL     1       5.136  26.732  55.197  1.00  0.00     0.039 A 
HETATM   11  C   UNL     1       5.911  25.676  54.693  1.00  0.00    -0.028 A 
HETATM   12  C   UNL     1       6.992  25.184  55.430  1.00  0.00     0.050 A 
HETATM   13  C   UNL     1       5.534  25.005  53.404  1.00  0.00     0.050 C 
HETATM   14  N   UNL     1       7.777  24.127  54.896  1.00  0.00    -0.317 N 
HETATM   15  C   UNL     1       7.271  25.724  56.694  1.00  0.00    -0.028 A 
HETATM   16  C   UNL     1       7.682  23.726  53.566  1.00  0.00     0.224 C 
HETATM   17  C   UNL     1       8.846  23.550  55.705  1.00  0.00     0.132 C 
HETATM   18  O   UNL     1       8.371  22.824  53.085  1.00  0.00    -0.273 OA
HETATM   19  C   UNL     1       6.778  24.548  52.677  1.00  0.00     0.108 C 
HETATM   20  C   UNL     1       8.638  23.720  57.201  1.00  0.00     0.025 C 
HETATM   21  C   UNL     1       8.403  25.187  57.525  1.00  0.00     0.042 C 
HETATM   22  C   UNL     1       6.507  26.803  57.171  1.00  0.00     0.039 A 
ENDBRANCH   6   9
ENDBRANCH   2   5
BRANCH   1  23
HETATM   23  C   UNL     1       3.886  32.110  59.819  1.00  0.00     0.169 C 
BRANCH  23  24
HETATM   24  C   UNL     1       4.809  32.878  60.709  1.00  0.00     0.001 A 
HETATM   25  S   UNL     1       4.249  34.278  61.523  1.00  0.00    -0.095 SA
HETATM   26  C   UNL     1       5.726  34.468  62.374  1.00  0.00     0.017 A 
HETATM   27  C   UNL     1       6.645  33.508  61.996  1.00  0.00     0.018 A 
HETATM   28  C   UNL     1       6.120  32.598  61.033  1.00  0.00     0.017 A 
BRANCH  26  29
HETATM   29  C   UNL     1       5.854  35.557  63.406  1.00  0.00     0.198 C 
BRANCH  29  30
HETATM   30  C   UNL     1       5.075  35.293  64.665  1.00  0.00     0.016 A 
HETATM   31  S   UNL     1       5.373  33.856  65.560  1.00  0.00    -0.103 SA
HETATM   32  C   UNL     1       4.212  34.272  66.743  1.00  0.00     0.050 A 
HETATM   33  C   UNL     1       3.603  35.475  66.472  1.00  0.00     0.008 A 
HETATM   34  C   UNL     1       4.101  36.064  65.274  1.00  0.00     0.018 A 
ENDBRANCH  29  30
BRANCH  29  35
HETATM   35  O   UNL     1       5.317  36.741  62.810  1.00  0.00    -0.385 OA
HETATM   36  H   UNL     1       6.082  37.267  62.522  1.00  0.00     0.210 HD
ENDBRANCH  29  35
ENDBRANCH  26  29
ENDBRANCH  23  24
ENDBRANCH   1  23
TORSDOF 7
ENDMDL
MODEL 9
REMARK VINA RESULT:      -9.4      2.743      3.831
REMARK  7 active torsions:
REMARK  status: ('A' for Active; 'I' for Inactive)
REMARK    1  A    between atoms: C_4  and  C_5 
REMARK    2  A    between atoms: C_5  and  O_6 
REMARK    3  A    between atoms: C_5  and  C_7 
REMARK    4  A    between atoms: C_9  and  C_10 
REMARK    5  A    between atoms: C_10  and  N_11 
REMARK       I    between atoms: N_11  and  C_12 
REMARK    6  A    between atoms: C_12  and  C_13 
REMARK       I    between atoms: C_13  and  N_14 
REMARK    7  A    between atoms: N_14  and  C_15 
ROOT
HETATM    1  N   UNL     1       4.631  28.700  54.734  1.00  0.00    -0.348 N 
HETATM    2  C   UNL     1       4.434  30.040  54.944  1.00  0.00     0.310 C 
HETATM    3  O   UNL     1       4.269  30.896  54.088  1.00  0.00    -0.262 OA
HETATM    4  H   UNL     1       4.849  28.147  55.559  1.00  0.00     0.163 HD
ENDROOT
BRANCH   2   5
HETATM    5  C   UNL     1       4.475  30.423  56.439  1.00  0.00     0.313 C 
HETATM    6  N   UNL     1       5.630  31.094  56.781  1.00  0.00    -0.319 N 
HETATM    7  H   UNL     1       6.273  31.251  56.007  1.00  0.00     0.169 HD
HETATM    8  O   UNL     1       3.535  30.089  57.147  1.00  0.00    -0.262 OA
BRANCH   6   9
HETATM    9  C   UNL     1       6.019  31.522  58.062  1.00  0.00     0.036 A 
HETATM   10  C   UNL     1       5.302  32.452  58.814  1.00  0.00     0.039 A 
HETATM   11  C   UNL     1       5.717  32.800  60.109  1.00  0.00    -0.028 A 
HETATM   12  C   UNL     1       6.872  32.230  60.654  1.00  0.00     0.050 A 
HETATM   13  C   UNL     1       4.981  33.852  60.885  1.00  0.00     0.050 C 
HETATM   14  N   UNL     1       7.268  32.579  61.973  1.00  0.00    -0.317 N 
HETATM   15  C   UNL     1       7.635  31.341  59.882  1.00  0.00    -0.028 A 
HETATM   16  C   UNL     1       6.428  33.266  62.846  1.00  0.00     0.224 C 
HETATM   17  C   UNL     1       8.522  32.058  62.506  1.00  0.00     0.132 C 
HETATM   18  O   UNL     1       6.751  33.558  63.999  1.00  0.00    -0.273 OA
HETATM   19  C   UNL     1       5.020  33.526  62.361  1.00  0.00     0.108 C 
HETATM   20  C   UNL     1       9.536  31.693  61.433  1.00  0.00     0.025 C 
HETATM   21  C   UNL     1       8.902  30.744  60.429  1.00  0.00     0.042 C 
HETATM   22  C   UNL     1       7.189  30.975  58.600  1.00  0.00     0.039 A 
ENDBRANCH   6   9
ENDBRANCH   2   5
BRANCH   1  23
HETATM   23  C   UNL     1       4.827  28.132  53.426  1.00  0.00     0.169 C 
BRANCH  23  24
HETATM   24  C   UNL     1       5.462  26.792  53.610  1.00  0.00     0.001 A 
HETATM   25  S   UNL     1       6.974  26.660  54.407  1.00  0.00    -0.095 SA
HETATM   26  C   UNL     1       6.942  24.947  54.350  1.00  0.00     0.017 A 
HETATM   27  C   UNL     1       5.821  24.492  53.682  1.00  0.00     0.018 A 
HETATM   28  C   UNL     1       4.974  25.553  53.251  1.00  0.00     0.017 A 
BRANCH  26  29
HETATM   29  C   UNL     1       8.038  24.161  55.020  1.00  0.00     0.198 C 
BRANCH  29  30
HETATM   30  C   UNL     1       8.157  22.746  54.526  1.00  0.00     0.016 A 
HETATM   31  S   UNL     1       8.016  21.444  55.640  1.00  0.00    -0.103 SA
HETATM   32  C   UNL     1       8.229  20.278  54.409  1.00  0.00     0.050 A 
HETATM   33  C   UNL     1       8.407  20.856  53.173  1.00  0.00     0.008 A 
HETATM   34  C   UNL     1       8.366  22.278  53.241  1.00  0.00     0.018 A 
ENDBRANCH  29  30
BRANCH  29  35
HETATM   35  O   UNL     1       7.701  24.103  56.408  1.00  0.00    -0.385 OA
HETATM   36  H   UNL     1       8.134  23.306  56.757  1.00  0.00     0.210 HD
ENDBRANCH  29  35
ENDBRANCH  26  29
ENDBRANCH  23  24
ENDBRANCH   1  23
TORSDOF 7
ENDMDL
MODEL 10
REMARK VINA RESULT:      -9.3      2.519      3.716
REMARK  7 active torsions:
REMARK  status: ('A' for Active; 'I' for Inactive)
REMARK    1  A    between atoms: C_4  and  C_5 
REMARK    2  A    between atoms: C_5  and  O_6 
REMARK    3  A    between atoms: C_5  and  C_7 
REMARK    4  A    between atoms: C_9  and  C_10 
REMARK    5  A    between atoms: C_10  and  N_11 
REMARK       I    between atoms: N_11  and  C_12 
REMARK    6  A    between atoms: C_12  and  C_13 
REMARK       I    between atoms: C_13  and  N_14 
REMARK    7  A    between atoms: N_14  and  C_15 
ROOT
HETATM    1  N   UNL     1       8.188  29.405  57.785  1.00  0.00    -0.348 N 
HETATM    2  C   UNL     1       9.112  30.411  57.894  1.00  0.00     0.310 C 
HETATM    3  O   UNL     1      10.125  30.547  57.225  1.00  0.00    -0.262 OA
HETATM    4  H   UNL     1       7.454  29.395  58.490  1.00  0.00     0.163 HD
ENDROOT
BRANCH   2   5
HETATM    5  C   UNL     1       8.778  31.409  59.024  1.00  0.00     0.313 C 
HETATM    6  N   UNL     1       7.658  31.042  59.738  1.00  0.00    -0.319 N 
HETATM    7  H   UNL     1       7.227  30.172  59.432  1.00  0.00     0.169 HD
HETATM    8  O   UNL     1       9.493  32.393  59.155  1.00  0.00    -0.262 OA
BRANCH   6   9
HETATM    9  C   UNL     1       7.040  31.755  60.781  1.00  0.00     0.036 A 
HETATM   10  C   UNL     1       7.603  31.911  62.047  1.00  0.00     0.039 A 
HETATM   11  C   UNL     1       6.958  32.678  63.029  1.00  0.00    -0.028 A 
HETATM   12  C   UNL     1       5.727  33.282  62.753  1.00  0.00     0.050 A 
HETATM   13  C   UNL     1       7.535  32.784  64.410  1.00  0.00     0.050 C 
HETATM   14  N   UNL     1       5.097  34.071  63.752  1.00  0.00    -0.317 N 
HETATM   15  C   UNL     1       5.123  33.081  61.503  1.00  0.00    -0.028 A 
HETATM   16  C   UNL     1       5.761  34.483  64.905  1.00  0.00     0.224 C 
HETATM   17  C   UNL     1       3.771  34.623  63.498  1.00  0.00     0.132 C 
HETATM   18  O   UNL     1       5.233  35.184  65.771  1.00  0.00    -0.273 OA
HETATM   19  C   UNL     1       7.232  34.145  64.994  1.00  0.00     0.108 C 
HETATM   20  C   UNL     1       2.971  33.838  62.471  1.00  0.00     0.025 C 
HETATM   21  C   UNL     1       3.781  33.686  61.194  1.00  0.00     0.042 C 
HETATM   22  C   UNL     1       5.796  32.338  60.518  1.00  0.00     0.039 A 
ENDBRANCH   6   9
ENDBRANCH   2   5
BRANCH   1  23
HETATM   23  C   UNL     1       8.377  28.255  56.940  1.00  0.00     0.169 C 
BRANCH  23  24
HETATM   24  C   UNL     1       7.125  28.072  56.145  1.00  0.00     0.001 A 
HETATM   25  S   UNL     1       7.214  27.675  54.481  1.00  0.00    -0.095 SA
HETATM   26  C   UNL     1       5.513  27.508  54.349  1.00  0.00     0.017 A 
HETATM   27  C   UNL     1       4.890  27.807  55.545  1.00  0.00     0.018 A 
HETATM   28  C   UNL     1       5.816  28.138  56.576  1.00  0.00     0.017 A 
BRANCH  26  29
HETATM   29  C   UNL     1       4.910  27.045  53.048  1.00  0.00     0.198 C 
BRANCH  29  30
HETATM   30  C   UNL     1       5.018  28.053  51.938  1.00  0.00     0.016 A 
HETATM   31  S   UNL     1       4.558  29.684  52.226  1.00  0.00    -0.103 SA
HETATM   32  C   UNL     1       4.956  30.149  50.631  1.00  0.00     0.050 A 
HETATM   33  C   UNL     1       5.428  29.093  49.885  1.00  0.00     0.008 A 
HETATM   34  C   UNL     1       5.463  27.885  50.639  1.00  0.00     0.018 A 
ENDBRANCH  29  30
BRANCH  29  35
HETATM   35  O   UNL     1       3.519  26.834  53.302  1.00  0.00    -0.385 OA
HETATM   36  H   UNL     1       3.383  25.873  53.267  1.00  0.00     0.210 HD
ENDBRANCH  29  35
ENDBRANCH  26  29
ENDBRANCH  23  24
ENDBRANCH   1  23
TORSDOF 7
ENDMDL
