MODEL 1
REMARK VINA RESULT:      -8.6      0.000      0.000
REMARK  6 active torsions:
REMARK  status: ('A' for Active; 'I' for Inactive)
REMARK    1  A    between atoms: C_2  and  N_3 
REMARK    2  A    between atoms: C_2  and  C_11 
REMARK       I    between atoms: N_3  and  C_4 
REMARK    3  A    between atoms: C_4  and  C_5 
REMARK    4  A    between atoms: C_14  and  O_15 
REMARK    5  A    between atoms: O_15  and  C_16 
REMARK    6  A    between atoms: C_16  and  C_17 
ROOT
HETATM    1  C   UNL     1       6.991  27.659  57.238  1.00  0.00    -0.036 A 
HETATM    2  C   UNL     1       5.855  26.865  57.023  1.00  0.00     0.012 A 
HETATM    3  C   UNL     1       5.965  25.477  56.879  1.00  0.00     0.037 A 
HETATM    4  C   UNL     1       7.216  24.866  56.928  1.00  0.00     0.069 A 
HETATM    5  C   UNL     1       8.348  25.643  57.173  1.00  0.00     0.037 A 
HETATM    6  C   UNL     1       8.240  27.028  57.323  1.00  0.00     0.012 A 
ENDROOT
BRANCH   1   7
HETATM    7  C   UNL     1       6.855  29.170  57.320  1.00  0.00     0.113 C 
HETATM    8  C   UNL     1       5.416  29.632  57.081  1.00  0.00     0.037 C 
BRANCH   7   9
HETATM    9  N   UNL     1       7.350  29.629  58.610  1.00  0.00    -0.352 N 
HETATM   10  C   UNL     1       8.566  30.245  58.750  1.00  0.00     0.225 C 
HETATM   11  O   UNL     1       9.302  30.503  57.806  1.00  0.00    -0.273 OA
HETATM   12  H   UNL     1       6.861  29.308  59.436  1.00  0.00     0.163 HD
BRANCH  10  13
HETATM   13  C   UNL     1       8.990  30.645  60.114  1.00  0.00     0.119 A 
HETATM   14  C   UNL     1       8.210  31.549  61.027  1.00  0.00     0.126 A 
HETATM   15 CL   UNL     1       6.740  32.366  60.521  1.00  0.00    -0.101 Cl
HETATM   16 CL   UNL     1       8.223  31.179  62.753  1.00  0.00    -0.101 Cl
HETATM   17  C   UNL     1       9.504  32.030  60.422  1.00  0.00     0.060 A 
ENDBRANCH  10  13
ENDBRANCH   7   9
ENDBRANCH   1   7
BRANCH   4  18
HETATM   18  O   UNL     1       7.461  23.531  56.762  1.00  0.00    -0.347 OA
BRANCH  18  19
HETATM   19  C   UNL     1       8.751  23.178  56.266  1.00  0.00     0.215 C 
BRANCH  19  20
HETATM   20  C   UNL     1       8.573  22.224  55.119  1.00  0.00    -0.017 A 
HETATM   21  C   UNL     1       8.903  20.878  55.247  1.00  0.00     0.125 A 
HETATM   22  N   UNL     1       8.776  19.965  54.258  1.00  0.00    -0.272 NA
HETATM   23  C   UNL     1       8.284  20.410  53.083  1.00  0.00     0.116 A 
HETATM   24  C   UNL     1       7.919  21.726  52.850  1.00  0.00     0.020 A 
HETATM   25  C   UNL     1       8.069  22.645  53.885  1.00  0.00     0.012 A 
ENDBRANCH  19  20
ENDBRANCH  18  19
ENDBRANCH   4  18
TORSDOF 6
ENDMDL
MODEL 2
REMARK VINA RESULT:      -8.4      4.170     10.070
REMARK  6 active torsions:
REMARK  status: ('A' for Active; 'I' for Inactive)
REMARK    1  A    between atoms: C_2  and  N_3 
REMARK    2  A    between atoms: C_2  and  C_11 
REMARK       I    between atoms: N_3  and  C_4 
REMARK    3  A    between atoms: C_4  and  C_5 
REMARK    4  A    between atoms: C_14  and  O_15 
REMARK    5  A    between atoms: O_15  and  C_16 
REMARK    6  A    between atoms: C_16  and  C_17 
ROOT
HETATM    1  C   UNL     1       8.714  30.329  58.063  1.00  0.00    -0.036 A 
HETATM    2  C   UNL     1       9.790  30.947  58.719  1.00  0.00     0.012 A 
HETATM    3  C   UNL     1       9.579  31.766  59.833  1.00  0.00     0.037 A 
HETATM    4  C   UNL     1       8.285  31.997  60.296  1.00  0.00     0.069 A 
HETATM    5  C   UNL     1       7.212  31.362  59.670  1.00  0.00     0.037 A 
HETATM    6  C   UNL     1       7.421  30.539  58.561  1.00  0.00     0.012 A 
ENDROOT
BRANCH   1   7
HETATM    7  C   UNL     1       8.962  29.502  56.813  1.00  0.00     0.113 C 
HETATM    8  C   UNL     1      10.330  29.793  56.193  1.00  0.00     0.037 C 
BRANCH   7   9
HETATM    9  N   UNL     1       8.817  28.090  57.134  1.00  0.00    -0.352 N 
HETATM   10  C   UNL     1       7.740  27.352  56.716  1.00  0.00     0.225 C 
HETATM   11  O   UNL     1       6.851  27.802  56.005  1.00  0.00    -0.273 OA
HETATM   12  H   UNL     1       9.433  27.707  57.841  1.00  0.00     0.163 HD
BRANCH  10  13
HETATM   13  C   UNL     1       7.672  25.928  57.125  1.00  0.00     0.119 A 
HETATM   14  C   UNL     1       7.715  24.758  56.181  1.00  0.00     0.126 A 
HETATM   15 CL   UNL     1       7.713  24.950  54.436  1.00  0.00    -0.101 Cl
HETATM   16 CL   UNL     1       8.585  23.314  56.706  1.00  0.00    -0.101 Cl
HETATM   17  C   UNL     1       6.437  25.087  56.908  1.00  0.00     0.060 A 
ENDBRANCH  10  13
ENDBRANCH   7   9
ENDBRANCH   1   7
BRANCH   4  18
HETATM   18  O   UNL     1       7.943  32.805  61.344  1.00  0.00    -0.347 OA
BRANCH  18  19
HETATM   19  C   UNL     1       8.262  32.326  62.649  1.00  0.00     0.215 C 
BRANCH  19  20
HETATM   20  C   UNL     1       7.171  32.751  63.591  1.00  0.00    -0.017 A 
HETATM   21  C   UNL     1       5.854  32.348  63.390  1.00  0.00     0.125 A 
HETATM   22  N   UNL     1       4.821  32.696  64.191  1.00  0.00    -0.272 NA
HETATM   23  C   UNL     1       5.114  33.475  65.253  1.00  0.00     0.116 A 
HETATM   24  C   UNL     1       6.390  33.926  65.548  1.00  0.00     0.020 A 
HETATM   25  C   UNL     1       7.432  33.558  64.702  1.00  0.00     0.012 A 
ENDBRANCH  19  20
ENDBRANCH  18  19
ENDBRANCH   4  18
TORSDOF 6
ENDMDL
MODEL 3
REMARK VINA RESULT:      -8.2      4.162      9.168
REMARK  6 active torsions:
REMARK  status: ('A' for Active; 'I' for Inactive)
REMARK    1  A    between atoms: C_2  and  N_3 
REMARK    2  A    between atoms: C_2  and  C_11 
REMARK       I    between atoms: N_3  and  C_4 
REMARK    3  A    between atoms: C_4  and  C_5 
REMARK    4  A    between atoms: C_14  and  O_15 
REMARK    5  A    between atoms: O_15  and  C_16 
REMARK    6  A    between atoms: C_16  and  C_17 
ROOT
HETATM    1  C   UNL     1       6.913  26.803  57.230  1.00  0.00    -0.036 A 
HETATM    2  C   UNL     1       6.054  27.909  57.310  1.00  0.00     0.012 A 
HETATM    3  C   UNL     1       6.562  29.209  57.410  1.00  0.00     0.037 A 
HETATM    4  C   UNL     1       7.939  29.420  57.450  1.00  0.00     0.069 A 
HETATM    5  C   UNL     1       8.801  28.330  57.340  1.00  0.00     0.037 A 
HETATM    6  C   UNL     1       8.296  27.032  57.235  1.00  0.00     0.012 A 
ENDROOT
BRANCH   1   7
HETATM    7  C   UNL     1       6.338  25.397  57.195  1.00  0.00     0.113 C 
HETATM    8  C   UNL     1       4.808  25.402  57.197  1.00  0.00     0.037 C 
BRANCH   7   9
HETATM    9  N   UNL     1       6.863  24.691  56.036  1.00  0.00    -0.352 N 
HETATM   10  C   UNL     1       7.773  23.673  56.151  1.00  0.00     0.225 C 
HETATM   11  O   UNL     1       8.173  23.246  57.226  1.00  0.00    -0.273 OA
HETATM   12  H   UNL     1       6.689  25.098  55.126  1.00  0.00     0.163 HD
BRANCH  10  13
HETATM   13  C   UNL     1       8.270  23.040  54.904  1.00  0.00     0.119 A 
HETATM   14  C   UNL     1       8.177  21.574  54.588  1.00  0.00     0.126 A 
HETATM   15 CL   UNL     1       7.581  20.392  55.741  1.00  0.00    -0.101 Cl
HETATM   16 CL   UNL     1       7.849  21.116  52.914  1.00  0.00    -0.101 Cl
HETATM   17  C   UNL     1       9.520  22.195  54.874  1.00  0.00     0.060 A 
ENDBRANCH  10  13
ENDBRANCH   7   9
ENDBRANCH   1   7
BRANCH   4  18
HETATM   18  O   UNL     1       8.559  30.632  57.586  1.00  0.00    -0.347 OA
BRANCH  18  19
HETATM   19  C   UNL     1       9.569  30.720  58.589  1.00  0.00     0.215 C 
BRANCH  19  20
HETATM   20  C   UNL     1       8.924  31.152  59.876  1.00  0.00    -0.017 A 
HETATM   21  C   UNL     1       7.995  32.189  59.899  1.00  0.00     0.125 A 
HETATM   22  N   UNL     1       7.380  32.634  61.017  1.00  0.00    -0.272 NA
HETATM   23  C   UNL     1       7.695  32.010  62.172  1.00  0.00     0.116 A 
HETATM   24  C   UNL     1       8.599  30.964  62.259  1.00  0.00     0.020 A 
HETATM   25  C   UNL     1       9.223  30.533  61.092  1.00  0.00     0.012 A 
ENDBRANCH  19  20
ENDBRANCH  18  19
ENDBRANCH   4  18
TORSDOF 6
ENDMDL
MODEL 4
REMARK VINA RESULT:      -8.2      6.753     10.290
REMARK  6 active torsions:
REMARK  status: ('A' for Active; 'I' for Inactive)
REMARK    1  A    between atoms: C_2  and  N_3 
REMARK    2  A    between atoms: C_2  and  C_11 
REMARK       I    between atoms: N_3  and  C_4 
REMARK    3  A    between atoms: C_4  and  C_5 
REMARK    4  A    between atoms: C_14  and  O_15 
REMARK    5  A    between atoms: O_15  and  C_16 
REMARK    6  A    between atoms: C_16  and  C_17 
ROOT
HETATM    1  C   UNL     1       6.298  34.008  64.676  1.00  0.00    -0.036 A 
HETATM    2  C   UNL     1       7.431  33.181  64.653  1.00  0.00     0.012 A 
HETATM    3  C   UNL     1       7.953  32.710  63.443  1.00  0.00     0.037 A 
HETATM    4  C   UNL     1       7.337  33.044  62.239  1.00  0.00     0.069 A 
HETATM    5  C   UNL     1       6.229  33.891  62.249  1.00  0.00     0.037 A 
HETATM    6  C   UNL     1       5.709  34.366  63.455  1.00  0.00     0.012 A 
ENDROOT
BRANCH   1   7
HETATM    7  C   UNL     1       5.708  34.448  66.005  1.00  0.00     0.113 C 
HETATM    8  C   UNL     1       4.248  34.014  66.158  1.00  0.00     0.037 C 
BRANCH   7   9
HETATM    9  N   UNL     1       6.529  33.933  67.091  1.00  0.00    -0.352 N 
HETATM   10  C   UNL     1       6.683  34.608  68.274  1.00  0.00     0.225 C 
HETATM   11  O   UNL     1       6.108  35.658  68.529  1.00  0.00    -0.273 OA
HETATM   12  H   UNL     1       7.144  33.157  66.881  1.00  0.00     0.163 HD
BRANCH  10  13
HETATM   13  C   UNL     1       7.569  34.011  69.304  1.00  0.00     0.119 A 
HETATM   14  C   UNL     1       7.284  33.998  70.780  1.00  0.00     0.126 A 
HETATM   15 CL   UNL     1       5.905  34.826  71.486  1.00  0.00    -0.101 Cl
HETATM   16 CL   UNL     1       7.754  32.561  71.692  1.00  0.00    -0.101 Cl
HETATM   17  C   UNL     1       8.397  34.858  70.240  1.00  0.00     0.060 A 
ENDBRANCH  10  13
ENDBRANCH   7   9
ENDBRANCH   1   7
BRANCH   4  18
HETATM   18  O   UNL     1       7.722  32.617  60.998  1.00  0.00    -0.347 OA
BRANCH  18  19
HETATM   19  C   UNL     1       7.955  31.218  60.850  1.00  0.00     0.215 C 
BRANCH  19  20
HETATM   20  C   UNL     1       8.790  31.004  59.619  1.00  0.00    -0.017 A 
HETATM   21  C   UNL     1       9.813  31.886  59.283  1.00  0.00     0.125 A 
HETATM   22  N   UNL     1      10.598  31.761  58.191  1.00  0.00    -0.272 NA
HETATM   23  C   UNL     1      10.364  30.696  57.395  1.00  0.00     0.116 A 
HETATM   24  C   UNL     1       9.377  29.756  57.639  1.00  0.00     0.020 A 
HETATM   25  C   UNL     1       8.579  29.915  58.767  1.00  0.00     0.012 A 
ENDBRANCH  19  20
ENDBRANCH  18  19
ENDBRANCH   4  18
TORSDOF 6
ENDMDL
MODEL 5
REMARK VINA RESULT:      -7.9      4.175      9.207
REMARK  6 active torsions:
REMARK  status: ('A' for Active; 'I' for Inactive)
REMARK    1  A    between atoms: C_2  and  N_3 
REMARK    2  A    between atoms: C_2  and  C_11 
REMARK       I    between atoms: N_3  and  C_4 
REMARK    3  A    between atoms: C_4  and  C_5 
REMARK    4  A    between atoms: C_14  and  O_15 
REMARK    5  A    between atoms: O_15  and  C_16 
REMARK    6  A    between atoms: C_16  and  C_17 
ROOT
HETATM    1  C   UNL     1       6.333  27.966  55.570  1.00  0.00    -0.036 A 
HETATM    2  C   UNL     1       5.952  29.174  56.175  1.00  0.00     0.012 A 
HETATM    3  C   UNL     1       6.617  29.651  57.310  1.00  0.00     0.037 A 
HETATM    4  C   UNL     1       7.661  28.917  57.869  1.00  0.00     0.069 A 
HETATM    5  C   UNL     1       8.068  27.732  57.256  1.00  0.00     0.037 A 
HETATM    6  C   UNL     1       7.410  27.256  56.120  1.00  0.00     0.012 A 
ENDROOT
BRANCH   1   7
HETATM    7  C   UNL     1       5.551  27.433  54.382  1.00  0.00     0.113 C 
HETATM    8  C   UNL     1       5.200  28.538  53.383  1.00  0.00     0.037 C 
BRANCH   7   9
HETATM    9  N   UNL     1       6.309  26.367  53.745  1.00  0.00    -0.352 N 
HETATM   10  C   UNL     1       5.721  25.203  53.324  1.00  0.00     0.225 C 
HETATM   11  O   UNL     1       4.518  24.991  53.400  1.00  0.00    -0.273 OA
HETATM   12  H   UNL     1       7.319  26.420  53.796  1.00  0.00     0.163 HD
BRANCH  10  13
HETATM   13  C   UNL     1       6.590  24.165  52.716  1.00  0.00     0.119 A 
HETATM   14  C   UNL     1       7.679  23.423  53.441  1.00  0.00     0.126 A 
HETATM   15 CL   UNL     1       8.150  23.804  55.089  1.00  0.00    -0.101 Cl
HETATM   16 CL   UNL     1       7.912  21.718  53.043  1.00  0.00    -0.101 Cl
HETATM   17  C   UNL     1       8.038  24.427  52.376  1.00  0.00     0.060 A 
ENDBRANCH  10  13
ENDBRANCH   7   9
ENDBRANCH   1   7
BRANCH   4  18
HETATM   18  O   UNL     1       8.361  29.252  58.995  1.00  0.00    -0.347 OA
BRANCH  18  19
HETATM   19  C   UNL     1       8.986  30.534  58.998  1.00  0.00     0.215 C 
BRANCH  19  20
HETATM   20  C   UNL     1       8.458  31.315  60.169  1.00  0.00    -0.017 A 
HETATM   21  C   UNL     1       7.270  32.033  60.075  1.00  0.00     0.125 A 
HETATM   22  N   UNL     1       6.739  32.761  61.082  1.00  0.00    -0.272 NA
HETATM   23  C   UNL     1       7.418  32.768  62.248  1.00  0.00     0.116 A 
HETATM   24  C   UNL     1       8.605  32.084  62.451  1.00  0.00     0.020 A 
HETATM   25  C   UNL     1       9.132  31.349  61.393  1.00  0.00     0.012 A 
ENDBRANCH  19  20
ENDBRANCH  18  19
ENDBRANCH   4  18
TORSDOF 6
ENDMDL
MODEL 6
REMARK VINA RESULT:      -7.9      1.510      1.971
REMARK  6 active torsions:
REMARK  status: ('A' for Active; 'I' for Inactive)
REMARK    1  A    between atoms: C_2  and  N_3 
REMARK    2  A    between atoms: C_2  and  C_11 
REMARK       I    between atoms: N_3  and  C_4 
REMARK    3  A    between atoms: C_4  and  C_5 
REMARK    4  A    between atoms: C_14  and  O_15 
REMARK    5  A    between atoms: O_15  and  C_16 
REMARK    6  A    between atoms: C_16  and  C_17 
ROOT
HETATM    1  C   UNL     1       6.124  28.542  56.301  1.00  0.00    -0.036 A 
HETATM    2  C   UNL     1       7.387  28.223  55.778  1.00  0.00     0.012 A 
HETATM    3  C   UNL     1       7.600  27.019  55.097  1.00  0.00     0.037 A 
HETATM    4  C   UNL     1       6.558  26.107  54.947  1.00  0.00     0.069 A 
HETATM    5  C   UNL     1       5.291  26.428  55.436  1.00  0.00     0.037 A 
HETATM    6  C   UNL     1       5.075  27.632  56.111  1.00  0.00     0.012 A 
ENDROOT
BRANCH   1   7
HETATM    7  C   UNL     1       5.935  29.821  57.097  1.00  0.00     0.113 C 
HETATM    8  C   UNL     1       4.484  30.009  57.546  1.00  0.00     0.037 C 
BRANCH   7   9
HETATM    9  N   UNL     1       6.844  29.821  58.233  1.00  0.00    -0.352 N 
HETATM   10  C   UNL     1       7.330  30.979  58.781  1.00  0.00     0.225 C 
HETATM   11  O   UNL     1       7.001  32.094  58.398  1.00  0.00    -0.273 OA
HETATM   12  H   UNL     1       7.267  28.938  58.490  1.00  0.00     0.163 HD
BRANCH  10  13
HETATM   13  C   UNL     1       8.278  30.867  59.917  1.00  0.00     0.119 A 
HETATM   14  C   UNL     1       8.131  31.579  61.233  1.00  0.00     0.126 A 
HETATM   15 CL   UNL     1       6.865  32.758  61.536  1.00  0.00    -0.101 Cl
HETATM   16 CL   UNL     1       8.614  30.709  62.692  1.00  0.00    -0.101 Cl
HETATM   17  C   UNL     1       9.229  31.980  60.283  1.00  0.00     0.060 A 
ENDBRANCH  10  13
ENDBRANCH   7   9
ENDBRANCH   1   7
BRANCH   4  18
HETATM   18  O   UNL     1       6.646  24.884  54.341  1.00  0.00    -0.347 OA
BRANCH  18  19
HETATM   19  C   UNL     1       7.883  24.579  53.699  1.00  0.00     0.215 C 
BRANCH  19  20
HETATM   20  C   UNL     1       8.175  23.119  53.902  1.00  0.00    -0.017 A 
HETATM   21  C   UNL     1       8.853  22.674  55.033  1.00  0.00     0.125 A 
HETATM   22  N   UNL     1       9.156  21.380  55.278  1.00  0.00    -0.272 NA
HETATM   23  C   UNL     1       8.754  20.478  54.358  1.00  0.00     0.116 A 
HETATM   24  C   UNL     1       8.068  20.813  53.202  1.00  0.00     0.020 A 
HETATM   25  C   UNL     1       7.777  22.154  52.972  1.00  0.00     0.012 A 
ENDBRANCH  19  20
ENDBRANCH  18  19
ENDBRANCH   4  18
TORSDOF 6
ENDMDL
MODEL 7
REMARK VINA RESULT:      -7.9      1.642      2.284
REMARK  6 active torsions:
REMARK  status: ('A' for Active; 'I' for Inactive)
REMARK    1  A    between atoms: C_2  and  N_3 
REMARK    2  A    between atoms: C_2  and  C_11 
REMARK       I    between atoms: N_3  and  C_4 
REMARK    3  A    between atoms: C_4  and  C_5 
REMARK    4  A    between atoms: C_14  and  O_15 
REMARK    5  A    between atoms: O_15  and  C_16 
REMARK    6  A    between atoms: C_16  and  C_17 
ROOT
HETATM    1  C   UNL     1       6.462  29.414  57.539  1.00  0.00    -0.036 A 
HETATM    2  C   UNL     1       7.698  28.780  57.735  1.00  0.00     0.012 A 
HETATM    3  C   UNL     1       7.851  27.410  57.489  1.00  0.00     0.037 A 
HETATM    4  C   UNL     1       6.764  26.651  57.062  1.00  0.00     0.069 A 
HETATM    5  C   UNL     1       5.539  27.278  56.835  1.00  0.00     0.037 A 
HETATM    6  C   UNL     1       5.385  28.646  57.074  1.00  0.00     0.012 A 
ENDROOT
BRANCH   1   7
HETATM    7  C   UNL     1       6.302  30.885  57.881  1.00  0.00     0.113 C 
HETATM    8  C   UNL     1       5.034  31.483  57.267  1.00  0.00     0.037 C 
BRANCH   7   9
HETATM    9  N   UNL     1       6.317  31.048  59.327  1.00  0.00    -0.352 N 
HETATM   10  C   UNL     1       7.246  31.827  59.965  1.00  0.00     0.225 C 
HETATM   11  O   UNL     1       8.095  32.482  59.375  1.00  0.00    -0.273 OA
HETATM   12  H   UNL     1       5.743  30.416  59.872  1.00  0.00     0.163 HD
BRANCH  10  13
HETATM   13  C   UNL     1       7.193  31.900  61.446  1.00  0.00     0.119 A 
HETATM   14  C   UNL     1       8.385  32.094  62.341  1.00  0.00     0.126 A 
HETATM   15 CL   UNL     1      10.032  32.120  61.732  1.00  0.00    -0.101 Cl
HETATM   16 CL   UNL     1       8.176  33.097  63.779  1.00  0.00    -0.101 Cl
HETATM   17  C   UNL     1       7.668  30.768  62.324  1.00  0.00     0.060 A 
ENDBRANCH  10  13
ENDBRANCH   7   9
ENDBRANCH   1   7
BRANCH   4  18
HETATM   18  O   UNL     1       6.772  25.304  56.828  1.00  0.00    -0.347 OA
BRANCH  18  19
HETATM   19  C   UNL     1       8.043  24.657  56.873  1.00  0.00     0.215 C 
BRANCH  19  20
HETATM   20  C   UNL     1       8.144  23.729  55.695  1.00  0.00    -0.017 A 
HETATM   21  C   UNL     1       8.660  22.444  55.837  1.00  0.00     0.125 A 
HETATM   22  N   UNL     1       8.787  21.559  54.824  1.00  0.00    -0.272 NA
HETATM   23  C   UNL     1       8.369  21.966  53.607  1.00  0.00     0.116 A 
HETATM   24  C   UNL     1       7.834  23.219  53.357  1.00  0.00     0.020 A 
HETATM   25  C   UNL     1       7.723  24.113  54.418  1.00  0.00     0.012 A 
ENDBRANCH  19  20
ENDBRANCH  18  19
ENDBRANCH   4  18
TORSDOF 6
ENDMDL
MODEL 8
REMARK VINA RESULT:      -7.9      6.933      8.509
REMARK  6 active torsions:
REMARK  status: ('A' for Active; 'I' for Inactive)
REMARK    1  A    between atoms: C_2  and  N_3 
REMARK    2  A    between atoms: C_2  and  C_11 
REMARK       I    between atoms: N_3  and  C_4 
REMARK    3  A    between atoms: C_4  and  C_5 
REMARK    4  A    between atoms: C_14  and  O_15 
REMARK    5  A    between atoms: O_15  and  C_16 
REMARK    6  A    between atoms: C_16  and  C_17 
ROOT
HETATM    1  C   UNL     1       4.877  27.294  52.374  1.00  0.00    -0.036 A 
HETATM    2  C   UNL     1       5.147  27.549  53.727  1.00  0.00     0.012 A 
HETATM    3  C   UNL     1       5.699  26.560  54.549  1.00  0.00     0.037 A 
HETATM    4  C   UNL     1       5.970  25.295  54.034  1.00  0.00     0.069 A 
HETATM    5  C   UNL     1       5.735  25.041  52.682  1.00  0.00     0.037 A 
HETATM    6  C   UNL     1       5.189  26.028  51.859  1.00  0.00     0.012 A 
ENDROOT
BRANCH   1   7
HETATM    7  C   UNL     1       4.212  28.360  51.519  1.00  0.00     0.113 C 
HETATM    8  C   UNL     1       5.147  29.538  51.240  1.00  0.00     0.037 C 
BRANCH   7   9
HETATM    9  N   UNL     1       3.736  27.758  50.283  1.00  0.00    -0.352 N 
HETATM   10  C   UNL     1       2.611  28.204  49.638  1.00  0.00     0.225 C 
HETATM   11  O   UNL     1       1.955  29.164  50.018  1.00  0.00    -0.273 OA
HETATM   12  H   UNL     1       4.144  26.873  50.009  1.00  0.00     0.163 HD
BRANCH  10  13
HETATM   13  C   UNL     1       2.194  27.499  48.401  1.00  0.00     0.119 A 
HETATM   14  C   UNL     1       3.134  26.874  47.408  1.00  0.00     0.126 A 
HETATM   15 CL   UNL     1       4.879  27.029  47.529  1.00  0.00    -0.101 Cl
HETATM   16 CL   UNL     1       2.635  25.359  46.650  1.00  0.00    -0.101 Cl
HETATM   17  C   UNL     1       2.360  28.112  47.032  1.00  0.00     0.060 A 
ENDBRANCH  10  13
ENDBRANCH   7   9
ENDBRANCH   1   7
BRANCH   4  18
HETATM   18  O   UNL     1       6.469  24.234  54.739  1.00  0.00    -0.347 OA
BRANCH  18  19
HETATM   19  C   UNL     1       7.886  24.067  54.720  1.00  0.00     0.215 C 
BRANCH  19  20
HETATM   20  C   UNL     1       8.189  22.623  54.433  1.00  0.00    -0.017 A 
HETATM   21  C   UNL     1       8.761  21.804  55.401  1.00  0.00     0.125 A 
HETATM   22  N   UNL     1       9.066  20.501  55.212  1.00  0.00    -0.272 NA
HETATM   23  C   UNL     1       8.777  19.980  54.002  1.00  0.00     0.116 A 
HETATM   24  C   UNL     1       8.201  20.704  52.971  1.00  0.00     0.020 A 
HETATM   25  C   UNL     1       7.905  22.046  53.191  1.00  0.00     0.012 A 
ENDBRANCH  19  20
ENDBRANCH  18  19
ENDBRANCH   4  18
TORSDOF 6
ENDMDL
MODEL 9
REMARK VINA RESULT:      -7.8      5.402     11.722
REMARK  6 active torsions:
REMARK  status: ('A' for Active; 'I' for Inactive)
REMARK    1  A    between atoms: C_2  and  N_3 
REMARK    2  A    between atoms: C_2  and  C_11 
REMARK       I    between atoms: N_3  and  C_4 
REMARK    3  A    between atoms: C_4  and  C_5 
REMARK    4  A    between atoms: C_14  and  O_15 
REMARK    5  A    between atoms: O_15  and  C_16 
REMARK    6  A    between atoms: C_16  and  C_17 
ROOT
HETATM    1  C   UNL     1       7.426  32.302  61.657  1.00  0.00    -0.036 A 
HETATM    2  C   UNL     1       6.040  32.358  61.450  1.00  0.00     0.012 A 
HETATM    3  C   UNL     1       5.163  32.596  62.515  1.00  0.00     0.037 A 
HETATM    4  C   UNL     1       5.660  32.761  63.806  1.00  0.00     0.069 A 
HETATM    5  C   UNL     1       7.039  32.738  64.016  1.00  0.00     0.037 A 
HETATM    6  C   UNL     1       7.916  32.506  62.954  1.00  0.00     0.012 A 
ENDROOT
BRANCH   1   7
HETATM    7  C   UNL     1       8.352  31.972  60.499  1.00  0.00     0.113 C 
HETATM    8  C   UNL     1       9.815  31.883  60.939  1.00  0.00     0.037 C 
BRANCH   7   9
HETATM    9  N   UNL     1       7.914  30.736  59.868  1.00  0.00    -0.352 N 
HETATM   10  C   UNL     1       7.364  30.711  58.613  1.00  0.00     0.225 C 
HETATM   11  O   UNL     1       7.247  31.706  57.910  1.00  0.00    -0.273 OA
HETATM   12  H   UNL     1       7.844  29.914  60.455  1.00  0.00     0.163 HD
BRANCH  10  13
HETATM   13  C   UNL     1       6.920  29.401  58.075  1.00  0.00     0.119 A 
HETATM   14  C   UNL     1       7.820  28.388  57.425  1.00  0.00     0.126 A 
HETATM   15 CL   UNL     1       9.516  28.702  57.096  1.00  0.00    -0.101 Cl
HETATM   16 CL   UNL     1       7.492  26.681  57.736  1.00  0.00    -0.101 Cl
HETATM   17  C   UNL     1       6.811  29.137  56.593  1.00  0.00     0.060 A 
ENDBRANCH  10  13
ENDBRANCH   7   9
ENDBRANCH   1   7
BRANCH   4  18
HETATM   18  O   UNL     1       4.910  32.957  64.933  1.00  0.00    -0.347 OA
BRANCH  18  19
HETATM   19  C   UNL     1       4.917  34.274  65.480  1.00  0.00     0.215 C 
BRANCH  19  20
HETATM   20  C   UNL     1       5.427  34.198  66.892  1.00  0.00    -0.017 A 
HETATM   21  C   UNL     1       4.580  33.862  67.943  1.00  0.00     0.125 A 
HETATM   22  N   UNL     1       4.966  33.780  69.236  1.00  0.00    -0.272 NA
HETATM   23  C   UNL     1       6.266  34.035  69.497  1.00  0.00     0.116 A 
HETATM   24  C   UNL     1       7.194  34.372  68.526  1.00  0.00     0.020 A 
HETATM   25  C   UNL     1       6.765  34.456  67.205  1.00  0.00     0.012 A 
ENDBRANCH  19  20
ENDBRANCH  18  19
ENDBRANCH   4  18
TORSDOF 6
ENDMDL
MODEL 10
REMARK VINA RESULT:      -7.7      2.669      3.650
REMARK  6 active torsions:
REMARK  status: ('A' for Active; 'I' for Inactive)
REMARK    1  A    between atoms: C_2  and  N_3 
REMARK    2  A    between atoms: C_2  and  C_11 
REMARK       I    between atoms: N_3  and  C_4 
REMARK    3  A    between atoms: C_4  and  C_5 
REMARK    4  A    between atoms: C_14  and  O_15 
REMARK    5  A    between atoms: O_15  and  C_16 
REMARK    6  A    between atoms: C_16  and  C_17 
ROOT
HETATM    1  C   UNL     1       8.471  29.763  58.155  1.00  0.00    -0.036 A 
HETATM    2  C   UNL     1       7.110  30.082  58.027  1.00  0.00     0.012 A 
HETATM    3  C   UNL     1       6.313  29.455  57.063  1.00  0.00     0.037 A 
HETATM    4  C   UNL     1       6.869  28.515  56.199  1.00  0.00     0.069 A 
HETATM    5  C   UNL     1       8.213  28.169  56.338  1.00  0.00     0.037 A 
HETATM    6  C   UNL     1       9.010  28.789  57.303  1.00  0.00     0.012 A 
ENDROOT
BRANCH   1   7
HETATM    7  C   UNL     1       9.333  30.508  59.160  1.00  0.00     0.113 C 
HETATM    8  C   UNL     1      10.086  31.675  58.519  1.00  0.00     0.037 C 
BRANCH   7   9
HETATM    9  N   UNL     1       8.501  30.959  60.266  1.00  0.00    -0.352 N 
HETATM   10  C   UNL     1       8.778  30.635  61.569  1.00  0.00     0.225 C 
HETATM   11  O   UNL     1       9.763  29.991  61.907  1.00  0.00    -0.273 OA
HETATM   12  H   UNL     1       7.599  31.357  60.037  1.00  0.00     0.163 HD
BRANCH  10  13
HETATM   13  C   UNL     1       7.848  31.119  62.618  1.00  0.00     0.119 A 
HETATM   14  C   UNL     1       6.826  32.205  62.428  1.00  0.00     0.126 A 
HETATM   15 CL   UNL     1       6.705  33.142  60.948  1.00  0.00    -0.101 Cl
HETATM   16 CL   UNL     1       5.272  32.019  63.244  1.00  0.00    -0.101 Cl
HETATM   17  C   UNL     1       8.030  32.453  63.300  1.00  0.00     0.060 A 
ENDBRANCH  10  13
ENDBRANCH   7   9
ENDBRANCH   1   7
BRANCH   4  18
HETATM   18  O   UNL     1       6.210  27.865  55.192  1.00  0.00    -0.347 OA
BRANCH  18  19
HETATM   19  C   UNL     1       6.901  27.751  53.949  1.00  0.00     0.215 C 
BRANCH  19  20
HETATM   20  C   UNL     1       7.027  26.292  53.609  1.00  0.00    -0.017 A 
HETATM   21  C   UNL     1       6.294  25.330  54.298  1.00  0.00     0.125 A 
HETATM   22  N   UNL     1       6.361  24.002  54.051  1.00  0.00    -0.272 NA
HETATM   23  C   UNL     1       7.190  23.611  53.061  1.00  0.00     0.116 A 
HETATM   24  C   UNL     1       7.958  24.485  52.309  1.00  0.00     0.020 A 
HETATM   25  C   UNL     1       7.874  25.845  52.591  1.00  0.00     0.012 A 
ENDBRANCH  19  20
ENDBRANCH  18  19
ENDBRANCH   4  18
TORSDOF 6
ENDMDL
