MODEL 1
REMARK VINA RESULT:      -9.7      0.000      0.000
REMARK  14 active torsions:
REMARK  status: ('A' for Active; 'I' for Inactive)
REMARK    1  A    between atoms: C_2  and  N_3 
REMARK    2  A    between atoms: N_3  and  C_5 
REMARK    3  A    between atoms: N_3  and  C_39 
REMARK    4  A    between atoms: C_5  and  C_6 
REMARK    5  A    between atoms: C_6  and  C_7 
REMARK    6  A    between atoms: C_7  and  N_8 
REMARK    7  A    between atoms: C_11  and  O_12 
REMARK    8  A    between atoms: C_13  and  C_14 
REMARK    9  A    between atoms: C_14  and  C_15 
REMARK   10  A    between atoms: C_18  and  O_19 
REMARK   11  A    between atoms: O_19  and  C_20 
REMARK   12  A    between atoms: C_20  and  C_21 
REMARK   13  A    between atoms: C_31  and  C_32 
REMARK   14  A    between atoms: C_35  and  O_36 
ROOT
HETATM    1  N   UNL     1       7.089  25.634  54.799  1.00  0.00    -0.333 N 
HETATM    2  C   UNL     1       7.057  25.428  56.165  1.00  0.00     0.278 C 
HETATM    3  O   UNL     1       6.768  24.414  56.773  1.00  0.00    -0.265 OA
HETATM    4  C   UNL     1       7.554  26.664  56.810  1.00  0.00     0.146 C 
HETATM    5  C   UNL     1       7.806  27.542  55.833  1.00  0.00     0.059 C 
HETATM    6  C   UNL     1       7.313  27.045  54.502  1.00  0.00     0.161 C 
ENDROOT
BRANCH   5   7
HETATM    7  C   UNL     1       8.528  28.835  55.852  1.00  0.00     0.193 C 
HETATM    8  O   UNL     1       9.318  29.088  54.943  1.00  0.00    -0.287 OA
BRANCH   7   9
HETATM    9  C   UNL     1       8.453  29.776  56.996  1.00  0.00     0.015 A 
HETATM   10  C   UNL     1       7.239  30.202  57.545  1.00  0.00     0.018 A 
HETATM   11  C   UNL     1       7.219  31.014  58.687  1.00  0.00     0.038 A 
HETATM   12  C   UNL     1       8.410  31.366  59.321  1.00  0.00     0.069 A 
HETATM   13  C   UNL     1       9.622  30.921  58.787  1.00  0.00     0.038 A 
HETATM   14  C   UNL     1       9.647  30.130  57.634  1.00  0.00     0.018 A 
BRANCH  12  15
HETATM   15  O   UNL     1       8.525  32.102  60.467  1.00  0.00    -0.347 OA
BRANCH  15  16
HETATM   16  C   UNL     1       8.523  31.392  61.705  1.00  0.00     0.214 C 
BRANCH  16  17
HETATM   17  C   UNL     1       7.561  32.054  62.662  1.00  0.00    -0.034 A 
HETATM   18  C   UNL     1       6.177  31.891  62.521  1.00  0.00     0.010 A 
HETATM   19  C   UNL     1       5.298  32.453  63.450  1.00  0.00     0.007 A 
HETATM   20  C   UNL     1       5.785  33.189  64.535  1.00  0.00    -0.062 A 
HETATM   21  C   UNL     1       4.852  33.768  65.556  1.00  0.00     0.048 C 
HETATM   22  C   UNL     1       7.167  33.352  64.679  1.00  0.00     0.007 A 
HETATM   23  C   UNL     1       8.047  32.792  63.750  1.00  0.00     0.010 A 
ENDBRANCH  16  17
ENDBRANCH  15  16
ENDBRANCH  12  15
ENDBRANCH   7   9
ENDBRANCH   5   7
BRANCH   4  24
HETATM   24  O   UNL     1       7.787  26.752  58.147  1.00  0.00    -0.355 OA
HETATM   25  H   UNL     1       7.511  27.654  58.415  1.00  0.00     0.218 HD
ENDBRANCH   4  24
BRANCH   6  26
HETATM   26  C   UNL     1       6.074  27.746  53.970  1.00  0.00    -0.030 A 
HETATM   27  C   UNL     1       5.047  28.107  54.862  1.00  0.00     0.012 A 
HETATM   28  C   UNL     1       3.897  28.760  54.412  1.00  0.00     0.037 A 
HETATM   29  C   UNL     1       3.765  29.055  53.061  1.00  0.00     0.065 A 
HETATM   30  C   UNL     1       4.756  28.699  52.157  1.00  0.00     0.037 A 
HETATM   31  C   UNL     1       5.903  28.039  52.606  1.00  0.00     0.012 A 
BRANCH  29  32
HETATM   32  O   UNL     1       2.664  29.691  52.574  1.00  0.00    -0.361 OA
HETATM   33  H   UNL     1       2.018  29.802  53.291  1.00  0.00     0.217 HD
ENDBRANCH  29  32
ENDBRANCH   6  26
BRANCH   1  34
HETATM   34  C   UNL     1       6.573  24.658  53.850  1.00  0.00     0.129 C 
BRANCH  34  35
HETATM   35  C   UNL     1       7.630  24.048  52.928  1.00  0.00     0.048 C 
BRANCH  35  36
HETATM   36  C   UNL     1       8.636  23.194  53.696  1.00  0.00     0.236 C 
BRANCH  36  37
HETATM   37  N   UNL     1       7.960  22.174  54.606  1.00  0.00    -0.072 N 
HETATM   38  H   UNL     1       7.054  22.585  54.867  1.00  0.00     0.279 HD
BRANCH  37  39
HETATM   39  C   UNL     1       8.718  21.973  55.914  1.00  0.00     0.230 C 
HETATM   40  C   UNL     1       8.410  20.618  56.526  1.00  0.00     0.034 C 
ENDBRANCH  37  39
BRANCH  37  41
HETATM   41  C   UNL     1       7.605  20.840  53.966  1.00  0.00     0.230 C 
HETATM   42  C   UNL     1       8.505  20.491  52.795  1.00  0.00     0.034 C 
ENDBRANCH  37  41
ENDBRANCH  36  37
ENDBRANCH  35  36
ENDBRANCH  34  35
ENDBRANCH   1  34
TORSDOF 14
ENDMDL
MODEL 2
REMARK VINA RESULT:      -9.4      1.847      3.864
REMARK  14 active torsions:
REMARK  status: ('A' for Active; 'I' for Inactive)
REMARK    1  A    between atoms: C_2  and  N_3 
REMARK    2  A    between atoms: N_3  and  C_5 
REMARK    3  A    between atoms: N_3  and  C_39 
REMARK    4  A    between atoms: C_5  and  C_6 
REMARK    5  A    between atoms: C_6  and  C_7 
REMARK    6  A    between atoms: C_7  and  N_8 
REMARK    7  A    between atoms: C_11  and  O_12 
REMARK    8  A    between atoms: C_13  and  C_14 
REMARK    9  A    between atoms: C_14  and  C_15 
REMARK   10  A    between atoms: C_18  and  O_19 
REMARK   11  A    between atoms: O_19  and  C_20 
REMARK   12  A    between atoms: C_20  and  C_21 
REMARK   13  A    between atoms: C_31  and  C_32 
REMARK   14  A    between atoms: C_35  and  O_36 
ROOT
HETATM    1  N   UNL     1       5.382  26.128  55.373  1.00  0.00    -0.333 N 
HETATM    2  C   UNL     1       5.121  25.990  54.023  1.00  0.00     0.278 C 
HETATM    3  O   UNL     1       5.188  24.989  53.335  1.00  0.00    -0.265 OA
HETATM    4  C   UNL     1       4.622  27.294  53.534  1.00  0.00     0.146 C 
HETATM    5  C   UNL     1       4.652  28.140  54.570  1.00  0.00     0.059 C 
HETATM    6  C   UNL     1       5.352  27.536  55.756  1.00  0.00     0.161 C 
ENDROOT
BRANCH   5   7
HETATM    7  C   UNL     1       4.063  29.488  54.741  1.00  0.00     0.193 C 
HETATM    8  O   UNL     1       3.522  30.027  53.777  1.00  0.00    -0.287 OA
BRANCH   7   9
HETATM    9  C   UNL     1       4.227  30.280  55.985  1.00  0.00     0.015 A 
HETATM   10  C   UNL     1       3.403  30.110  57.102  1.00  0.00     0.018 A 
HETATM   11  C   UNL     1       3.657  30.811  58.289  1.00  0.00     0.038 A 
HETATM   12  C   UNL     1       4.767  31.650  58.386  1.00  0.00     0.069 A 
HETATM   13  C   UNL     1       5.604  31.802  57.278  1.00  0.00     0.038 A 
HETATM   14  C   UNL     1       5.340  31.122  56.085  1.00  0.00     0.018 A 
BRANCH  12  15
HETATM   15  O   UNL     1       5.156  32.344  59.498  1.00  0.00    -0.347 OA
BRANCH  15  16
HETATM   16  C   UNL     1       6.553  32.393  59.784  1.00  0.00     0.214 C 
BRANCH  16  17
HETATM   17  C   UNL     1       6.758  32.794  61.224  1.00  0.00    -0.034 A 
HETATM   18  C   UNL     1       5.889  33.696  61.852  1.00  0.00     0.010 A 
HETATM   19  C   UNL     1       6.049  34.010  63.204  1.00  0.00     0.007 A 
HETATM   20  C   UNL     1       7.080  33.431  63.952  1.00  0.00    -0.062 A 
HETATM   21  C   UNL     1       7.239  33.736  65.412  1.00  0.00     0.048 C 
HETATM   22  C   UNL     1       7.948  32.530  63.328  1.00  0.00     0.007 A 
HETATM   23  C   UNL     1       7.790  32.216  61.976  1.00  0.00     0.010 A 
ENDBRANCH  16  17
ENDBRANCH  15  16
ENDBRANCH  12  15
ENDBRANCH   7   9
ENDBRANCH   5   7
BRANCH   4  24
HETATM   24  O   UNL     1       4.136  27.471  52.275  1.00  0.00    -0.355 OA
HETATM   25  H   UNL     1       3.162  27.540  52.364  1.00  0.00     0.218 HD
ENDBRANCH   4  24
BRANCH   6  26
HETATM   26  C   UNL     1       6.732  28.103  56.048  1.00  0.00    -0.030 A 
HETATM   27  C   UNL     1       7.131  28.295  57.384  1.00  0.00     0.012 A 
HETATM   28  C   UNL     1       8.394  28.807  57.692  1.00  0.00     0.037 A 
HETATM   29  C   UNL     1       9.268  29.133  56.663  1.00  0.00     0.065 A 
HETATM   30  C   UNL     1       8.895  28.967  55.337  1.00  0.00     0.037 A 
HETATM   31  C   UNL     1       7.629  28.462  55.027  1.00  0.00     0.012 A 
BRANCH  29  32
HETATM   32  O   UNL     1      10.509  29.634  56.914  1.00  0.00    -0.361 OA
HETATM   33  H   UNL     1      11.109  28.902  57.135  1.00  0.00     0.217 HD
ENDBRANCH  29  32
ENDBRANCH   6  26
BRANCH   1  34
HETATM   34  C   UNL     1       5.985  25.066  56.164  1.00  0.00     0.129 C 
BRANCH  34  35
HETATM   35  C   UNL     1       7.297  24.519  55.598  1.00  0.00     0.048 C 
BRANCH  35  36
HETATM   36  C   UNL     1       7.244  23.009  55.385  1.00  0.00     0.236 C 
BRANCH  36  37
HETATM   37  N   UNL     1       8.469  22.480  54.647  1.00  0.00    -0.072 N 
HETATM   38  H   UNL     1       9.132  23.265  54.600  1.00  0.00     0.279 HD
BRANCH  37  39
HETATM   39  C   UNL     1       8.159  22.109  53.201  1.00  0.00     0.230 C 
HETATM   40  C   UNL     1       7.871  20.624  53.064  1.00  0.00     0.034 C 
ENDBRANCH  37  39
BRANCH  37  41
HETATM   41  C   UNL     1       9.242  21.370  55.346  1.00  0.00     0.230 C 
HETATM   42  C   UNL     1       8.568  20.897  56.621  1.00  0.00     0.034 C 
ENDBRANCH  37  41
ENDBRANCH  36  37
ENDBRANCH  35  36
ENDBRANCH  34  35
ENDBRANCH   1  34
TORSDOF 14
ENDMDL
MODEL 3
REMARK VINA RESULT:      -9.3      3.703     11.634
REMARK  14 active torsions:
REMARK  status: ('A' for Active; 'I' for Inactive)
REMARK    1  A    between atoms: C_2  and  N_3 
REMARK    2  A    between atoms: N_3  and  C_5 
REMARK    3  A    between atoms: N_3  and  C_39 
REMARK    4  A    between atoms: C_5  and  C_6 
REMARK    5  A    between atoms: C_6  and  C_7 
REMARK    6  A    between atoms: C_7  and  N_8 
REMARK    7  A    between atoms: C_11  and  O_12 
REMARK    8  A    between atoms: C_13  and  C_14 
REMARK    9  A    between atoms: C_14  and  C_15 
REMARK   10  A    between atoms: C_18  and  O_19 
REMARK   11  A    between atoms: O_19  and  C_20 
REMARK   12  A    between atoms: C_20  and  C_21 
REMARK   13  A    between atoms: C_31  and  C_32 
REMARK   14  A    between atoms: C_35  and  O_36 
ROOT
HETATM    1  N   UNL     1       5.426  33.634  62.012  1.00  0.00    -0.333 N 
HETATM    2  C   UNL     1       4.174  33.049  62.012  1.00  0.00     0.278 C 
HETATM    3  O   UNL     1       3.305  33.115  62.861  1.00  0.00    -0.265 OA
HETATM    4  C   UNL     1       4.001  32.376  60.706  1.00  0.00     0.146 C 
HETATM    5  C   UNL     1       5.140  32.542  60.024  1.00  0.00     0.059 C 
HETATM    6  C   UNL     1       6.214  33.149  60.884  1.00  0.00     0.161 C 
ENDROOT
BRANCH   5   7
HETATM    7  C   UNL     1       5.465  32.299  58.600  1.00  0.00     0.193 C 
HETATM    8  O   UNL     1       5.423  33.242  57.811  1.00  0.00    -0.287 OA
BRANCH   7   9
HETATM    9  C   UNL     1       5.694  30.939  58.054  1.00  0.00     0.015 A 
HETATM   10  C   UNL     1       4.717  30.238  57.339  1.00  0.00     0.018 A 
HETATM   11  C   UNL     1       5.011  28.998  56.758  1.00  0.00     0.038 A 
HETATM   12  C   UNL     1       6.298  28.469  56.843  1.00  0.00     0.069 A 
HETATM   13  C   UNL     1       7.281  29.179  57.536  1.00  0.00     0.038 A 
HETATM   14  C   UNL     1       6.985  30.407  58.137  1.00  0.00     0.018 A 
BRANCH  12  15
HETATM   15  O   UNL     1       6.728  27.301  56.276  1.00  0.00    -0.347 OA
BRANCH  15  16
HETATM   16  C   UNL     1       6.871  27.276  54.856  1.00  0.00     0.214 C 
BRANCH  16  17
HETATM   17  C   UNL     1       7.208  25.874  54.410  1.00  0.00    -0.034 A 
HETATM   18  C   UNL     1       7.003  24.778  55.257  1.00  0.00     0.010 A 
HETATM   19  C   UNL     1       7.257  23.479  54.811  1.00  0.00     0.007 A 
HETATM   20  C   UNL     1       7.723  23.251  53.512  1.00  0.00    -0.062 A 
HETATM   21  C   UNL     1       7.966  21.859  53.012  1.00  0.00     0.048 C 
HETATM   22  C   UNL     1       7.927  24.344  52.662  1.00  0.00     0.007 A 
HETATM   23  C   UNL     1       7.675  25.643  53.108  1.00  0.00     0.010 A 
ENDBRANCH  16  17
ENDBRANCH  15  16
ENDBRANCH  12  15
ENDBRANCH   7   9
ENDBRANCH   5   7
BRANCH   4  24
HETATM   24  O   UNL     1       2.823  31.819  60.316  1.00  0.00    -0.355 OA
HETATM   25  H   UNL     1       2.333  32.520  59.836  1.00  0.00     0.218 HD
ENDBRANCH   4  24
BRANCH   6  26
HETATM   26  C   UNL     1       7.325  32.196  61.298  1.00  0.00    -0.030 A 
HETATM   27  C   UNL     1       8.596  32.320  60.709  1.00  0.00     0.012 A 
HETATM   28  C   UNL     1       9.644  31.469  61.070  1.00  0.00     0.037 A 
HETATM   29  C   UNL     1       9.424  30.483  62.023  1.00  0.00     0.065 A 
HETATM   30  C   UNL     1       8.176  30.330  62.610  1.00  0.00     0.037 A 
HETATM   31  C   UNL     1       7.126  31.176  62.245  1.00  0.00     0.012 A 
BRANCH  29  32
HETATM   32  O   UNL     1      10.414  29.630  62.408  1.00  0.00    -0.361 OA
HETATM   33  H   UNL     1      11.216  30.141  62.602  1.00  0.00     0.217 HD
ENDBRANCH  29  32
ENDBRANCH   6  26
BRANCH   1  34
HETATM   34  C   UNL     1       5.976  34.300  63.183  1.00  0.00     0.129 C 
BRANCH  34  35
HETATM   35  C   UNL     1       6.191  33.386  64.392  1.00  0.00     0.048 C 
BRANCH  35  36
HETATM   36  C   UNL     1       6.186  34.163  65.705  1.00  0.00     0.236 C 
BRANCH  36  37
HETATM   37  N   UNL     1       4.967  33.847  66.566  1.00  0.00    -0.072 N 
HETATM   38  H   UNL     1       4.774  32.846  66.426  1.00  0.00     0.279 HD
BRANCH  37  39
HETATM   39  C   UNL     1       3.718  34.583  66.093  1.00  0.00     0.230 C 
HETATM   40  C   UNL     1       3.816  36.071  66.375  1.00  0.00     0.034 C 
ENDBRANCH  37  39
BRANCH  37  41
HETATM   41  C   UNL     1       5.155  33.993  68.069  1.00  0.00     0.230 C 
HETATM   42  C   UNL     1       6.522  34.537  68.441  1.00  0.00     0.034 C 
ENDBRANCH  37  41
ENDBRANCH  36  37
ENDBRANCH  35  36
ENDBRANCH  34  35
ENDBRANCH   1  34
TORSDOF 14
ENDMDL
MODEL 4
REMARK VINA RESULT:      -9.2      2.842      9.984
REMARK  14 active torsions:
REMARK  status: ('A' for Active; 'I' for Inactive)
REMARK    1  A    between atoms: C_2  and  N_3 
REMARK    2  A    between atoms: N_3  and  C_5 
REMARK    3  A    between atoms: N_3  and  C_39 
REMARK    4  A    between atoms: C_5  and  C_6 
REMARK    5  A    between atoms: C_6  and  C_7 
REMARK    6  A    between atoms: C_7  and  N_8 
REMARK    7  A    between atoms: C_11  and  O_12 
REMARK    8  A    between atoms: C_13  and  C_14 
REMARK    9  A    between atoms: C_14  and  C_15 
REMARK   10  A    between atoms: C_18  and  O_19 
REMARK   11  A    between atoms: O_19  and  C_20 
REMARK   12  A    between atoms: C_20  and  C_21 
REMARK   13  A    between atoms: C_31  and  C_32 
REMARK   14  A    between atoms: C_35  and  O_36 
ROOT
HETATM    1  N   UNL     1       8.738  31.425  59.455  1.00  0.00    -0.333 N 
HETATM    2  C   UNL     1       9.753  31.425  58.517  1.00  0.00     0.278 C 
HETATM    3  O   UNL     1      10.747  32.125  58.474  1.00  0.00    -0.265 OA
HETATM    4  C   UNL     1       9.485  30.314  57.577  1.00  0.00     0.146 C 
HETATM    5  C   UNL     1       8.333  29.749  57.954  1.00  0.00     0.059 C 
HETATM    6  C   UNL     1       7.651  30.551  59.028  1.00  0.00     0.161 C 
ENDROOT
BRANCH   5   7
HETATM    7  C   UNL     1       7.695  28.477  57.546  1.00  0.00     0.193 C 
HETATM    8  O   UNL     1       7.749  27.513  58.309  1.00  0.00    -0.287 OA
BRANCH   7   9
HETATM    9  C   UNL     1       7.123  28.267  56.194  1.00  0.00     0.015 A 
HETATM   10  C   UNL     1       7.914  28.188  55.043  1.00  0.00     0.018 A 
HETATM   11  C   UNL     1       7.338  27.892  53.801  1.00  0.00     0.038 A 
HETATM   12  C   UNL     1       5.974  27.622  53.705  1.00  0.00     0.069 A 
HETATM   13  C   UNL     1       5.187  27.677  54.857  1.00  0.00     0.038 A 
HETATM   14  C   UNL     1       5.754  27.995  56.095  1.00  0.00     0.018 A 
BRANCH  12  15
HETATM   15  O   UNL     1       5.301  27.267  52.568  1.00  0.00    -0.347 OA
BRANCH  15  16
HETATM   16  C   UNL     1       4.820  25.926  52.483  1.00  0.00     0.214 C 
BRANCH  16  17
HETATM   17  C   UNL     1       5.915  24.972  52.892  1.00  0.00    -0.034 A 
HETATM   18  C   UNL     1       6.997  24.708  52.044  1.00  0.00     0.010 A 
HETATM   19  C   UNL     1       8.038  23.874  52.459  1.00  0.00     0.007 A 
HETATM   20  C   UNL     1       8.015  23.287  53.728  1.00  0.00    -0.062 A 
HETATM   21  C   UNL     1       9.144  22.417  54.197  1.00  0.00     0.048 C 
HETATM   22  C   UNL     1       6.936  23.549  54.579  1.00  0.00     0.007 A 
HETATM   23  C   UNL     1       5.894  24.382  54.164  1.00  0.00     0.010 A 
ENDBRANCH  16  17
ENDBRANCH  15  16
ENDBRANCH  12  15
ENDBRANCH   7   9
ENDBRANCH   5   7
BRANCH   4  24
HETATM   24  O   UNL     1      10.367  29.940  56.610  1.00  0.00    -0.355 OA
HETATM   25  H   UNL     1       9.861  29.392  55.974  1.00  0.00     0.218 HD
ENDBRANCH   4  24
BRANCH   6  26
HETATM   26  C   UNL     1       6.414  31.313  58.578  1.00  0.00    -0.030 A 
HETATM   27  C   UNL     1       6.171  31.483  57.202  1.00  0.00     0.012 A 
HETATM   28  C   UNL     1       5.041  32.169  56.750  1.00  0.00     0.037 A 
HETATM   29  C   UNL     1       4.147  32.695  57.673  1.00  0.00     0.065 A 
HETATM   30  C   UNL     1       4.370  32.553  59.036  1.00  0.00     0.037 A 
HETATM   31  C   UNL     1       5.502  31.873  59.489  1.00  0.00     0.012 A 
BRANCH  29  32
HETATM   32  O   UNL     1       3.032  33.371  57.281  1.00  0.00    -0.361 OA
HETATM   33  H   UNL     1       3.280  34.277  57.032  1.00  0.00     0.217 HD
ENDBRANCH  29  32
ENDBRANCH   6  26
BRANCH   1  34
HETATM   34  C   UNL     1       8.623  32.451  60.481  1.00  0.00     0.129 C 
BRANCH  34  35
HETATM   35  C   UNL     1       8.782  31.937  61.913  1.00  0.00     0.048 C 
BRANCH  35  36
HETATM   36  C   UNL     1       7.438  31.601  62.553  1.00  0.00     0.236 C 
BRANCH  36  37
HETATM   37  N   UNL     1       6.817  32.796  63.269  1.00  0.00    -0.072 N 
HETATM   38  H   UNL     1       6.772  33.551  62.572  1.00  0.00     0.279 HD
BRANCH  37  39
HETATM   39  C   UNL     1       7.701  33.320  64.395  1.00  0.00     0.230 C 
HETATM   40  C   UNL     1       6.872  33.743  65.595  1.00  0.00     0.034 C 
ENDBRANCH  37  39
BRANCH  37  41
HETATM   41  C   UNL     1       5.379  32.621  63.737  1.00  0.00     0.230 C 
HETATM   42  C   UNL     1       4.373  33.258  62.796  1.00  0.00     0.034 C 
ENDBRANCH  37  41
ENDBRANCH  36  37
ENDBRANCH  35  36
ENDBRANCH  34  35
ENDBRANCH   1  34
TORSDOF 14
ENDMDL
MODEL 5
REMARK VINA RESULT:      -9.2      2.409      5.171
REMARK  14 active torsions:
REMARK  status: ('A' for Active; 'I' for Inactive)
REMARK    1  A    between atoms: C_2  and  N_3 
REMARK    2  A    between atoms: N_3  and  C_5 
REMARK    3  A    between atoms: N_3  and  C_39 
REMARK    4  A    between atoms: C_5  and  C_6 
REMARK    5  A    between atoms: C_6  and  C_7 
REMARK    6  A    between atoms: C_7  and  N_8 
REMARK    7  A    between atoms: C_11  and  O_12 
REMARK    8  A    between atoms: C_13  and  C_14 
REMARK    9  A    between atoms: C_14  and  C_15 
REMARK   10  A    between atoms: C_18  and  O_19 
REMARK   11  A    between atoms: O_19  and  C_20 
REMARK   12  A    between atoms: C_20  and  C_21 
REMARK   13  A    between atoms: C_31  and  C_32 
REMARK   14  A    between atoms: C_35  and  O_36 
ROOT
HETATM    1  N   UNL     1       5.856  26.567  53.583  1.00  0.00    -0.333 N 
HETATM    2  C   UNL     1       6.615  27.620  53.108  1.00  0.00     0.278 C 
HETATM    3  O   UNL     1       6.480  28.247  52.074  1.00  0.00    -0.265 OA
HETATM    4  C   UNL     1       7.607  27.956  54.153  1.00  0.00     0.146 C 
HETATM    5  C   UNL     1       7.435  27.084  55.153  1.00  0.00     0.059 C 
HETATM    6  C   UNL     1       6.472  25.993  54.774  1.00  0.00     0.161 C 
ENDROOT
BRANCH   5   7
HETATM    7  C   UNL     1       7.966  27.074  56.535  1.00  0.00     0.193 C 
HETATM    8  O   UNL     1       8.035  26.003  57.137  1.00  0.00    -0.287 OA
BRANCH   7   9
HETATM    9  C   UNL     1       8.280  28.318  57.280  1.00  0.00     0.015 A 
HETATM   10  C   UNL     1       9.553  28.898  57.279  1.00  0.00     0.018 A 
HETATM   11  C   UNL     1       9.778  30.125  57.917  1.00  0.00     0.038 A 
HETATM   12  C   UNL     1       8.722  30.809  58.519  1.00  0.00     0.069 A 
HETATM   13  C   UNL     1       7.446  30.241  58.500  1.00  0.00     0.038 A 
HETATM   14  C   UNL     1       7.222  29.005  57.884  1.00  0.00     0.018 A 
BRANCH  12  15
HETATM   15  O   UNL     1       8.796  32.033  59.123  1.00  0.00    -0.347 OA
BRANCH  15  16
HETATM   16  C   UNL     1       9.388  32.089  60.420  1.00  0.00     0.214 C 
BRANCH  16  17
HETATM   17  C   UNL     1       8.319  32.365  61.449  1.00  0.00    -0.034 A 
HETATM   18  C   UNL     1       8.591  32.255  62.819  1.00  0.00     0.010 A 
HETATM   19  C   UNL     1       7.614  32.576  63.764  1.00  0.00     0.007 A 
HETATM   20  C   UNL     1       6.348  33.010  63.359  1.00  0.00    -0.062 A 
HETATM   21  C   UNL     1       5.303  33.390  64.365  1.00  0.00     0.048 C 
HETATM   22  C   UNL     1       6.074  33.122  61.991  1.00  0.00     0.007 A 
HETATM   23  C   UNL     1       7.049  32.801  61.046  1.00  0.00     0.010 A 
ENDBRANCH  16  17
ENDBRANCH  15  16
ENDBRANCH  12  15
ENDBRANCH   7   9
ENDBRANCH   5   7
BRANCH   4  24
HETATM   24  O   UNL     1       8.423  29.041  54.070  1.00  0.00    -0.355 OA
HETATM   25  H   UNL     1       8.606  29.176  53.116  1.00  0.00     0.218 HD
ENDBRANCH   4  24
BRANCH   6  26
HETATM   26  C   UNL     1       7.104  24.633  54.523  1.00  0.00    -0.030 A 
HETATM   27  C   UNL     1       6.885  23.589  55.440  1.00  0.00     0.012 A 
HETATM   28  C   UNL     1       7.442  22.324  55.239  1.00  0.00     0.037 A 
HETATM   29  C   UNL     1       8.228  22.095  54.117  1.00  0.00     0.065 A 
HETATM   30  C   UNL     1       8.471  23.111  53.203  1.00  0.00     0.037 A 
HETATM   31  C   UNL     1       7.920  24.378  53.407  1.00  0.00     0.012 A 
BRANCH  29  32
HETATM   32  O   UNL     1       8.792  20.879  53.877  1.00  0.00    -0.361 OA
HETATM   33  H   UNL     1       9.314  20.926  53.059  1.00  0.00     0.217 HD
ENDBRANCH  29  32
ENDBRANCH   6  26
BRANCH   1  34
HETATM   34  C   UNL     1       4.843  25.907  52.772  1.00  0.00     0.129 C 
BRANCH  34  35
HETATM   35  C   UNL     1       5.250  25.669  51.317  1.00  0.00     0.048 C 
BRANCH  35  36
HETATM   36  C   UNL     1       4.366  26.442  50.342  1.00  0.00     0.236 C 
BRANCH  36  37
HETATM   37  N   UNL     1       5.087  26.780  49.041  1.00  0.00    -0.072 N 
HETATM   38  H   UNL     1       6.002  26.312  49.096  1.00  0.00     0.279 HD
BRANCH  37  39
HETATM   39  C   UNL     1       5.389  28.270  48.917  1.00  0.00     0.230 C 
HETATM   40  C   UNL     1       4.224  29.016  48.291  1.00  0.00     0.034 C 
ENDBRANCH  37  39
BRANCH  37  41
HETATM   41  C   UNL     1       4.456  26.239  47.767  1.00  0.00     0.230 C 
HETATM   42  C   UNL     1       3.245  25.365  48.035  1.00  0.00     0.034 C 
ENDBRANCH  37  41
ENDBRANCH  36  37
ENDBRANCH  35  36
ENDBRANCH  34  35
ENDBRANCH   1  34
TORSDOF 14
ENDMDL
MODEL 6
REMARK VINA RESULT:      -9.1      2.831     10.216
REMARK  14 active torsions:
REMARK  status: ('A' for Active; 'I' for Inactive)
REMARK    1  A    between atoms: C_2  and  N_3 
REMARK    2  A    between atoms: N_3  and  C_5 
REMARK    3  A    between atoms: N_3  and  C_39 
REMARK    4  A    between atoms: C_5  and  C_6 
REMARK    5  A    between atoms: C_6  and  C_7 
REMARK    6  A    between atoms: C_7  and  N_8 
REMARK    7  A    between atoms: C_11  and  O_12 
REMARK    8  A    between atoms: C_13  and  C_14 
REMARK    9  A    between atoms: C_14  and  C_15 
REMARK   10  A    between atoms: C_18  and  O_19 
REMARK   11  A    between atoms: O_19  and  C_20 
REMARK   12  A    between atoms: C_20  and  C_21 
REMARK   13  A    between atoms: C_31  and  C_32 
REMARK   14  A    between atoms: C_35  and  O_36 
ROOT
HETATM    1  N   UNL     1       7.634  31.241  59.853  1.00  0.00    -0.333 N 
HETATM    2  C   UNL     1       8.705  32.079  59.608  1.00  0.00     0.278 C 
HETATM    3  O   UNL     1       9.029  33.091  60.201  1.00  0.00    -0.265 OA
HETATM    4  C   UNL     1       9.502  31.471  58.519  1.00  0.00     0.146 C 
HETATM    5  C   UNL     1       8.864  30.357  58.142  1.00  0.00     0.059 C 
HETATM    6  C   UNL     1       7.514  30.246  58.794  1.00  0.00     0.161 C 
ENDROOT
BRANCH   5   7
HETATM    7  C   UNL     1       9.298  29.235  57.278  1.00  0.00     0.193 C 
HETATM    8  O   UNL     1      10.495  29.110  57.022  1.00  0.00    -0.287 OA
BRANCH   7   9
HETATM    9  C   UNL     1       8.337  28.341  56.587  1.00  0.00     0.015 A 
HETATM   10  C   UNL     1       7.920  28.556  55.269  1.00  0.00     0.018 A 
HETATM   11  C   UNL     1       7.087  27.631  54.625  1.00  0.00     0.038 A 
HETATM   12  C   UNL     1       6.704  26.459  55.274  1.00  0.00     0.069 A 
HETATM   13  C   UNL     1       7.138  26.232  56.582  1.00  0.00     0.038 A 
HETATM   14  C   UNL     1       7.951  27.164  57.236  1.00  0.00     0.018 A 
BRANCH  12  15
HETATM   15  O   UNL     1       5.944  25.455  54.741  1.00  0.00    -0.347 OA
BRANCH  15  16
HETATM   16  C   UNL     1       6.420  24.837  53.546  1.00  0.00     0.214 C 
BRANCH  16  17
HETATM   17  C   UNL     1       7.124  23.547  53.893  1.00  0.00    -0.034 A 
HETATM   18  C   UNL     1       7.152  23.073  55.210  1.00  0.00     0.010 A 
HETATM   19  C   UNL     1       7.750  21.846  55.509  1.00  0.00     0.007 A 
HETATM   20  C   UNL     1       8.331  21.072  54.499  1.00  0.00    -0.062 A 
HETATM   21  C   UNL     1       8.945  19.738  54.804  1.00  0.00     0.048 C 
HETATM   22  C   UNL     1       8.303  21.543  53.182  1.00  0.00     0.007 A 
HETATM   23  C   UNL     1       7.707  22.770  52.882  1.00  0.00     0.010 A 
ENDBRANCH  16  17
ENDBRANCH  15  16
ENDBRANCH  12  15
ENDBRANCH   7   9
ENDBRANCH   5   7
BRANCH   4  24
HETATM   24  O   UNL     1      10.706  31.965  58.125  1.00  0.00    -0.355 OA
HETATM   25  H   UNL     1      11.107  32.378  58.918  1.00  0.00     0.218 HD
ENDBRANCH   4  24
BRANCH   6  26
HETATM   26  C   UNL     1       6.330  30.495  57.873  1.00  0.00    -0.030 A 
HETATM   27  C   UNL     1       5.363  29.487  57.703  1.00  0.00     0.012 A 
HETATM   28  C   UNL     1       4.257  29.682  56.871  1.00  0.00     0.037 A 
HETATM   29  C   UNL     1       4.113  30.889  56.200  1.00  0.00     0.065 A 
HETATM   30  C   UNL     1       5.059  31.896  56.340  1.00  0.00     0.037 A 
HETATM   31  C   UNL     1       6.168  31.699  57.165  1.00  0.00     0.012 A 
BRANCH  29  32
HETATM   32  O   UNL     1       3.052  31.127  55.380  1.00  0.00    -0.361 OA
HETATM   33  H   UNL     1       3.263  30.807  54.487  1.00  0.00     0.217 HD
ENDBRANCH  29  32
ENDBRANCH   6  26
BRANCH   1  34
HETATM   34  C   UNL     1       6.580  31.578  60.799  1.00  0.00     0.129 C 
BRANCH  34  35
HETATM   35  C   UNL     1       7.035  31.648  62.258  1.00  0.00     0.048 C 
BRANCH  35  36
HETATM   36  C   UNL     1       6.010  32.351  63.144  1.00  0.00     0.236 C 
BRANCH  36  37
HETATM   37  N   UNL     1       6.405  33.788  63.467  1.00  0.00    -0.072 N 
HETATM   38  H   UNL     1       7.433  33.793  63.521  1.00  0.00     0.279 HD
BRANCH  37  39
HETATM   39  C   UNL     1       5.914  34.229  64.842  1.00  0.00     0.230 C 
HETATM   40  C   UNL     1       6.912  33.864  65.926  1.00  0.00     0.034 C 
ENDBRANCH  37  39
BRANCH  37  41
HETATM   41  C   UNL     1       6.073  34.827  62.406  1.00  0.00     0.230 C 
HETATM   42  C   UNL     1       4.964  35.771  62.833  1.00  0.00     0.034 C 
ENDBRANCH  37  41
ENDBRANCH  36  37
ENDBRANCH  35  36
ENDBRANCH  34  35
ENDBRANCH   1  34
TORSDOF 14
ENDMDL
MODEL 7
REMARK VINA RESULT:      -9.1      3.314     11.106
REMARK  14 active torsions:
REMARK  status: ('A' for Active; 'I' for Inactive)
REMARK    1  A    between atoms: C_2  and  N_3 
REMARK    2  A    between atoms: N_3  and  C_5 
REMARK    3  A    between atoms: N_3  and  C_39 
REMARK    4  A    between atoms: C_5  and  C_6 
REMARK    5  A    between atoms: C_6  and  C_7 
REMARK    6  A    between atoms: C_7  and  N_8 
REMARK    7  A    between atoms: C_11  and  O_12 
REMARK    8  A    between atoms: C_13  and  C_14 
REMARK    9  A    between atoms: C_14  and  C_15 
REMARK   10  A    between atoms: C_18  and  O_19 
REMARK   11  A    between atoms: O_19  and  C_20 
REMARK   12  A    between atoms: C_20  and  C_21 
REMARK   13  A    between atoms: C_31  and  C_32 
REMARK   14  A    between atoms: C_35  and  O_36 
ROOT
HETATM    1  N   UNL     1       7.766  31.550  61.708  1.00  0.00    -0.333 N 
HETATM    2  C   UNL     1       8.903  32.037  61.091  1.00  0.00     0.278 C 
HETATM    3  O   UNL     1       9.959  32.366  61.598  1.00  0.00    -0.265 OA
HETATM    4  C   UNL     1       8.665  31.998  59.631  1.00  0.00     0.146 C 
HETATM    5  C   UNL     1       7.417  31.550  59.449  1.00  0.00     0.059 C 
HETATM    6  C   UNL     1       6.670  31.452  60.750  1.00  0.00     0.161 C 
ENDROOT
BRANCH   5   7
HETATM    7  C   UNL     1       6.720  31.088  58.227  1.00  0.00     0.193 C 
HETATM    8  O   UNL     1       6.113  31.910  57.542  1.00  0.00    -0.287 OA
BRANCH   7   9
HETATM    9  C   UNL     1       6.596  29.653  57.872  1.00  0.00     0.015 A 
HETATM   10  C   UNL     1       5.415  29.100  57.364  1.00  0.00     0.018 A 
HETATM   11  C   UNL     1       5.375  27.762  56.951  1.00  0.00     0.038 A 
HETATM   12  C   UNL     1       6.527  26.978  56.994  1.00  0.00     0.069 A 
HETATM   13  C   UNL     1       7.712  27.535  57.479  1.00  0.00     0.038 A 
HETATM   14  C   UNL     1       7.750  28.864  57.914  1.00  0.00     0.018 A 
BRANCH  12  15
HETATM   15  O   UNL     1       6.634  25.682  56.571  1.00  0.00    -0.347 OA
BRANCH  15  16
HETATM   16  C   UNL     1       7.948  25.135  56.461  1.00  0.00     0.214 C 
BRANCH  16  17
HETATM   17  C   UNL     1       7.921  23.944  55.534  1.00  0.00    -0.034 A 
HETATM   18  C   UNL     1       7.798  24.111  54.149  1.00  0.00     0.010 A 
HETATM   19  C   UNL     1       7.840  23.006  53.294  1.00  0.00     0.007 A 
HETATM   20  C   UNL     1       8.003  21.715  53.809  1.00  0.00    -0.062 A 
HETATM   21  C   UNL     1       8.083  20.526  52.899  1.00  0.00     0.048 C 
HETATM   22  C   UNL     1       8.126  21.546  55.192  1.00  0.00     0.007 A 
HETATM   23  C   UNL     1       8.083  22.650  56.047  1.00  0.00     0.010 A 
ENDBRANCH  16  17
ENDBRANCH  15  16
ENDBRANCH  12  15
ENDBRANCH   7   9
ENDBRANCH   5   7
BRANCH   4  24
HETATM   24  O   UNL     1       9.636  32.274  58.720  1.00  0.00    -0.355 OA
HETATM   25  H   UNL     1      10.480  31.970  59.117  1.00  0.00     0.218 HD
ENDBRANCH   4  24
BRANCH   6  26
HETATM   26  C   UNL     1       5.598  32.511  60.960  1.00  0.00    -0.030 A 
HETATM   27  C   UNL     1       4.420  32.173  61.650  1.00  0.00     0.012 A 
HETATM   28  C   UNL     1       3.416  33.120  61.869  1.00  0.00     0.037 A 
HETATM   29  C   UNL     1       3.585  34.414  61.395  1.00  0.00     0.065 A 
HETATM   30  C   UNL     1       4.732  34.771  60.700  1.00  0.00     0.037 A 
HETATM   31  C   UNL     1       5.733  33.823  60.474  1.00  0.00     0.012 A 
BRANCH  29  32
HETATM   32  O   UNL     1       2.636  35.373  61.584  1.00  0.00    -0.361 OA
HETATM   33  H   UNL     1       3.065  36.244  61.616  1.00  0.00     0.217 HD
ENDBRANCH  29  32
ENDBRANCH   6  26
BRANCH   1  34
HETATM   34  C   UNL     1       7.607  31.538  63.155  1.00  0.00     0.129 C 
BRANCH  34  35
HETATM   35  C   UNL     1       7.833  32.893  63.830  1.00  0.00     0.048 C 
BRANCH  35  36
HETATM   36  C   UNL     1       6.883  33.113  65.004  1.00  0.00     0.236 C 
BRANCH  36  37
HETATM   37  N   UNL     1       5.642  33.907  64.610  1.00  0.00    -0.072 N 
HETATM   38  H   UNL     1       5.215  33.394  63.826  1.00  0.00     0.279 HD
BRANCH  37  39
HETATM   39  C   UNL     1       5.987  35.289  64.065  1.00  0.00     0.230 C 
HETATM   40  C   UNL     1       4.823  36.250  64.227  1.00  0.00     0.034 C 
ENDBRANCH  37  39
BRANCH  37  41
HETATM   41  C   UNL     1       4.540  33.989  65.657  1.00  0.00     0.230 C 
HETATM   42  C   UNL     1       5.080  34.095  67.072  1.00  0.00     0.034 C 
ENDBRANCH  37  41
ENDBRANCH  36  37
ENDBRANCH  35  36
ENDBRANCH  34  35
ENDBRANCH   1  34
TORSDOF 14
ENDMDL
MODEL 8
REMARK VINA RESULT:      -9.1      4.487      8.650
REMARK  14 active torsions:
REMARK  status: ('A' for Active; 'I' for Inactive)
REMARK    1  A    between atoms: C_2  and  N_3 
REMARK    2  A    between atoms: N_3  and  C_5 
REMARK    3  A    between atoms: N_3  and  C_39 
REMARK    4  A    between atoms: C_5  and  C_6 
REMARK    5  A    between atoms: C_6  and  C_7 
REMARK    6  A    between atoms: C_7  and  N_8 
REMARK    7  A    between atoms: C_11  and  O_12 
REMARK    8  A    between atoms: C_13  and  C_14 
REMARK    9  A    between atoms: C_14  and  C_15 
REMARK   10  A    between atoms: C_18  and  O_19 
REMARK   11  A    between atoms: O_19  and  C_20 
REMARK   12  A    between atoms: C_20  and  C_21 
REMARK   13  A    between atoms: C_31  and  C_32 
REMARK   14  A    between atoms: C_35  and  O_36 
ROOT
HETATM    1  N   UNL     1       3.553  29.347  53.328  1.00  0.00    -0.333 N 
HETATM    2  C   UNL     1       3.984  30.648  53.507  1.00  0.00     0.278 C 
HETATM    3  O   UNL     1       3.789  31.617  52.797  1.00  0.00    -0.265 OA
HETATM    4  C   UNL     1       4.669  30.710  54.817  1.00  0.00     0.146 C 
HETATM    5  C   UNL     1       4.660  29.472  55.324  1.00  0.00     0.059 C 
HETATM    6  C   UNL     1       4.161  28.469  54.321  1.00  0.00     0.161 C 
ENDROOT
BRANCH   5   7
HETATM    7  C   UNL     1       4.982  28.976  56.681  1.00  0.00     0.193 C 
HETATM    8  O   UNL     1       4.556  29.594  57.656  1.00  0.00    -0.287 OA
BRANCH   7   9
HETATM    9  C   UNL     1       5.919  27.851  56.920  1.00  0.00     0.015 A 
HETATM   10  C   UNL     1       5.492  26.525  57.041  1.00  0.00     0.018 A 
HETATM   11  C   UNL     1       6.422  25.485  57.168  1.00  0.00     0.038 A 
HETATM   12  C   UNL     1       7.789  25.755  57.125  1.00  0.00     0.069 A 
HETATM   13  C   UNL     1       8.217  27.077  56.980  1.00  0.00     0.038 A 
HETATM   14  C   UNL     1       7.291  28.120  56.876  1.00  0.00     0.018 A 
BRANCH  12  15
HETATM   15  O   UNL     1       8.795  24.830  57.181  1.00  0.00    -0.347 OA
BRANCH  15  16
HETATM   16  C   UNL     1       8.438  23.494  57.533  1.00  0.00     0.214 C 
BRANCH  16  17
HETATM   17  C   UNL     1       8.493  22.619  56.305  1.00  0.00    -0.034 A 
HETATM   18  C   UNL     1       8.385  21.226  56.406  1.00  0.00     0.010 A 
HETATM   19  C   UNL     1       8.371  20.430  55.258  1.00  0.00     0.007 A 
HETATM   20  C   UNL     1       8.467  21.011  53.989  1.00  0.00    -0.062 A 
HETATM   21  C   UNL     1       8.419  20.168  52.750  1.00  0.00     0.048 C 
HETATM   22  C   UNL     1       8.574  22.402  53.885  1.00  0.00     0.007 A 
HETATM   23  C   UNL     1       8.589  23.198  55.032  1.00  0.00     0.010 A 
ENDBRANCH  16  17
ENDBRANCH  15  16
ENDBRANCH  12  15
ENDBRANCH   7   9
ENDBRANCH   5   7
BRANCH   4  24
HETATM   24  O   UNL     1       5.092  31.878  55.370  1.00  0.00    -0.355 OA
HETATM   25  H   UNL     1       5.100  32.539  54.646  1.00  0.00     0.218 HD
ENDBRANCH   4  24
BRANCH   6  26
HETATM   26  C   UNL     1       5.227  27.555  53.736  1.00  0.00    -0.030 A 
HETATM   27  C   UNL     1       4.906  26.217  53.444  1.00  0.00     0.012 A 
HETATM   28  C   UNL     1       5.856  25.350  52.899  1.00  0.00     0.037 A 
HETATM   29  C   UNL     1       7.139  25.817  52.644  1.00  0.00     0.065 A 
HETATM   30  C   UNL     1       7.487  27.129  52.935  1.00  0.00     0.037 A 
HETATM   31  C   UNL     1       6.539  27.995  53.487  1.00  0.00     0.012 A 
BRANCH  29  32
HETATM   32  O   UNL     1       8.099  25.011  52.113  1.00  0.00    -0.361 OA
HETATM   33  H   UNL     1       8.051  24.137  52.535  1.00  0.00     0.217 HD
ENDBRANCH  29  32
ENDBRANCH   6  26
BRANCH   1  34
HETATM   34  C   UNL     1       2.923  28.896  52.095  1.00  0.00     0.129 C 
BRANCH  34  35
HETATM   35  C   UNL     1       3.851  28.876  50.879  1.00  0.00     0.048 C 
BRANCH  35  36
HETATM   36  C   UNL     1       3.079  29.002  49.568  1.00  0.00     0.236 C 
BRANCH  36  37
HETATM   37  N   UNL     1       3.587  28.043  48.496  1.00  0.00    -0.072 N 
HETATM   38  H   UNL     1       2.814  27.934  47.826  1.00  0.00     0.279 HD
BRANCH  37  39
HETATM   39  C   UNL     1       3.860  26.648  49.049  1.00  0.00     0.230 C 
HETATM   40  C   UNL     1       3.380  25.573  48.091  1.00  0.00     0.034 C 
ENDBRANCH  37  39
BRANCH  37  41
HETATM   41  C   UNL     1       4.755  28.539  47.656  1.00  0.00     0.230 C 
HETATM   42  C   UNL     1       4.539  29.942  47.119  1.00  0.00     0.034 C 
ENDBRANCH  37  41
ENDBRANCH  36  37
ENDBRANCH  35  36
ENDBRANCH  34  35
ENDBRANCH   1  34
TORSDOF 14
ENDMDL
MODEL 9
REMARK VINA RESULT:      -8.8      4.148     11.537
REMARK  14 active torsions:
REMARK  status: ('A' for Active; 'I' for Inactive)
REMARK    1  A    between atoms: C_2  and  N_3 
REMARK    2  A    between atoms: N_3  and  C_5 
REMARK    3  A    between atoms: N_3  and  C_39 
REMARK    4  A    between atoms: C_5  and  C_6 
REMARK    5  A    between atoms: C_6  and  C_7 
REMARK    6  A    between atoms: C_7  and  N_8 
REMARK    7  A    between atoms: C_11  and  O_12 
REMARK    8  A    between atoms: C_13  and  C_14 
REMARK    9  A    between atoms: C_14  and  C_15 
REMARK   10  A    between atoms: C_18  and  O_19 
REMARK   11  A    between atoms: O_19  and  C_20 
REMARK   12  A    between atoms: C_20  and  C_21 
REMARK   13  A    between atoms: C_31  and  C_32 
REMARK   14  A    between atoms: C_35  and  O_36 
ROOT
HETATM    1  N   UNL     1       5.255  33.623  61.732  1.00  0.00    -0.333 N 
HETATM    2  C   UNL     1       4.023  32.996  61.736  1.00  0.00     0.278 C 
HETATM    3  O   UNL     1       3.139  33.064  62.569  1.00  0.00    -0.265 OA
HETATM    4  C   UNL     1       3.894  32.270  60.453  1.00  0.00     0.146 C 
HETATM    5  C   UNL     1       5.038  32.451  59.782  1.00  0.00     0.059 C 
HETATM    6  C   UNL     1       6.077  33.125  60.635  1.00  0.00     0.161 C 
ENDROOT
BRANCH   5   7
HETATM    7  C   UNL     1       5.393  32.167  58.373  1.00  0.00     0.193 C 
HETATM    8  O   UNL     1       5.424  33.098  57.569  1.00  0.00    -0.287 OA
BRANCH   7   9
HETATM    9  C   UNL     1       5.567  30.788  57.855  1.00  0.00     0.015 A 
HETATM   10  C   UNL     1       4.579  30.127  57.117  1.00  0.00     0.018 A 
HETATM   11  C   UNL     1       4.827  28.864  56.565  1.00  0.00     0.038 A 
HETATM   12  C   UNL     1       6.081  28.270  56.703  1.00  0.00     0.069 A 
HETATM   13  C   UNL     1       7.075  28.938  57.419  1.00  0.00     0.038 A 
HETATM   14  C   UNL     1       6.825  30.190  57.991  1.00  0.00     0.018 A 
BRANCH  12  15
HETATM   15  O   UNL     1       6.467  27.072  56.168  1.00  0.00    -0.347 OA
BRANCH  15  16
HETATM   16  C   UNL     1       6.841  27.059  54.791  1.00  0.00     0.214 C 
BRANCH  16  17
HETATM   17  C   UNL     1       7.190  25.650  54.378  1.00  0.00    -0.034 A 
HETATM   18  C   UNL     1       6.962  24.568  55.239  1.00  0.00     0.010 A 
HETATM   19  C   UNL     1       7.228  23.262  54.822  1.00  0.00     0.007 A 
HETATM   20  C   UNL     1       7.728  23.012  53.540  1.00  0.00    -0.062 A 
HETATM   21  C   UNL     1       7.985  21.611  53.071  1.00  0.00     0.048 C 
HETATM   22  C   UNL     1       7.956  24.090  52.678  1.00  0.00     0.007 A 
HETATM   23  C   UNL     1       7.691  25.397  53.094  1.00  0.00     0.010 A 
ENDBRANCH  16  17
ENDBRANCH  15  16
ENDBRANCH  12  15
ENDBRANCH   7   9
ENDBRANCH   5   7
BRANCH   4  24
HETATM   24  O   UNL     1       2.741  31.660  60.066  1.00  0.00    -0.355 OA
HETATM   25  H   UNL     1       2.958  31.150  59.257  1.00  0.00     0.218 HD
ENDBRANCH   4  24
BRANCH   6  26
HETATM   26  C   UNL     1       7.212  32.226  61.100  1.00  0.00    -0.030 A 
HETATM   27  C   UNL     1       7.023  31.402  62.225  1.00  0.00     0.012 A 
HETATM   28  C   UNL     1       8.040  30.556  62.677  1.00  0.00     0.037 A 
HETATM   29  C   UNL     1       9.256  30.532  62.007  1.00  0.00     0.065 A 
HETATM   30  C   UNL     1       9.473  31.345  60.903  1.00  0.00     0.037 A 
HETATM   31  C   UNL     1       8.460  32.196  60.454  1.00  0.00     0.012 A 
BRANCH  29  32
HETATM   32  O   UNL     1      10.276  29.725  62.409  1.00  0.00    -0.361 OA
HETATM   33  H   UNL     1      10.657  30.079  63.230  1.00  0.00     0.217 HD
ENDBRANCH  29  32
ENDBRANCH   6  26
BRANCH   1  34
HETATM   34  C   UNL     1       5.764  34.350  62.886  1.00  0.00     0.129 C 
BRANCH  34  35
HETATM   35  C   UNL     1       5.795  35.870  62.716  1.00  0.00     0.048 C 
BRANCH  35  36
HETATM   36  C   UNL     1       4.420  36.499  62.929  1.00  0.00     0.236 C 
BRANCH  36  37
HETATM   37  N   UNL     1       4.040  37.464  61.812  1.00  0.00    -0.072 N 
HETATM   38  H   UNL     1       3.023  37.598  61.888  1.00  0.00     0.279 HD
BRANCH  37  39
HETATM   39  C   UNL     1       4.279  36.871  60.427  1.00  0.00     0.230 C 
HETATM   40  C   UNL     1       3.072  36.085  59.949  1.00  0.00     0.034 C 
ENDBRANCH  37  39
BRANCH  37  41
HETATM   41  C   UNL     1       4.620  38.868  61.916  1.00  0.00     0.230 C 
HETATM   42  C   UNL     1       5.668  39.152  60.857  1.00  0.00     0.034 C 
ENDBRANCH  37  41
ENDBRANCH  36  37
ENDBRANCH  35  36
ENDBRANCH  34  35
ENDBRANCH   1  34
TORSDOF 14
ENDMDL
MODEL 10
REMARK VINA RESULT:      -8.4      3.914     10.463
REMARK  14 active torsions:
REMARK  status: ('A' for Active; 'I' for Inactive)
REMARK    1  A    between atoms: C_2  and  N_3 
REMARK    2  A    between atoms: N_3  and  C_5 
REMARK    3  A    between atoms: N_3  and  C_39 
REMARK    4  A    between atoms: C_5  and  C_6 
REMARK    5  A    between atoms: C_6  and  C_7 
REMARK    6  A    between atoms: C_7  and  N_8 
REMARK    7  A    between atoms: C_11  and  O_12 
REMARK    8  A    between atoms: C_13  and  C_14 
REMARK    9  A    between atoms: C_14  and  C_15 
REMARK   10  A    between atoms: C_18  and  O_19 
REMARK   11  A    between atoms: O_19  and  C_20 
REMARK   12  A    between atoms: C_20  and  C_21 
REMARK   13  A    between atoms: C_31  and  C_32 
REMARK   14  A    between atoms: C_35  and  O_36 
ROOT
HETATM    1  N   UNL     1       6.433  32.436  62.324  1.00  0.00    -0.333 N 
HETATM    2  C   UNL     1       5.298  31.696  62.594  1.00  0.00     0.278 C 
HETATM    3  O   UNL     1       4.998  31.113  63.619  1.00  0.00    -0.265 OA
HETATM    4  C   UNL     1       4.406  31.812  61.419  1.00  0.00     0.146 C 
HETATM    5  C   UNL     1       5.049  32.553  60.509  1.00  0.00     0.059 C 
HETATM    6  C   UNL     1       6.474  32.811  60.915  1.00  0.00     0.161 C 
ENDROOT
BRANCH   5   7
HETATM    7  C   UNL     1       4.571  33.187  59.260  1.00  0.00     0.193 C 
HETATM    8  O   UNL     1       4.229  34.368  59.286  1.00  0.00    -0.287 OA
BRANCH   7   9
HETATM    9  C   UNL     1       4.344  32.420  58.010  1.00  0.00     0.015 A 
HETATM   10  C   UNL     1       5.004  32.716  56.812  1.00  0.00     0.018 A 
HETATM   11  C   UNL     1       4.831  31.904  55.684  1.00  0.00     0.038 A 
HETATM   12  C   UNL     1       4.038  30.759  55.756  1.00  0.00     0.069 A 
HETATM   13  C   UNL     1       3.397  30.450  56.958  1.00  0.00     0.038 A 
HETATM   14  C   UNL     1       3.548  31.271  58.080  1.00  0.00     0.018 A 
BRANCH  12  15
HETATM   15  O   UNL     1       3.833  29.857  54.749  1.00  0.00    -0.347 OA
BRANCH  15  16
HETATM   16  C   UNL     1       4.984  29.371  54.061  1.00  0.00     0.214 C 
BRANCH  16  17
HETATM   17  C   UNL     1       5.731  28.406  54.950  1.00  0.00    -0.034 A 
HETATM   18  C   UNL     1       7.084  28.606  55.255  1.00  0.00     0.010 A 
HETATM   19  C   UNL     1       7.748  27.744  56.131  1.00  0.00     0.007 A 
HETATM   20  C   UNL     1       7.074  26.666  56.716  1.00  0.00    -0.062 A 
HETATM   21  C   UNL     1       7.769  25.756  57.684  1.00  0.00     0.048 C 
HETATM   22  C   UNL     1       5.723  26.465  56.414  1.00  0.00     0.007 A 
HETATM   23  C   UNL     1       5.059  27.325  55.537  1.00  0.00     0.010 A 
ENDBRANCH  16  17
ENDBRANCH  15  16
ENDBRANCH  12  15
ENDBRANCH   7   9
ENDBRANCH   5   7
BRANCH   4  24
HETATM   24  O   UNL     1       3.137  31.320  61.408  1.00  0.00    -0.355 OA
HETATM   25  H   UNL     1       2.630  31.882  60.786  1.00  0.00     0.218 HD
ENDBRANCH   4  24
BRANCH   6  26
HETATM   26  C   UNL     1       7.519  32.042  60.123  1.00  0.00    -0.030 A 
HETATM   27  C   UNL     1       8.843  32.519  60.081  1.00  0.00     0.012 A 
HETATM   28  C   UNL     1       9.833  31.836  59.371  1.00  0.00     0.037 A 
HETATM   29  C   UNL     1       9.504  30.670  58.693  1.00  0.00     0.065 A 
HETATM   30  C   UNL     1       8.204  30.184  58.706  1.00  0.00     0.037 A 
HETATM   31  C   UNL     1       7.212  30.871  59.410  1.00  0.00     0.012 A 
BRANCH  29  32
HETATM   32  O   UNL     1      10.435  29.968  57.988  1.00  0.00    -0.361 OA
HETATM   33  H   UNL     1      11.000  30.590  57.500  1.00  0.00     0.217 HD
ENDBRANCH  29  32
ENDBRANCH   6  26
BRANCH   1  34
HETATM   34  C   UNL     1       7.578  32.467  63.224  1.00  0.00     0.129 C 
BRANCH  34  35
HETATM   35  C   UNL     1       7.339  33.228  64.529  1.00  0.00     0.048 C 
BRANCH  35  36
HETATM   36  C   UNL     1       6.569  34.527  64.302  1.00  0.00     0.236 C 
BRANCH  36  37
HETATM   37  N   UNL     1       5.157  34.476  64.875  1.00  0.00    -0.072 N 
HETATM   38  H   UNL     1       4.954  33.481  65.039  1.00  0.00     0.279 HD
BRANCH  37  39
HETATM   39  C   UNL     1       4.109  34.956  63.877  1.00  0.00     0.230 C 
HETATM   40  C   UNL     1       4.756  35.633  62.682  1.00  0.00     0.034 C 
ENDBRANCH  37  39
BRANCH  37  41
HETATM   41  C   UNL     1       4.964  35.134  66.234  1.00  0.00     0.230 C 
HETATM   42  C   UNL     1       4.713  34.130  67.344  1.00  0.00     0.034 C 
ENDBRANCH  37  41
ENDBRANCH  36  37
ENDBRANCH  35  36
ENDBRANCH  34  35
ENDBRANCH   1  34
TORSDOF 14
ENDMDL
