MODEL 1
REMARK VINA RESULT:     -10.9      0.000      0.000
REMARK  6 active torsions:
REMARK  status: ('A' for Active; 'I' for Inactive)
REMARK    1  A    between atoms: C_9  and  C_10 
REMARK       I    between atoms: C_10  and  N_11 
REMARK    2  A    between atoms: N_11  and  N_12 
REMARK       I    between atoms: N_12  and  C_13 
REMARK       I    between atoms: C_13  and  N_14 
REMARK    3  A    between atoms: N_14  and  C_15 
REMARK    4  A    between atoms: C_15  and  C_16 
REMARK    5  A    between atoms: C_16  and  C_17 
REMARK    6  A    between atoms: C_16  and  C_27 
ROOT
HETATM    1  N   UNL     1       5.965  30.403  57.288  1.00  0.00    -0.249 N 
HETATM    2  C   UNL     1       7.079  29.729  56.845  1.00  0.00     0.334 C 
HETATM    3  N   UNL     1       6.996  29.422  55.509  1.00  0.00    -0.341 N 
HETATM    4  O   UNL     1       8.016  29.421  57.573  1.00  0.00    -0.246 OA
HETATM    5  H   UNL     1       5.376  30.918  56.641  1.00  0.00     0.192 HD
HETATM    6  H   UNL     1       6.049  29.298  55.175  1.00  0.00     0.164 HD
ENDROOT
BRANCH   1   7
HETATM    7  N   UNL     1       5.921  30.802  58.632  1.00  0.00    -0.261 N 
HETATM    8  C   UNL     1       5.795  32.153  58.896  1.00  0.00     0.291 C 
HETATM    9  O   UNL     1       5.983  33.043  58.079  1.00  0.00    -0.264 OA
HETATM   10  H   UNL     1       5.477  30.144  59.281  1.00  0.00     0.190 HD
BRANCH   8  11
HETATM   11  C   UNL     1       5.343  32.445  60.330  1.00  0.00     0.157 A 
HETATM   12  C   UNL     1       6.308  32.501  61.453  1.00  0.00     0.016 A 
HETATM   13  C   UNL     1       7.674  32.222  61.332  1.00  0.00     0.015 A 
HETATM   14  C   UNL     1       5.798  32.850  62.705  1.00  0.00     0.046 A 
HETATM   15  C   UNL     1       8.516  32.324  62.446  1.00  0.00     0.001 A 
HETATM   16  C   UNL     1       8.002  32.694  63.686  1.00  0.00     0.001 A 
HETATM   17  C   UNL     1       6.640  32.952  63.820  1.00  0.00     0.018 A 
HETATM   18  C   UNL     1       4.354  33.095  62.855  1.00  0.00     0.272 A 
HETATM   19  O   UNL     1       3.864  33.404  63.936  1.00  0.00    -0.266 OA
HETATM   20  N   UNL     1       3.594  32.944  61.721  1.00  0.00    -0.242 N 
HETATM   21  N   UNL     1       4.062  32.647  60.479  1.00  0.00    -0.166 NA
HETATM   22  H   UNL     1       2.596  33.114  61.808  1.00  0.00     0.192 HD
ENDBRANCH   8  11
ENDBRANCH   1   7
BRANCH   3  23
HETATM   23  C   UNL     1       8.005  28.555  54.909  1.00  0.00     0.139 C 
BRANCH  23  24
HETATM   24  C   UNL     1       7.409  27.390  54.085  1.00  0.00     0.079 C 
BRANCH  24  25
HETATM   25  C   UNL     1       7.403  26.095  54.868  1.00  0.00    -0.020 A 
HETATM   26  C   UNL     1       7.545  24.771  54.327  1.00  0.00    -0.001 A 
HETATM   27  C   UNL     1       7.488  23.872  55.393  1.00  0.00     0.042 A 
HETATM   28  C   UNL     1       7.717  24.251  53.026  1.00  0.00     0.014 A 
HETATM   29  C   UNL     1       7.598  22.486  55.226  1.00  0.00     0.030 A 
HETATM   30  N   UNL     1       7.312  24.611  56.538  1.00  0.00    -0.365 N 
HETATM   31  C   UNL     1       7.771  22.000  53.928  1.00  0.00     0.002 A 
HETATM   32  C   UNL     1       7.830  22.868  52.841  1.00  0.00     0.001 A 
HETATM   33  H   UNL     1       7.232  24.218  57.465  1.00  0.00     0.165 HD
HETATM   34  C   UNL     1       7.265  25.944  56.238  1.00  0.00     0.097 A 
ENDBRANCH  24  25
BRANCH  24  35
HETATM   35  C   UNL     1       6.017  27.720  53.563  1.00  0.00    -0.007 A 
HETATM   36  S   UNL     1       5.843  28.572  52.081  1.00  0.00    -0.106 SA
HETATM   37  C   UNL     1       4.139  28.555  52.191  1.00  0.00     0.050 A 
HETATM   38  C   UNL     1       3.700  27.922  53.331  1.00  0.00     0.008 A 
HETATM   39  C   UNL     1       4.782  27.438  54.121  1.00  0.00     0.016 A 
ENDBRANCH  24  35
ENDBRANCH  23  24
ENDBRANCH   3  23
TORSDOF 6
ENDMDL
MODEL 2
REMARK VINA RESULT:     -10.7      6.103     10.392
REMARK  6 active torsions:
REMARK  status: ('A' for Active; 'I' for Inactive)
REMARK    1  A    between atoms: C_9  and  C_10 
REMARK       I    between atoms: C_10  and  N_11 
REMARK    2  A    between atoms: N_11  and  N_12 
REMARK       I    between atoms: N_12  and  C_13 
REMARK       I    between atoms: C_13  and  N_14 
REMARK    3  A    between atoms: N_14  and  C_15 
REMARK    4  A    between atoms: C_15  and  C_16 
REMARK    5  A    between atoms: C_16  and  C_17 
REMARK    6  A    between atoms: C_16  and  C_27 
ROOT
HETATM    1  N   UNL     1       5.336  25.972  50.224  1.00  0.00    -0.249 N 
HETATM    2  C   UNL     1       6.008  26.402  51.345  1.00  0.00     0.334 C 
HETATM    3  N   UNL     1       6.923  25.476  51.782  1.00  0.00    -0.341 N 
HETATM    4  O   UNL     1       5.787  27.475  51.895  1.00  0.00    -0.246 OA
HETATM    5  H   UNL     1       5.738  25.266  49.615  1.00  0.00     0.192 HD
HETATM    6  H   UNL     1       6.676  24.520  51.562  1.00  0.00     0.164 HD
ENDROOT
BRANCH   1   7
HETATM    7  N   UNL     1       4.383  26.827  49.652  1.00  0.00    -0.261 N 
HETATM    8  C   UNL     1       4.263  26.824  48.275  1.00  0.00     0.291 C 
HETATM    9  O   UNL     1       5.083  26.345  47.505  1.00  0.00    -0.264 OA
HETATM   10  H   UNL     1       3.536  26.990  50.206  1.00  0.00     0.190 HD
BRANCH   8  11
HETATM   11  C   UNL     1       2.953  27.450  47.785  1.00  0.00     0.157 A 
HETATM   12  C   UNL     1       2.912  28.816  47.214  1.00  0.00     0.016 A 
HETATM   13  C   UNL     1       4.015  29.673  47.141  1.00  0.00     0.015 A 
HETATM   14  C   UNL     1       1.679  29.258  46.728  1.00  0.00     0.046 A 
HETATM   15  C   UNL     1       3.886  30.941  46.561  1.00  0.00     0.001 A 
HETATM   16  C   UNL     1       2.658  31.365  46.060  1.00  0.00     0.001 A 
HETATM   17  C   UNL     1       1.550  30.527  46.148  1.00  0.00     0.018 A 
HETATM   18  C   UNL     1       0.499  28.385  46.846  1.00  0.00     0.272 A 
HETATM   19  O   UNL     1      -0.601  28.733  46.433  1.00  0.00    -0.266 OA
HETATM   20  N   UNL     1       0.705  27.171  47.455  1.00  0.00    -0.242 N 
HETATM   21  N   UNL     1       1.897  26.691  47.900  1.00  0.00    -0.166 NA
HETATM   22  H   UNL     1      -0.099  26.555  47.540  1.00  0.00     0.192 HD
ENDBRANCH   8  11
ENDBRANCH   1   7
BRANCH   3  23
HETATM   23  C   UNL     1       7.600  25.685  53.057  1.00  0.00     0.139 C 
BRANCH  23  24
HETATM   24  C   UNL     1       6.800  25.166  54.275  1.00  0.00     0.079 C 
BRANCH  24  25
HETATM   25  C   UNL     1       7.528  24.048  54.989  1.00  0.00    -0.020 A 
HETATM   26  C   UNL     1       7.854  22.759  54.445  1.00  0.00    -0.001 A 
HETATM   27  C   UNL     1       8.527  22.042  55.435  1.00  0.00     0.042 A 
HETATM   28  C   UNL     1       7.640  22.132  53.199  1.00  0.00     0.014 A 
HETATM   29  C   UNL     1       8.997  20.736  55.244  1.00  0.00     0.030 A 
HETATM   30  N   UNL     1       8.604  22.852  56.542  1.00  0.00    -0.365 N 
HETATM   31  C   UNL     1       8.774  20.143  53.999  1.00  0.00     0.002 A 
HETATM   32  C   UNL     1       8.105  20.829  52.989  1.00  0.00     0.001 A 
HETATM   33  H   UNL     1       9.037  22.588  57.415  1.00  0.00     0.165 HD
HETATM   34  C   UNL     1       8.015  24.060  56.286  1.00  0.00     0.097 A 
ENDBRANCH  24  25
BRANCH  24  35
HETATM   35  C   UNL     1       6.444  26.290  55.238  1.00  0.00    -0.007 A 
HETATM   36  S   UNL     1       7.412  27.709  55.287  1.00  0.00    -0.106 SA
HETATM   37  C   UNL     1       6.446  28.410  56.508  1.00  0.00     0.050 A 
HETATM   38  C   UNL     1       5.408  27.588  56.883  1.00  0.00     0.008 A 
HETATM   39  C   UNL     1       5.404  26.368  56.149  1.00  0.00     0.016 A 
ENDBRANCH  24  35
ENDBRANCH  23  24
ENDBRANCH   3  23
TORSDOF 6
ENDMDL
MODEL 3
REMARK VINA RESULT:     -10.3      1.858      2.106
REMARK  6 active torsions:
REMARK  status: ('A' for Active; 'I' for Inactive)
REMARK    1  A    between atoms: C_9  and  C_10 
REMARK       I    between atoms: C_10  and  N_11 
REMARK    2  A    between atoms: N_11  and  N_12 
REMARK       I    between atoms: N_12  and  C_13 
REMARK       I    between atoms: C_13  and  N_14 
REMARK    3  A    between atoms: N_14  and  C_15 
REMARK    4  A    between atoms: C_15  and  C_16 
REMARK    5  A    between atoms: C_16  and  C_17 
REMARK    6  A    between atoms: C_16  and  C_27 
ROOT
HETATM    1  N   UNL     1       7.600  29.640  58.323  1.00  0.00    -0.249 N 
HETATM    2  C   UNL     1       6.760  28.802  57.625  1.00  0.00     0.334 C 
HETATM    3  N   UNL     1       7.439  28.058  56.691  1.00  0.00    -0.341 N 
HETATM    4  O   UNL     1       5.550  28.753  57.808  1.00  0.00    -0.246 OA
HETATM    5  H   UNL     1       8.593  29.444  58.391  1.00  0.00     0.192 HD
HETATM    6  H   UNL     1       8.268  28.511  56.329  1.00  0.00     0.164 HD
ENDROOT
BRANCH   1   7
HETATM    7  N   UNL     1       7.048  30.447  59.328  1.00  0.00    -0.261 N 
HETATM    8  C   UNL     1       7.518  31.742  59.441  1.00  0.00     0.291 C 
HETATM    9  O   UNL     1       8.544  32.158  58.923  1.00  0.00    -0.264 OA
HETATM   10  H   UNL     1       6.062  30.274  59.552  1.00  0.00     0.190 HD
BRANCH   8  11
HETATM   11  C   UNL     1       6.592  32.648  60.257  1.00  0.00     0.157 A 
HETATM   12  C   UNL     1       6.858  32.949  61.683  1.00  0.00     0.016 A 
HETATM   13  C   UNL     1       7.905  32.389  62.424  1.00  0.00     0.015 A 
HETATM   14  C   UNL     1       5.992  33.847  62.310  1.00  0.00     0.046 A 
HETATM   15  C   UNL     1       8.095  32.752  63.763  1.00  0.00     0.001 A 
HETATM   16  C   UNL     1       7.238  33.665  64.373  1.00  0.00     0.001 A 
HETATM   17  C   UNL     1       6.181  34.211  63.650  1.00  0.00     0.018 A 
HETATM   18  C   UNL     1       4.856  34.404  61.556  1.00  0.00     0.272 A 
HETATM   19  O   UNL     1       4.072  35.195  62.067  1.00  0.00    -0.266 OA
HETATM   20  N   UNL     1       4.724  33.973  60.258  1.00  0.00    -0.242 N 
HETATM   21  N   UNL     1       5.571  33.134  59.604  1.00  0.00    -0.166 NA
HETATM   22  H   UNL     1       3.947  34.351  59.723  1.00  0.00     0.192 HD
ENDBRANCH   8  11
ENDBRANCH   1   7
BRANCH   3  23
HETATM   23  C   UNL     1       6.687  27.246  55.740  1.00  0.00     0.139 C 
BRANCH  23  24
HETATM   24  C   UNL     1       7.554  26.205  54.994  1.00  0.00     0.079 C 
BRANCH  24  25
HETATM   25  C   UNL     1       7.802  24.973  55.838  1.00  0.00    -0.020 A 
HETATM   26  C   UNL     1       7.872  23.617  55.367  1.00  0.00    -0.001 A 
HETATM   27  C   UNL     1       8.120  22.801  56.471  1.00  0.00     0.042 A 
HETATM   28  C   UNL     1       7.749  23.006  54.101  1.00  0.00     0.014 A 
HETATM   29  C   UNL     1       8.253  21.410  56.375  1.00  0.00     0.030 A 
HETATM   30  N   UNL     1       8.192  23.618  57.573  1.00  0.00    -0.365 N 
HETATM   31  C   UNL     1       8.130  20.833  55.109  1.00  0.00     0.002 A 
HETATM   32  C   UNL     1       7.881  21.617  53.986  1.00  0.00     0.001 A 
HETATM   33  H   UNL     1       8.358  23.295  58.515  1.00  0.00     0.165 HD
HETATM   34  C   UNL     1       8.009  24.923  57.206  1.00  0.00     0.097 A 
ENDBRANCH  24  25
BRANCH  24  35
HETATM   35  C   UNL     1       6.955  25.832  53.644  1.00  0.00    -0.007 A 
HETATM   36  S   UNL     1       5.263  25.569  53.507  1.00  0.00    -0.106 SA
HETATM   37  C   UNL     1       5.382  25.221  51.840  1.00  0.00     0.050 A 
HETATM   38  C   UNL     1       6.679  25.296  51.387  1.00  0.00     0.008 A 
HETATM   39  C   UNL     1       7.585  25.651  52.425  1.00  0.00     0.016 A 
ENDBRANCH  24  35
ENDBRANCH  23  24
ENDBRANCH   3  23
TORSDOF 6
ENDMDL
MODEL 4
REMARK VINA RESULT:     -10.3      1.827      2.285
REMARK  6 active torsions:
REMARK  status: ('A' for Active; 'I' for Inactive)
REMARK    1  A    between atoms: C_9  and  C_10 
REMARK       I    between atoms: C_10  and  N_11 
REMARK    2  A    between atoms: N_11  and  N_12 
REMARK       I    between atoms: N_12  and  C_13 
REMARK       I    between atoms: C_13  and  N_14 
REMARK    3  A    between atoms: N_14  and  C_15 
REMARK    4  A    between atoms: C_15  and  C_16 
REMARK    5  A    between atoms: C_16  and  C_17 
REMARK    6  A    between atoms: C_16  and  C_27 
ROOT
HETATM    1  N   UNL     1       6.913  29.548  56.818  1.00  0.00    -0.249 N 
HETATM    2  C   UNL     1       7.343  28.303  57.216  1.00  0.00     0.334 C 
HETATM    3  N   UNL     1       7.220  27.374  56.212  1.00  0.00    -0.341 N 
HETATM    4  O   UNL     1       7.759  28.061  58.342  1.00  0.00    -0.246 OA
HETATM    5  H   UNL     1       6.883  29.801  55.835  1.00  0.00     0.192 HD
HETATM    6  H   UNL     1       6.470  27.569  55.562  1.00  0.00     0.164 HD
ENDROOT
BRANCH   1   7
HETATM    7  N   UNL     1       7.000  30.605  57.736  1.00  0.00    -0.261 N 
HETATM    8  C   UNL     1       5.823  31.225  58.113  1.00  0.00     0.291 C 
HETATM    9  O   UNL     1       4.756  31.110  57.527  1.00  0.00    -0.264 OA
HETATM   10  H   UNL     1       7.748  30.535  58.433  1.00  0.00     0.190 HD
BRANCH   8  11
HETATM   11  C   UNL     1       5.964  32.055  59.393  1.00  0.00     0.157 A 
HETATM   12  C   UNL     1       7.090  31.847  60.333  1.00  0.00     0.016 A 
HETATM   13  C   UNL     1       8.062  30.850  60.190  1.00  0.00     0.015 A 
HETATM   14  C   UNL     1       7.163  32.709  61.429  1.00  0.00     0.046 A 
HETATM   15  C   UNL     1       9.105  30.744  61.117  1.00  0.00     0.001 A 
HETATM   16  C   UNL     1       9.182  31.622  62.195  1.00  0.00     0.001 A 
HETATM   17  C   UNL     1       8.207  32.604  62.357  1.00  0.00     0.018 A 
HETATM   18  C   UNL     1       6.118  33.729  61.618  1.00  0.00     0.272 A 
HETATM   19  O   UNL     1       6.144  34.507  62.565  1.00  0.00    -0.266 OA
HETATM   20  N   UNL     1       5.114  33.746  60.680  1.00  0.00    -0.242 N 
HETATM   21  N   UNL     1       5.034  32.951  59.580  1.00  0.00    -0.166 NA
HETATM   22  H   UNL     1       4.387  34.447  60.795  1.00  0.00     0.192 HD
ENDBRANCH   8  11
ENDBRANCH   1   7
BRANCH   3  23
HETATM   23  C   UNL     1       7.461  25.965  56.507  1.00  0.00     0.139 C 
BRANCH  23  24
HETATM   24  C   UNL     1       7.820  25.124  55.260  1.00  0.00     0.079 C 
BRANCH  24  25
HETATM   25  C   UNL     1       8.073  23.675  55.615  1.00  0.00    -0.020 A 
HETATM   26  C   UNL     1       8.190  22.579  54.693  1.00  0.00    -0.001 A 
HETATM   27  C   UNL     1       8.426  21.424  55.440  1.00  0.00     0.042 A 
HETATM   28  C   UNL     1       8.118  22.460  53.289  1.00  0.00     0.014 A 
HETATM   29  C   UNL     1       8.595  20.161  54.857  1.00  0.00     0.030 A 
HETATM   30  N   UNL     1       8.445  21.793  56.763  1.00  0.00    -0.365 N 
HETATM   31  C   UNL     1       8.523  20.076  53.465  1.00  0.00     0.002 A 
HETATM   32  C   UNL     1       8.287  21.207  52.689  1.00  0.00     0.001 A 
HETATM   33  H   UNL     1       8.592  21.155  57.533  1.00  0.00     0.165 HD
HETATM   34  C   UNL     1       8.241  23.140  56.882  1.00  0.00     0.097 A 
ENDBRANCH  24  25
BRANCH  24  35
HETATM   35  C   UNL     1       6.760  25.244  54.173  1.00  0.00    -0.007 A 
HETATM   36  S   UNL     1       7.169  25.945  52.659  1.00  0.00    -0.106 SA
HETATM   37  C   UNL     1       5.585  25.737  52.056  1.00  0.00     0.050 A 
HETATM   38  C   UNL     1       4.752  25.151  52.982  1.00  0.00     0.008 A 
HETATM   39  C   UNL     1       5.429  24.864  54.200  1.00  0.00     0.016 A 
ENDBRANCH  24  35
ENDBRANCH  23  24
ENDBRANCH   3  23
TORSDOF 6
ENDMDL
MODEL 5
REMARK VINA RESULT:     -10.3      2.309      3.560
REMARK  6 active torsions:
REMARK  status: ('A' for Active; 'I' for Inactive)
REMARK    1  A    between atoms: C_9  and  C_10 
REMARK       I    between atoms: C_10  and  N_11 
REMARK    2  A    between atoms: N_11  and  N_12 
REMARK       I    between atoms: N_12  and  C_13 
REMARK       I    between atoms: C_13  and  N_14 
REMARK    3  A    between atoms: N_14  and  C_15 
REMARK    4  A    between atoms: C_15  and  C_16 
REMARK    5  A    between atoms: C_16  and  C_17 
REMARK    6  A    between atoms: C_16  and  C_27 
ROOT
HETATM    1  N   UNL     1       3.197  30.716  59.496  1.00  0.00    -0.249 N 
HETATM    2  C   UNL     1       3.952  30.692  58.346  1.00  0.00     0.334 C 
HETATM    3  N   UNL     1       3.263  30.148  57.291  1.00  0.00    -0.341 N 
HETATM    4  O   UNL     1       5.110  31.088  58.291  1.00  0.00    -0.246 OA
HETATM    5  H   UNL     1       2.183  30.694  59.454  1.00  0.00     0.192 HD
HETATM    6  H   UNL     1       2.566  29.467  57.563  1.00  0.00     0.164 HD
ENDROOT
BRANCH   1   7
HETATM    7  N   UNL     1       3.766  31.266  60.653  1.00  0.00    -0.261 N 
HETATM    8  C   UNL     1       3.611  32.624  60.860  1.00  0.00     0.291 C 
HETATM    9  O   UNL     1       3.256  33.423  60.006  1.00  0.00    -0.264 OA
HETATM   10  H   UNL     1       3.788  30.656  61.477  1.00  0.00     0.190 HD
BRANCH   8  11
HETATM   11  C   UNL     1       3.887  33.047  62.307  1.00  0.00     0.157 A 
HETATM   12  C   UNL     1       5.254  33.015  62.878  1.00  0.00     0.016 A 
HETATM   13  C   UNL     1       6.380  32.537  62.199  1.00  0.00     0.015 A 
HETATM   14  C   UNL     1       5.403  33.493  64.181  1.00  0.00     0.046 A 
HETATM   15  C   UNL     1       7.639  32.568  62.811  1.00  0.00     0.001 A 
HETATM   16  C   UNL     1       7.781  33.067  64.104  1.00  0.00     0.001 A 
HETATM   17  C   UNL     1       6.663  33.526  64.794  1.00  0.00     0.018 A 
HETATM   18  C   UNL     1       4.217  33.952  64.924  1.00  0.00     0.272 A 
HETATM   19  O   UNL     1       4.303  34.380  66.070  1.00  0.00    -0.266 OA
HETATM   20  N   UNL     1       3.017  33.859  64.262  1.00  0.00    -0.242 N 
HETATM   21  N   UNL     1       2.841  33.439  62.981  1.00  0.00    -0.166 NA
HETATM   22  H   UNL     1       2.189  34.175  64.761  1.00  0.00     0.192 HD
ENDBRANCH   8  11
ENDBRANCH   1   7
BRANCH   3  23
HETATM   23  C   UNL     1       3.964  29.880  56.039  1.00  0.00     0.139 C 
BRANCH  23  24
HETATM   24  C   UNL     1       4.595  28.470  55.972  1.00  0.00     0.079 C 
BRANCH  24  25
HETATM   25  C   UNL     1       4.510  27.883  54.580  1.00  0.00    -0.020 A 
HETATM   26  C   UNL     1       5.088  26.643  54.140  1.00  0.00    -0.001 A 
HETATM   27  C   UNL     1       4.766  26.483  52.792  1.00  0.00     0.042 A 
HETATM   28  C   UNL     1       5.856  25.638  54.765  1.00  0.00     0.014 A 
HETATM   29  C   UNL     1       5.170  25.373  52.039  1.00  0.00     0.030 A 
HETATM   30  N   UNL     1       4.029  27.581  52.417  1.00  0.00    -0.365 N 
HETATM   31  C   UNL     1       5.926  24.392  52.686  1.00  0.00     0.002 A 
HETATM   32  C   UNL     1       6.266  24.520  54.029  1.00  0.00     0.001 A 
HETATM   33  H   UNL     1       3.664  27.734  51.488  1.00  0.00     0.165 HD
HETATM   34  C   UNL     1       3.863  28.424  53.481  1.00  0.00     0.097 A 
ENDBRANCH  24  25
BRANCH  24  35
HETATM   35  C   UNL     1       6.029  28.467  56.481  1.00  0.00    -0.007 A 
HETATM   36  S   UNL     1       7.248  29.295  55.598  1.00  0.00    -0.106 SA
HETATM   37  C   UNL     1       8.459  28.850  56.717  1.00  0.00     0.050 A 
HETATM   38  C   UNL     1       7.959  28.082  57.743  1.00  0.00     0.008 A 
HETATM   39  C   UNL     1       6.559  27.863  57.609  1.00  0.00     0.016 A 
ENDBRANCH  24  35
ENDBRANCH  23  24
ENDBRANCH   3  23
TORSDOF 6
ENDMDL
MODEL 6
REMARK VINA RESULT:     -10.3      2.857     10.814
REMARK  6 active torsions:
REMARK  status: ('A' for Active; 'I' for Inactive)
REMARK    1  A    between atoms: C_9  and  C_10 
REMARK       I    between atoms: C_10  and  N_11 
REMARK    2  A    between atoms: N_11  and  N_12 
REMARK       I    between atoms: N_12  and  C_13 
REMARK       I    between atoms: C_13  and  N_14 
REMARK    3  A    between atoms: N_14  and  C_15 
REMARK    4  A    between atoms: C_15  and  C_16 
REMARK    5  A    between atoms: C_16  and  C_17 
REMARK    6  A    between atoms: C_16  and  C_27 
ROOT
HETATM    1  N   UNL     1       6.506  28.998  57.744  1.00  0.00    -0.249 N 
HETATM    2  C   UNL     1       6.115  30.317  57.712  1.00  0.00     0.334 C 
HETATM    3  N   UNL     1       6.174  30.900  58.954  1.00  0.00    -0.341 N 
HETATM    4  O   UNL     1       5.736  30.884  56.694  1.00  0.00    -0.246 OA
HETATM    5  H   UNL     1       7.103  28.650  58.488  1.00  0.00     0.192 HD
HETATM    6  H   UNL     1       6.032  30.252  59.718  1.00  0.00     0.164 HD
ENDROOT
BRANCH   1   7
HETATM    7  N   UNL     1       6.518  28.279  56.540  1.00  0.00    -0.261 N 
HETATM    8  C   UNL     1       6.543  26.899  56.619  1.00  0.00     0.291 C 
HETATM    9  O   UNL     1       6.820  26.263  57.625  1.00  0.00    -0.264 OA
HETATM   10  H   UNL     1       6.010  28.705  55.758  1.00  0.00     0.190 HD
BRANCH   8  11
HETATM   11  C   UNL     1       6.139  26.216  55.309  1.00  0.00     0.157 A 
HETATM   12  C   UNL     1       6.862  25.029  54.796  1.00  0.00     0.016 A 
HETATM   13  C   UNL     1       8.000  24.479  55.397  1.00  0.00     0.015 A 
HETATM   14  C   UNL     1       6.362  24.440  53.633  1.00  0.00     0.046 A 
HETATM   15  C   UNL     1       8.604  23.339  54.854  1.00  0.00     0.001 A 
HETATM   16  C   UNL     1       8.085  22.747  53.706  1.00  0.00     0.001 A 
HETATM   17  C   UNL     1       6.965  23.299  53.089  1.00  0.00     0.018 A 
HETATM   18  C   UNL     1       5.195  25.039  52.963  1.00  0.00     0.272 A 
HETATM   19  O   UNL     1       4.723  24.555  51.940  1.00  0.00    -0.266 OA
HETATM   20  N   UNL     1       4.682  26.173  53.543  1.00  0.00    -0.242 N 
HETATM   21  N   UNL     1       5.117  26.749  54.696  1.00  0.00    -0.166 NA
HETATM   22  H   UNL     1       3.874  26.597  53.094  1.00  0.00     0.192 HD
ENDBRANCH   8  11
ENDBRANCH   1   7
BRANCH   3  23
HETATM   23  C   UNL     1       5.628  32.240  59.142  1.00  0.00     0.139 C 
BRANCH  23  24
HETATM   24  C   UNL     1       6.103  32.925  60.445  1.00  0.00     0.079 C 
BRANCH  24  25
HETATM   25  C   UNL     1       4.971  33.095  61.434  1.00  0.00    -0.020 A 
HETATM   26  C   UNL     1       4.882  34.093  62.465  1.00  0.00    -0.001 A 
HETATM   27  C   UNL     1       3.677  33.894  63.140  1.00  0.00     0.042 A 
HETATM   28  C   UNL     1       5.716  35.150  62.888  1.00  0.00     0.014 A 
HETATM   29  C   UNL     1       3.263  34.696  64.211  1.00  0.00     0.030 A 
HETATM   30  N   UNL     1       3.056  32.817  62.555  1.00  0.00    -0.365 N 
HETATM   31  C   UNL     1       4.107  35.737  64.605  1.00  0.00     0.002 A 
HETATM   32  C   UNL     1       5.317  35.963  63.955  1.00  0.00     0.001 A 
HETATM   33  H   UNL     1       2.164  32.443  62.846  1.00  0.00     0.165 HD
HETATM   34  C   UNL     1       3.818  32.333  61.527  1.00  0.00     0.097 A 
ENDBRANCH  24  25
BRANCH  24  35
HETATM   35  C   UNL     1       7.275  32.186  61.077  1.00  0.00    -0.007 A 
HETATM   36  S   UNL     1       8.838  32.309  60.373  1.00  0.00    -0.106 SA
HETATM   37  C   UNL     1       9.527  31.287  61.555  1.00  0.00     0.050 A 
HETATM   38  C   UNL     1       8.594  30.851  62.468  1.00  0.00     0.008 A 
HETATM   39  C   UNL     1       7.298  31.371  62.195  1.00  0.00     0.016 A 
ENDBRANCH  24  35
ENDBRANCH  23  24
ENDBRANCH   3  23
TORSDOF 6
ENDMDL
MODEL 7
REMARK VINA RESULT:     -10.1      6.338      9.385
REMARK  6 active torsions:
REMARK  status: ('A' for Active; 'I' for Inactive)
REMARK    1  A    between atoms: C_9  and  C_10 
REMARK       I    between atoms: C_10  and  N_11 
REMARK    2  A    between atoms: N_11  and  N_12 
REMARK       I    between atoms: N_12  and  C_13 
REMARK       I    between atoms: C_13  and  N_14 
REMARK    3  A    between atoms: N_14  and  C_15 
REMARK    4  A    between atoms: C_15  and  C_16 
REMARK    5  A    between atoms: C_16  and  C_17 
REMARK    6  A    between atoms: C_16  and  C_27 
ROOT
HETATM    1  N   UNL     1       6.224  27.528  54.689  1.00  0.00    -0.249 N 
HETATM    2  C   UNL     1       5.304  27.841  53.715  1.00  0.00     0.334 C 
HETATM    3  N   UNL     1       5.321  29.179  53.404  1.00  0.00    -0.341 N 
HETATM    4  O   UNL     1       4.547  27.019  53.212  1.00  0.00    -0.246 OA
HETATM    5  H   UNL     1       7.031  28.121  54.853  1.00  0.00     0.192 HD
HETATM    6  H   UNL     1       5.608  29.774  54.171  1.00  0.00     0.164 HD
ENDROOT
BRANCH   1   7
HETATM    7  N   UNL     1       6.333  26.190  55.093  1.00  0.00    -0.261 N 
HETATM    8  C   UNL     1       7.341  25.430  54.528  1.00  0.00     0.291 C 
HETATM    9  O   UNL     1       7.969  25.741  53.527  1.00  0.00    -0.264 OA
HETATM   10  H   UNL     1       6.071  25.990  56.064  1.00  0.00     0.190 HD
BRANCH   8  11
HETATM   11  C   UNL     1       7.641  24.150  55.314  1.00  0.00     0.157 A 
HETATM   12  C   UNL     1       7.824  22.846  54.635  1.00  0.00     0.016 A 
HETATM   13  C   UNL     1       7.666  22.646  53.259  1.00  0.00     0.015 A 
HETATM   14  C   UNL     1       8.169  21.759  55.440  1.00  0.00     0.046 A 
HETATM   15  C   UNL     1       7.883  21.381  52.701  1.00  0.00     0.001 A 
HETATM   16  C   UNL     1       8.248  20.308  53.510  1.00  0.00     0.001 A 
HETATM   17  C   UNL     1       8.387  20.493  54.883  1.00  0.00     0.018 A 
HETATM   18  C   UNL     1       8.287  21.946  56.896  1.00  0.00     0.272 A 
HETATM   19  O   UNL     1       8.589  21.020  57.640  1.00  0.00    -0.266 OA
HETATM   20  N   UNL     1       8.028  23.211  57.366  1.00  0.00    -0.242 N 
HETATM   21  N   UNL     1       7.731  24.300  56.608  1.00  0.00    -0.166 NA
HETATM   22  H   UNL     1       8.110  23.357  58.369  1.00  0.00     0.192 HD
ENDBRANCH   8  11
ENDBRANCH   1   7
BRANCH   3  23
HETATM   23  C   UNL     1       4.294  29.722  52.521  1.00  0.00     0.139 C 
BRANCH  23  24
HETATM   24  C   UNL     1       4.637  29.591  51.019  1.00  0.00     0.079 C 
BRANCH  24  25
HETATM   25  C   UNL     1       3.477  29.029  50.226  1.00  0.00    -0.020 A 
HETATM   26  C   UNL     1       3.545  27.985  49.241  1.00  0.00    -0.001 A 
HETATM   27  C   UNL     1       2.251  27.773  48.762  1.00  0.00     0.042 A 
HETATM   28  C   UNL     1       4.588  27.197  48.710  1.00  0.00     0.014 A 
HETATM   29  C   UNL     1       1.948  26.816  47.786  1.00  0.00     0.030 A 
HETATM   30  N   UNL     1       1.426  28.653  49.419  1.00  0.00    -0.365 N 
HETATM   31  C   UNL     1       3.000  26.048  47.281  1.00  0.00     0.002 A 
HETATM   32  C   UNL     1       4.303  26.234  47.735  1.00  0.00     0.001 A 
HETATM   33  H   UNL     1       0.430  28.726  49.267  1.00  0.00     0.165 HD
HETATM   34  C   UNL     1       2.147  29.408  50.303  1.00  0.00     0.097 A 
ENDBRANCH  24  25
BRANCH  24  35
HETATM   35  C   UNL     1       5.112  30.912  50.430  1.00  0.00    -0.007 A 
HETATM   36  S   UNL     1       4.663  32.391  51.182  1.00  0.00    -0.106 SA
HETATM   37  C   UNL     1       5.508  33.318  50.024  1.00  0.00     0.050 A 
HETATM   38  C   UNL     1       6.119  32.529  49.076  1.00  0.00     0.008 A 
HETATM   39  C   UNL     1       5.894  31.143  49.312  1.00  0.00     0.016 A 
ENDBRANCH  24  35
ENDBRANCH  23  24
ENDBRANCH   3  23
TORSDOF 6
ENDMDL
MODEL 8
REMARK VINA RESULT:     -10.1      2.074      2.591
REMARK  6 active torsions:
REMARK  status: ('A' for Active; 'I' for Inactive)
REMARK    1  A    between atoms: C_9  and  C_10 
REMARK       I    between atoms: C_10  and  N_11 
REMARK    2  A    between atoms: N_11  and  N_12 
REMARK       I    between atoms: N_12  and  C_13 
REMARK       I    between atoms: C_13  and  N_14 
REMARK    3  A    between atoms: N_14  and  C_15 
REMARK    4  A    between atoms: C_15  and  C_16 
REMARK    5  A    between atoms: C_16  and  C_17 
REMARK    6  A    between atoms: C_16  and  C_27 
ROOT
HETATM    1  N   UNL     1       6.975  30.822  58.741  1.00  0.00    -0.249 N 
HETATM    2  C   UNL     1       7.861  29.877  58.277  1.00  0.00     0.334 C 
HETATM    3  N   UNL     1       7.734  29.676  56.924  1.00  0.00    -0.341 N 
HETATM    4  O   UNL     1       8.647  29.276  59.000  1.00  0.00    -0.246 OA
HETATM    5  H   UNL     1       6.579  31.517  58.116  1.00  0.00     0.192 HD
HETATM    6  H   UNL     1       6.803  29.848  56.570  1.00  0.00     0.164 HD
ENDROOT
BRANCH   1   7
HETATM    7  N   UNL     1       7.005  31.147  60.105  1.00  0.00    -0.261 N 
HETATM    8  C   UNL     1       7.755  32.245  60.485  1.00  0.00     0.291 C 
HETATM    9  O   UNL     1       8.594  32.792  59.785  1.00  0.00    -0.264 OA
HETATM   10  H   UNL     1       6.151  30.944  60.635  1.00  0.00     0.190 HD
BRANCH   8  11
HETATM   11  C   UNL     1       7.399  32.760  61.884  1.00  0.00     0.157 A 
HETATM   12  C   UNL     1       6.195  33.589  62.123  1.00  0.00     0.016 A 
HETATM   13  C   UNL     1       5.334  34.037  61.115  1.00  0.00     0.015 A 
HETATM   14  C   UNL     1       5.926  33.940  63.448  1.00  0.00     0.046 A 
HETATM   15  C   UNL     1       4.205  34.799  61.439  1.00  0.00     0.001 A 
HETATM   16  C   UNL     1       3.933  35.126  62.765  1.00  0.00     0.001 A 
HETATM   17  C   UNL     1       4.796  34.702  63.773  1.00  0.00     0.018 A 
HETATM   18  C   UNL     1       6.853  33.518  64.511  1.00  0.00     0.272 A 
HETATM   19  O   UNL     1       6.654  33.804  65.687  1.00  0.00    -0.266 OA
HETATM   20  N   UNL     1       7.952  32.801  64.105  1.00  0.00    -0.242 N 
HETATM   21  N   UNL     1       8.223  32.406  62.832  1.00  0.00    -0.166 NA
HETATM   22  H   UNL     1       8.599  32.499  64.828  1.00  0.00     0.192 HD
ENDBRANCH   8  11
ENDBRANCH   1   7
BRANCH   3  23
HETATM   23  C   UNL     1       8.470  28.586  56.291  1.00  0.00     0.139 C 
BRANCH  23  24
HETATM   24  C   UNL     1       7.577  27.645  55.448  1.00  0.00     0.079 C 
BRANCH  24  25
HETATM   25  C   UNL     1       7.608  26.225  55.971  1.00  0.00    -0.020 A 
HETATM   26  C   UNL     1       7.607  25.025  55.181  1.00  0.00    -0.001 A 
HETATM   27  C   UNL     1       7.646  23.942  56.060  1.00  0.00     0.042 A 
HETATM   28  C   UNL     1       7.577  24.758  53.796  1.00  0.00     0.014 A 
HETATM   29  C   UNL     1       7.659  22.610  55.627  1.00  0.00     0.030 A 
HETATM   30  N   UNL     1       7.663  24.454  57.335  1.00  0.00    -0.365 N 
HETATM   31  C   UNL     1       7.633  22.376  54.250  1.00  0.00     0.002 A 
HETATM   32  C   UNL     1       7.592  23.433  53.345  1.00  0.00     0.001 A 
HETATM   33  H   UNL     1       7.686  23.895  58.176  1.00  0.00     0.165 HD
HETATM   34  C   UNL     1       7.646  25.821  57.296  1.00  0.00     0.097 A 
ENDBRANCH  24  25
BRANCH  24  35
HETATM   35  C   UNL     1       6.148  28.161  55.348  1.00  0.00    -0.007 A 
HETATM   36  S   UNL     1       5.053  27.892  56.645  1.00  0.00    -0.106 SA
HETATM   37  C   UNL     1       3.784  28.694  55.831  1.00  0.00     0.050 A 
HETATM   38  C   UNL     1       4.172  29.155  54.594  1.00  0.00     0.008 A 
HETATM   39  C   UNL     1       5.535  28.851  54.317  1.00  0.00     0.016 A 
ENDBRANCH  24  35
ENDBRANCH  23  24
ENDBRANCH   3  23
TORSDOF 6
ENDMDL
MODEL 9
REMARK VINA RESULT:     -10.1      4.966      9.712
REMARK  6 active torsions:
REMARK  status: ('A' for Active; 'I' for Inactive)
REMARK    1  A    between atoms: C_9  and  C_10 
REMARK       I    between atoms: C_10  and  N_11 
REMARK    2  A    between atoms: N_11  and  N_12 
REMARK       I    between atoms: N_12  and  C_13 
REMARK       I    between atoms: C_13  and  N_14 
REMARK    3  A    between atoms: N_14  and  C_15 
REMARK    4  A    between atoms: C_15  and  C_16 
REMARK    5  A    between atoms: C_16  and  C_17 
REMARK    6  A    between atoms: C_16  and  C_27 
ROOT
HETATM    1  N   UNL     1       5.759  29.451  52.090  1.00  0.00    -0.249 N 
HETATM    2  C   UNL     1       6.002  28.194  52.594  1.00  0.00     0.334 C 
HETATM    3  N   UNL     1       6.995  28.204  53.542  1.00  0.00    -0.341 N 
HETATM    4  O   UNL     1       5.413  27.189  52.213  1.00  0.00    -0.246 OA
HETATM    5  H   UNL     1       6.006  30.281  52.620  1.00  0.00     0.192 HD
HETATM    6  H   UNL     1       7.679  28.939  53.413  1.00  0.00     0.164 HD
ENDROOT
BRANCH   1   7
HETATM    7  N   UNL     1       4.752  29.597  51.126  1.00  0.00    -0.261 N 
HETATM    8  C   UNL     1       5.143  29.843  49.823  1.00  0.00     0.291 C 
HETATM    9  O   UNL     1       6.263  30.202  49.487  1.00  0.00    -0.264 OA
HETATM   10  H   UNL     1       3.904  29.041  51.274  1.00  0.00     0.190 HD
BRANCH   8  11
HETATM   11  C   UNL     1       4.034  29.574  48.801  1.00  0.00     0.157 A 
HETATM   12  C   UNL     1       3.680  28.198  48.383  1.00  0.00     0.016 A 
HETATM   13  C   UNL     1       4.356  27.048  48.805  1.00  0.00     0.015 A 
HETATM   14  C   UNL     1       2.603  28.064  47.504  1.00  0.00     0.046 A 
HETATM   15  C   UNL     1       3.935  25.784  48.375  1.00  0.00     0.001 A 
HETATM   16  C   UNL     1       2.845  25.659  47.516  1.00  0.00     0.001 A 
HETATM   17  C   UNL     1       2.180  26.800  47.074  1.00  0.00     0.018 A 
HETATM   18  C   UNL     1       1.916  29.271  47.013  1.00  0.00     0.272 A 
HETATM   19  O   UNL     1       0.965  29.199  46.241  1.00  0.00    -0.266 OA
HETATM   20  N   UNL     1       2.411  30.472  47.459  1.00  0.00    -0.242 N 
HETATM   21  N   UNL     1       3.429  30.637  48.345  1.00  0.00    -0.166 NA
HETATM   22  H   UNL     1       1.945  31.314  47.131  1.00  0.00     0.192 HD
ENDBRANCH   8  11
ENDBRANCH   1   7
BRANCH   3  23
HETATM   23  C   UNL     1       7.508  26.938  54.056  1.00  0.00     0.139 C 
BRANCH  23  24
HETATM   24  C   UNL     1       7.036  26.617  55.493  1.00  0.00     0.079 C 
BRANCH  24  25
HETATM   25  C   UNL     1       7.521  25.259  55.953  1.00  0.00    -0.020 A 
HETATM   26  C   UNL     1       7.653  24.081  55.140  1.00  0.00    -0.001 A 
HETATM   27  C   UNL     1       8.137  23.058  55.957  1.00  0.00     0.042 A 
HETATM   28  C   UNL     1       7.405  23.787  53.783  1.00  0.00     0.014 A 
HETATM   29  C   UNL     1       8.388  21.763  55.487  1.00  0.00     0.030 A 
HETATM   30  N   UNL     1       8.289  23.583  57.218  1.00  0.00    -0.365 N 
HETATM   31  C   UNL     1       8.137  21.503  54.138  1.00  0.00     0.002 A 
HETATM   32  C   UNL     1       7.652  22.499  53.295  1.00  0.00     0.001 A 
HETATM   33  H   UNL     1       8.622  23.063  58.017  1.00  0.00     0.165 HD
HETATM   34  C   UNL     1       7.930  24.903  57.227  1.00  0.00     0.097 A 
ENDBRANCH  24  25
BRANCH  24  35
HETATM   35  C   UNL     1       7.441  27.705  56.478  1.00  0.00    -0.007 A 
HETATM   36  S   UNL     1       6.230  28.574  57.334  1.00  0.00    -0.106 SA
HETATM   37  C   UNL     1       7.391  29.525  58.149  1.00  0.00     0.050 A 
HETATM   38  C   UNL     1       8.677  29.200  57.781  1.00  0.00     0.008 A 
HETATM   39  C   UNL     1       8.706  28.150  56.821  1.00  0.00     0.016 A 
ENDBRANCH  24  35
ENDBRANCH  23  24
ENDBRANCH   3  23
TORSDOF 6
ENDMDL
MODEL 10
REMARK VINA RESULT:      -9.8      2.085      3.551
REMARK  6 active torsions:
REMARK  status: ('A' for Active; 'I' for Inactive)
REMARK    1  A    between atoms: C_9  and  C_10 
REMARK       I    between atoms: C_10  and  N_11 
REMARK    2  A    between atoms: N_11  and  N_12 
REMARK       I    between atoms: N_12  and  C_13 
REMARK       I    between atoms: C_13  and  N_14 
REMARK    3  A    between atoms: N_14  and  C_15 
REMARK    4  A    between atoms: C_15  and  C_16 
REMARK    5  A    between atoms: C_16  and  C_17 
REMARK    6  A    between atoms: C_16  and  C_27 
ROOT
HETATM    1  N   UNL     1       3.670  30.805  59.262  1.00  0.00    -0.249 N 
HETATM    2  C   UNL     1       4.617  30.778  58.264  1.00  0.00     0.334 C 
HETATM    3  N   UNL     1       4.489  29.669  57.465  1.00  0.00    -0.341 N 
HETATM    4  O   UNL     1       5.483  31.635  58.132  1.00  0.00    -0.246 OA
HETATM    5  H   UNL     1       2.799  30.293  59.167  1.00  0.00     0.192 HD
HETATM    6  H   UNL     1       4.095  28.866  57.938  1.00  0.00     0.164 HD
ENDROOT
BRANCH   1   7
HETATM    7  N   UNL     1       3.666  31.895  60.144  1.00  0.00    -0.261 N 
HETATM    8  C   UNL     1       3.497  31.628  61.490  1.00  0.00     0.291 C 
HETATM    9  O   UNL     1       3.092  30.569  61.946  1.00  0.00    -0.264 OA
HETATM   10  H   UNL     1       4.263  32.686  59.884  1.00  0.00     0.190 HD
BRANCH   8  11
HETATM   11  C   UNL     1       3.916  32.795  62.391  1.00  0.00     0.157 A 
HETATM   12  C   UNL     1       5.280  32.884  62.962  1.00  0.00     0.016 A 
HETATM   13  C   UNL     1       6.265  31.903  62.805  1.00  0.00     0.015 A 
HETATM   14  C   UNL     1       5.578  34.028  63.706  1.00  0.00     0.046 A 
HETATM   15  C   UNL     1       7.537  32.084  63.362  1.00  0.00     0.001 A 
HETATM   16  C   UNL     1       7.831  33.238  64.084  1.00  0.00     0.001 A 
HETATM   17  C   UNL     1       6.850  34.210  64.263  1.00  0.00     0.018 A 
HETATM   18  C   UNL     1       4.534  35.044  63.921  1.00  0.00     0.272 A 
HETATM   19  O   UNL     1       4.752  36.062  64.567  1.00  0.00    -0.266 OA
HETATM   20  N   UNL     1       3.306  34.774  63.367  1.00  0.00    -0.242 N 
HETATM   21  N   UNL     1       2.993  33.693  62.602  1.00  0.00    -0.166 NA
HETATM   22  H   UNL     1       2.575  35.468  63.503  1.00  0.00     0.192 HD
ENDBRANCH   8  11
ENDBRANCH   1   7
BRANCH   3  23
HETATM   23  C   UNL     1       5.515  29.384  56.466  1.00  0.00     0.139 C 
BRANCH  23  24
HETATM   24  C   UNL     1       6.586  28.378  56.949  1.00  0.00     0.079 C 
BRANCH  24  25
HETATM   25  C   UNL     1       6.635  27.147  56.070  1.00  0.00    -0.020 A 
HETATM   26  C   UNL     1       7.358  25.935  56.340  1.00  0.00    -0.001 A 
HETATM   27  C   UNL     1       7.126  25.060  55.278  1.00  0.00     0.042 A 
HETATM   28  C   UNL     1       8.192  25.498  57.392  1.00  0.00     0.014 A 
HETATM   29  C   UNL     1       7.679  23.775  55.215  1.00  0.00     0.030 A 
HETATM   30  N   UNL     1       6.301  25.709  54.391  1.00  0.00    -0.365 N 
HETATM   31  C   UNL     1       8.497  23.369  56.272  1.00  0.00     0.002 A 
HETATM   32  C   UNL     1       8.752  24.216  57.346  1.00  0.00     0.001 A 
HETATM   33  H   UNL     1       5.971  25.313  53.522  1.00  0.00     0.165 HD
HETATM   34  C   UNL     1       5.995  26.958  54.856  1.00  0.00     0.097 A 
ENDBRANCH  24  25
BRANCH  24  35
HETATM   35  C   UNL     1       7.959  29.025  57.061  1.00  0.00    -0.007 A 
HETATM   36  S   UNL     1       8.955  29.158  55.667  1.00  0.00    -0.106 SA
HETATM   37  C   UNL     1      10.206  29.917  56.547  1.00  0.00     0.050 A 
HETATM   38  C   UNL     1       9.886  30.066  57.877  1.00  0.00     0.008 A 
HETATM   39  C   UNL     1       8.591  29.555  58.173  1.00  0.00     0.016 A 
ENDBRANCH  24  35
ENDBRANCH  23  24
ENDBRANCH   3  23
TORSDOF 6
ENDMDL
