MODEL 1
REMARK VINA RESULT:     -10.5      0.000      0.000
REMARK  5 active torsions:
REMARK  status: ('A' for Active; 'I' for Inactive)
REMARK    1  A    between atoms: C_11  and  C_12 
REMARK    2  A    between atoms: C_12  and  S_13 
REMARK    3  A    between atoms: S_13  and  C_14 
REMARK    4  A    between atoms: C_16  and  N_17 
REMARK    5  A    between atoms: N_17  and  C_18 
ROOT
HETATM    1  C   UNL     1       6.582  25.301  56.247  1.00  0.00     0.121 C 
ENDROOT
BRANCH   1   2
HETATM    2  C   UNL     1       6.799  25.000  54.784  1.00  0.00    -0.029 A 
HETATM    3  C   UNL     1       7.393  23.676  54.369  1.00  0.00     0.016 A 
HETATM    4  C   UNL     1       7.858  22.592  55.226  1.00  0.00    -0.012 A 
HETATM    5  C   UNL     1       7.501  23.476  52.976  1.00  0.00     0.091 A 
HETATM    6  C   UNL     1       8.364  21.404  54.605  1.00  0.00    -0.025 A 
HETATM    7  C   UNL     1       7.883  22.547  56.654  1.00  0.00     0.013 A 
HETATM    8  C   UNL     1       8.824  20.309  55.359  1.00  0.00     0.012 A 
HETATM    9  C   UNL     1       8.428  21.283  53.217  1.00  0.00     0.015 A 
HETATM   10  C   UNL     1       8.812  20.325  56.745  1.00  0.00     0.001 A 
HETATM   11  C   UNL     1       8.343  21.448  57.394  1.00  0.00     0.001 A 
HETATM   12  C   UNL     1       8.004  22.313  52.402  1.00  0.00     0.039 A 
HETATM   13  O   UNL     1       7.118  24.435  52.017  1.00  0.00    -0.275 OA
HETATM   14  C   UNL     1       6.615  25.656  52.384  1.00  0.00     0.288 A 
HETATM   15  O   UNL     1       6.293  26.513  51.572  1.00  0.00    -0.260 OA
HETATM   16  C   UNL     1       6.464  25.880  53.822  1.00  0.00     0.091 A 
ENDBRANCH   1   2
BRANCH   1  17
HETATM   17  S   UNL     1       5.331  26.540  56.700  1.00  0.00    -0.096 SA
BRANCH  17  18
HETATM   18  C   UNL     1       6.381  27.776  57.360  1.00  0.00     0.160 A 
HETATM   19  S   UNL     1       5.949  29.426  57.459  1.00  0.00    -0.022 SA
HETATM   20  C   UNL     1       7.482  29.717  58.211  1.00  0.00     0.195 A 
HETATM   21  N   UNL     1       8.206  28.621  58.323  1.00  0.00    -0.123 NA
HETATM   22  N   UNL     1       7.575  27.500  57.832  1.00  0.00    -0.133 NA
BRANCH  20  23
HETATM   23  N   UNL     1       7.801  30.971  58.606  1.00  0.00    -0.331 N 
HETATM   24  H   UNL     1       7.900  31.683  57.889  1.00  0.00     0.168 HD
BRANCH  23  25
HETATM   25  C   UNL     1       7.968  31.482  59.910  1.00  0.00     0.073 A 
HETATM   26  C   UNL     1       6.923  32.241  60.466  1.00  0.00     0.143 A 
HETATM   27  F   UNL     1       5.811  32.446  59.740  1.00  0.00    -0.204 F 
HETATM   28  C   UNL     1       6.995  32.788  61.745  1.00  0.00     0.044 A 
HETATM   29  C   UNL     1       8.138  32.583  62.511  1.00  0.00     0.003 A 
HETATM   30  C   UNL     1       9.192  31.837  61.987  1.00  0.00     0.002 A 
HETATM   31  C   UNL     1       9.108  31.293  60.698  1.00  0.00     0.033 A 
ENDBRANCH  23  25
ENDBRANCH  20  23
ENDBRANCH  17  18
ENDBRANCH   1  17
TORSDOF 5
ENDMDL
MODEL 2
REMARK VINA RESULT:     -10.5      0.967      1.300
REMARK  5 active torsions:
REMARK  status: ('A' for Active; 'I' for Inactive)
REMARK    1  A    between atoms: C_11  and  C_12 
REMARK    2  A    between atoms: C_12  and  S_13 
REMARK    3  A    between atoms: S_13  and  C_14 
REMARK    4  A    between atoms: C_16  and  N_17 
REMARK    5  A    between atoms: N_17  and  C_18 
ROOT
HETATM    1  C   UNL     1       6.661  25.868  56.164  1.00  0.00     0.121 C 
ENDROOT
BRANCH   1   2
HETATM    2  C   UNL     1       6.787  25.498  54.705  1.00  0.00    -0.029 A 
HETATM    3  C   UNL     1       7.300  24.133  54.318  1.00  0.00     0.016 A 
HETATM    4  C   UNL     1       7.762  23.064  55.196  1.00  0.00    -0.012 A 
HETATM    5  C   UNL     1       7.326  23.871  52.932  1.00  0.00     0.091 A 
HETATM    6  C   UNL     1       8.184  21.830  54.602  1.00  0.00    -0.025 A 
HETATM    7  C   UNL     1       7.861  23.076  56.622  1.00  0.00     0.013 A 
HETATM    8  C   UNL     1       8.634  20.747  55.378  1.00  0.00     0.012 A 
HETATM    9  C   UNL     1       8.168  21.650  53.220  1.00  0.00     0.015 A 
HETATM   10  C   UNL     1       8.696  20.819  56.761  1.00  0.00     0.001 A 
HETATM   11  C   UNL     1       8.311  21.988  57.385  1.00  0.00     0.001 A 
HETATM   12  C   UNL     1       7.747  22.665  52.383  1.00  0.00     0.039 A 
HETATM   13  O   UNL     1       6.936  24.807  51.953  1.00  0.00    -0.275 OA
HETATM   14  C   UNL     1       6.505  26.063  52.292  1.00  0.00     0.288 A 
HETATM   15  O   UNL     1       6.179  26.901  51.461  1.00  0.00    -0.260 OA
HETATM   16  C   UNL     1       6.441  26.352  53.725  1.00  0.00     0.091 A 
ENDBRANCH   1   2
BRANCH   1  17
HETATM   17  S   UNL     1       5.441  27.131  56.634  1.00  0.00    -0.096 SA
BRANCH  17  18
HETATM   18  C   UNL     1       6.505  28.272  57.430  1.00  0.00     0.160 A 
HETATM   19  S   UNL     1       6.136  29.928  57.626  1.00  0.00    -0.022 SA
HETATM   20  C   UNL     1       7.639  30.099  58.469  1.00  0.00     0.195 A 
HETATM   21  N   UNL     1       8.311  28.967  58.537  1.00  0.00    -0.123 NA
HETATM   22  N   UNL     1       7.661  27.911  57.938  1.00  0.00    -0.133 NA
BRANCH  20  23
HETATM   23  N   UNL     1       7.987  31.307  58.967  1.00  0.00    -0.331 N 
HETATM   24  H   UNL     1       8.442  31.965  58.341  1.00  0.00     0.168 HD
BRANCH  23  25
HETATM   25  C   UNL     1       7.761  31.844  60.252  1.00  0.00     0.073 A 
HETATM   26  C   UNL     1       8.664  31.513  61.278  1.00  0.00     0.143 A 
HETATM   27  F   UNL     1       9.702  30.707  60.997  1.00  0.00    -0.204 F 
HETATM   28  C   UNL     1       8.525  31.993  62.579  1.00  0.00     0.044 A 
HETATM   29  C   UNL     1       7.457  32.831  62.886  1.00  0.00     0.003 A 
HETATM   30  C   UNL     1       6.544  33.175  61.891  1.00  0.00     0.002 A 
HETATM   31  C   UNL     1       6.694  32.684  60.586  1.00  0.00     0.033 A 
ENDBRANCH  23  25
ENDBRANCH  20  23
ENDBRANCH  17  18
ENDBRANCH   1  17
TORSDOF 5
ENDMDL
MODEL 3
REMARK VINA RESULT:     -10.4      5.633      9.054
REMARK  5 active torsions:
REMARK  status: ('A' for Active; 'I' for Inactive)
REMARK    1  A    between atoms: C_11  and  C_12 
REMARK    2  A    between atoms: C_12  and  S_13 
REMARK    3  A    between atoms: S_13  and  C_14 
REMARK    4  A    between atoms: C_16  and  N_17 
REMARK    5  A    between atoms: N_17  and  C_18 
ROOT
HETATM    1  C   UNL     1       7.203  27.007  53.724  1.00  0.00     0.121 C 
ENDROOT
BRANCH   1   2
HETATM    2  C   UNL     1       7.508  26.726  55.176  1.00  0.00    -0.029 A 
HETATM    3  C   UNL     1       7.824  25.318  55.619  1.00  0.00     0.016 A 
HETATM    4  C   UNL     1       7.840  24.105  54.810  1.00  0.00    -0.012 A 
HETATM    5  C   UNL     1       8.147  25.176  56.985  1.00  0.00     0.091 A 
HETATM    6  C   UNL     1       8.200  22.871  55.443  1.00  0.00    -0.025 A 
HETATM    7  C   UNL     1       7.532  23.967  53.422  1.00  0.00     0.013 A 
HETATM    8  C   UNL     1       8.249  21.657  54.734  1.00  0.00     0.012 A 
HETATM    9  C   UNL     1       8.516  22.819  56.801  1.00  0.00     0.015 A 
HETATM   10  C   UNL     1       7.947  21.593  53.382  1.00  0.00     0.001 A 
HETATM   11  C   UNL     1       7.585  22.750  52.725  1.00  0.00     0.001 A 
HETATM   12  C   UNL     1       8.487  23.962  57.574  1.00  0.00     0.039 A 
HETATM   13  O   UNL     1       8.153  26.247  57.901  1.00  0.00    -0.275 OA
HETATM   14  C   UNL     1       7.829  27.522  57.518  1.00  0.00     0.288 A 
HETATM   15  O   UNL     1       7.809  28.465  58.298  1.00  0.00    -0.260 OA
HETATM   16  C   UNL     1       7.518  27.704  56.101  1.00  0.00     0.091 A 
ENDBRANCH   1   2
BRANCH   1  17
HETATM   17  S   UNL     1       5.918  28.232  53.331  1.00  0.00    -0.096 SA
BRANCH  17  18
HETATM   18  C   UNL     1       5.416  27.626  51.766  1.00  0.00     0.160 A 
HETATM   19  S   UNL     1       5.047  28.635  50.438  1.00  0.00    -0.022 SA
HETATM   20  C   UNL     1       4.756  27.200  49.511  1.00  0.00     0.195 A 
HETATM   21  N   UNL     1       4.923  26.100  50.218  1.00  0.00    -0.123 NA
HETATM   22  N   UNL     1       5.303  26.341  51.519  1.00  0.00    -0.133 NA
BRANCH  20  23
HETATM   23  N   UNL     1       4.402  27.311  48.211  1.00  0.00    -0.331 N 
HETATM   24  H   UNL     1       5.063  26.988  47.510  1.00  0.00     0.168 HD
BRANCH  23  25
HETATM   25  C   UNL     1       3.193  27.771  47.649  1.00  0.00     0.073 A 
HETATM   26  C   UNL     1       2.126  26.861  47.534  1.00  0.00     0.143 A 
HETATM   27  F   UNL     1       2.297  25.600  47.963  1.00  0.00    -0.204 F 
HETATM   28  C   UNL     1       0.893  27.220  46.992  1.00  0.00     0.044 A 
HETATM   29  C   UNL     1       0.698  28.523  46.545  1.00  0.00     0.003 A 
HETATM   30  C   UNL     1       1.737  29.447  46.644  1.00  0.00     0.002 A 
HETATM   31  C   UNL     1       2.973  29.073  47.189  1.00  0.00     0.033 A 
ENDBRANCH  23  25
ENDBRANCH  20  23
ENDBRANCH  17  18
ENDBRANCH   1  17
TORSDOF 5
ENDMDL
MODEL 4
REMARK VINA RESULT:     -10.1      3.964      9.464
REMARK  5 active torsions:
REMARK  status: ('A' for Active; 'I' for Inactive)
REMARK    1  A    between atoms: C_11  and  C_12 
REMARK    2  A    between atoms: C_12  and  S_13 
REMARK    3  A    between atoms: S_13  and  C_14 
REMARK    4  A    between atoms: C_16  and  N_17 
REMARK    5  A    between atoms: N_17  and  C_18 
ROOT
HETATM    1  C   UNL     1       5.531  29.606  56.247  1.00  0.00     0.121 C 
ENDROOT
BRANCH   1   2
HETATM    2  C   UNL     1       5.442  30.479  57.476  1.00  0.00    -0.029 A 
HETATM    3  C   UNL     1       6.704  30.926  58.173  1.00  0.00     0.016 A 
HETATM    4  C   UNL     1       8.083  30.585  57.840  1.00  0.00    -0.012 A 
HETATM    5  C   UNL     1       6.510  31.782  59.277  1.00  0.00     0.091 A 
HETATM    6  C   UNL     1       9.133  31.154  58.632  1.00  0.00    -0.025 A 
HETATM    7  C   UNL     1       8.552  29.729  56.797  1.00  0.00     0.013 A 
HETATM    8  C   UNL     1      10.489  30.885  58.372  1.00  0.00     0.012 A 
HETATM    9  C   UNL     1       8.854  32.002  59.703  1.00  0.00     0.015 A 
HETATM   10  C   UNL     1      10.879  30.050  57.336  1.00  0.00     0.001 A 
HETATM   11  C   UNL     1       9.907  29.468  56.548  1.00  0.00     0.001 A 
HETATM   12  C   UNL     1       7.550  32.315  60.032  1.00  0.00     0.039 A 
HETATM   13  O   UNL     1       5.241  32.185  59.739  1.00  0.00    -0.275 OA
HETATM   14  C   UNL     1       4.088  31.754  59.138  1.00  0.00     0.288 A 
HETATM   15  O   UNL     1       2.973  32.073  59.531  1.00  0.00    -0.260 OA
HETATM   16  C   UNL     1       4.259  30.887  57.972  1.00  0.00     0.091 A 
ENDBRANCH   1   2
BRANCH   1  17
HETATM   17  S   UNL     1       4.477  28.127  56.159  1.00  0.00    -0.096 SA
BRANCH  17  18
HETATM   18  C   UNL     1       5.719  26.902  55.994  1.00  0.00     0.160 A 
HETATM   19  S   UNL     1       5.637  25.370  56.744  1.00  0.00    -0.022 SA
HETATM   20  C   UNL     1       7.146  24.988  55.983  1.00  0.00     0.195 A 
HETATM   21  N   UNL     1       7.614  25.987  55.261  1.00  0.00    -0.123 NA
HETATM   22  N   UNL     1       6.795  27.093  55.266  1.00  0.00    -0.133 NA
BRANCH  20  23
HETATM   23  N   UNL     1       7.694  23.766  56.172  1.00  0.00    -0.331 N 
HETATM   24  H   UNL     1       8.032  23.536  57.102  1.00  0.00     0.168 HD
BRANCH  23  25
HETATM   25  C   UNL     1       7.828  22.695  55.264  1.00  0.00     0.073 A 
HETATM   26  C   UNL     1       8.055  21.408  55.784  1.00  0.00     0.143 A 
HETATM   27  F   UNL     1       8.132  21.248  57.115  1.00  0.00    -0.204 F 
HETATM   28  C   UNL     1       8.200  20.288  54.967  1.00  0.00     0.044 A 
HETATM   29  C   UNL     1       8.120  20.435  53.586  1.00  0.00     0.003 A 
HETATM   30  C   UNL     1       7.898  21.699  53.041  1.00  0.00     0.002 A 
HETATM   31  C   UNL     1       7.755  22.818  53.873  1.00  0.00     0.033 A 
ENDBRANCH  23  25
ENDBRANCH  20  23
ENDBRANCH  17  18
ENDBRANCH   1  17
TORSDOF 5
ENDMDL
MODEL 5
REMARK VINA RESULT:     -10.1      1.818      2.792
REMARK  5 active torsions:
REMARK  status: ('A' for Active; 'I' for Inactive)
REMARK    1  A    between atoms: C_11  and  C_12 
REMARK    2  A    between atoms: C_12  and  S_13 
REMARK    3  A    between atoms: S_13  and  C_14 
REMARK    4  A    between atoms: C_16  and  N_17 
REMARK    5  A    between atoms: N_17  and  C_18 
ROOT
HETATM    1  C   UNL     1       6.326  27.315  57.152  1.00  0.00     0.121 C 
ENDROOT
BRANCH   1   2
HETATM    2  C   UNL     1       5.743  27.199  55.764  1.00  0.00    -0.029 A 
HETATM    3  C   UNL     1       6.092  26.012  54.899  1.00  0.00     0.016 A 
HETATM    4  C   UNL     1       6.999  24.912  55.207  1.00  0.00    -0.012 A 
HETATM    5  C   UNL     1       5.451  25.974  53.643  1.00  0.00     0.091 A 
HETATM    6  C   UNL     1       7.157  23.870  54.236  1.00  0.00    -0.025 A 
HETATM    7  C   UNL     1       7.785  24.722  56.385  1.00  0.00     0.013 A 
HETATM    8  C   UNL     1       8.004  22.770  54.458  1.00  0.00     0.012 A 
HETATM    9  C   UNL     1       6.476  23.904  53.020  1.00  0.00     0.015 A 
HETATM   10  C   UNL     1       8.734  22.639  55.630  1.00  0.00     0.001 A 
HETATM   11  C   UNL     1       8.626  23.619  56.595  1.00  0.00     0.001 A 
HETATM   12  C   UNL     1       5.629  24.951  52.717  1.00  0.00     0.039 A 
HETATM   13  O   UNL     1       4.565  26.972  53.188  1.00  0.00    -0.275 OA
HETATM   14  C   UNL     1       4.272  28.073  53.949  1.00  0.00     0.288 A 
HETATM   15  O   UNL     1       3.522  28.963  53.568  1.00  0.00    -0.260 OA
HETATM   16  C   UNL     1       4.901  28.125  55.268  1.00  0.00     0.091 A 
ENDBRANCH   1   2
BRANCH   1  17
HETATM   17  S   UNL     1       8.006  27.988  57.331  1.00  0.00    -0.096 SA
BRANCH  17  18
HETATM   18  C   UNL     1       7.621  29.509  58.110  1.00  0.00     0.160 A 
HETATM   19  S   UNL     1       8.660  30.291  59.217  1.00  0.00    -0.022 SA
HETATM   20  C   UNL     1       7.487  31.561  59.323  1.00  0.00     0.195 A 
HETATM   21  N   UNL     1       6.426  31.332  58.577  1.00  0.00    -0.123 NA
HETATM   22  N   UNL     1       6.498  30.149  57.876  1.00  0.00    -0.133 NA
BRANCH  20  23
HETATM   23  N   UNL     1       7.736  32.630  60.114  1.00  0.00    -0.331 N 
HETATM   24  H   UNL     1       8.165  33.446  59.689  1.00  0.00     0.168 HD
BRANCH  23  25
HETATM   25  C   UNL     1       7.433  32.822  61.479  1.00  0.00     0.073 A 
HETATM   26  C   UNL     1       6.221  33.455  61.807  1.00  0.00     0.143 A 
HETATM   27  F   UNL     1       5.402  33.847  60.816  1.00  0.00    -0.204 F 
HETATM   28  C   UNL     1       5.834  33.689  63.125  1.00  0.00     0.044 A 
HETATM   29  C   UNL     1       6.668  33.287  64.163  1.00  0.00     0.003 A 
HETATM   30  C   UNL     1       7.877  32.659  63.869  1.00  0.00     0.002 A 
HETATM   31  C   UNL     1       8.257  32.431  62.539  1.00  0.00     0.033 A 
ENDBRANCH  23  25
ENDBRANCH  20  23
ENDBRANCH  17  18
ENDBRANCH   1  17
TORSDOF 5
ENDMDL
MODEL 6
REMARK VINA RESULT:      -9.5      3.577      9.923
REMARK  5 active torsions:
REMARK  status: ('A' for Active; 'I' for Inactive)
REMARK    1  A    between atoms: C_11  and  C_12 
REMARK    2  A    between atoms: C_12  and  S_13 
REMARK    3  A    between atoms: S_13  and  C_14 
REMARK    4  A    between atoms: C_16  and  N_17 
REMARK    5  A    between atoms: N_17  and  C_18 
ROOT
HETATM    1  C   UNL     1       7.083  29.230  57.492  1.00  0.00     0.121 C 
ENDROOT
BRANCH   1   2
HETATM    2  C   UNL     1       5.949  30.190  57.759  1.00  0.00    -0.029 A 
HETATM    3  C   UNL     1       6.059  31.188  58.886  1.00  0.00     0.016 A 
HETATM    4  C   UNL     1       7.148  31.348  59.841  1.00  0.00    -0.012 A 
HETATM    5  C   UNL     1       4.967  32.073  59.014  1.00  0.00     0.091 A 
HETATM    6  C   UNL     1       7.049  32.392  60.818  1.00  0.00    -0.025 A 
HETATM    7  C   UNL     1       8.347  30.577  59.948  1.00  0.00     0.013 A 
HETATM    8  C   UNL     1       8.060  32.619  61.769  1.00  0.00     0.012 A 
HETATM    9  C   UNL     1       5.937  33.231  60.869  1.00  0.00     0.015 A 
HETATM   10  C   UNL     1       9.205  31.840  61.813  1.00  0.00     0.001 A 
HETATM   11  C   UNL     1       9.348  30.814  60.901  1.00  0.00     0.001 A 
HETATM   12  C   UNL     1       4.895  33.074  59.976  1.00  0.00     0.039 A 
HETATM   13  O   UNL     1       3.828  32.033  58.184  1.00  0.00    -0.275 OA
HETATM   14  C   UNL     1       3.701  31.105  57.184  1.00  0.00     0.288 A 
HETATM   15  O   UNL     1       2.714  31.037  56.463  1.00  0.00    -0.260 OA
HETATM   16  C   UNL     1       4.831  30.193  57.010  1.00  0.00     0.091 A 
ENDBRANCH   1   2
BRANCH   1  17
HETATM   17  S   UNL     1       7.775  29.154  55.812  1.00  0.00    -0.096 SA
BRANCH  17  18
HETATM   18  C   UNL     1       7.520  27.454  55.476  1.00  0.00     0.160 A 
HETATM   19  S   UNL     1       7.638  26.231  56.663  1.00  0.00    -0.022 SA
HETATM   20  C   UNL     1       7.210  25.087  55.434  1.00  0.00     0.195 A 
HETATM   21  N   UNL     1       7.031  25.653  54.257  1.00  0.00    -0.123 NA
HETATM   22  N   UNL     1       7.210  27.018  54.277  1.00  0.00    -0.133 NA
BRANCH  20  23
HETATM   23  N   UNL     1       7.095  23.779  55.757  1.00  0.00    -0.331 N 
HETATM   24  H   UNL     1       6.552  23.538  56.580  1.00  0.00     0.168 HD
BRANCH  23  25
HETATM   25  C   UNL     1       7.583  22.644  55.075  1.00  0.00     0.073 A 
HETATM   26  C   UNL     1       8.152  21.605  55.834  1.00  0.00     0.143 A 
HETATM   27  F   UNL     1       8.206  21.732  57.171  1.00  0.00    -0.204 F 
HETATM   28  C   UNL     1       8.659  20.446  55.252  1.00  0.00     0.044 A 
HETATM   29  C   UNL     1       8.608  20.298  53.870  1.00  0.00     0.003 A 
HETATM   30  C   UNL     1       8.053  21.310  53.090  1.00  0.00     0.002 A 
HETATM   31  C   UNL     1       7.546  22.473  53.687  1.00  0.00     0.033 A 
ENDBRANCH  23  25
ENDBRANCH  20  23
ENDBRANCH  17  18
ENDBRANCH   1  17
TORSDOF 5
ENDMDL
MODEL 7
REMARK VINA RESULT:      -9.5      2.300      4.639
REMARK  5 active torsions:
REMARK  status: ('A' for Active; 'I' for Inactive)
REMARK    1  A    between atoms: C_11  and  C_12 
REMARK    2  A    between atoms: C_12  and  S_13 
REMARK    3  A    between atoms: S_13  and  C_14 
REMARK    4  A    between atoms: C_16  and  N_17 
REMARK    5  A    between atoms: N_17  and  C_18 
ROOT
HETATM    1  C   UNL     1       7.088  26.923  57.134  1.00  0.00     0.121 C 
ENDROOT
BRANCH   1   2
HETATM    2  C   UNL     1       6.988  25.707  56.245  1.00  0.00    -0.029 A 
HETATM    3  C   UNL     1       6.258  25.797  54.927  1.00  0.00     0.016 A 
HETATM    4  C   UNL     1       5.554  26.945  54.368  1.00  0.00    -0.012 A 
HETATM    5  C   UNL     1       6.271  24.620  54.151  1.00  0.00     0.091 A 
HETATM    6  C   UNL     1       4.951  26.809  53.075  1.00  0.00    -0.025 A 
HETATM    7  C   UNL     1       5.370  28.237  54.950  1.00  0.00     0.013 A 
HETATM    8  C   UNL     1       4.262  27.869  52.459  1.00  0.00     0.012 A 
HETATM    9  C   UNL     1       5.019  25.609  52.367  1.00  0.00     0.015 A 
HETATM   10  C   UNL     1       4.128  29.104  53.076  1.00  0.00     0.001 A 
HETATM   11  C   UNL     1       4.681  29.287  54.327  1.00  0.00     0.001 A 
HETATM   12  C   UNL     1       5.671  24.514  52.900  1.00  0.00     0.039 A 
HETATM   13  O   UNL     1       6.887  23.420  54.561  1.00  0.00    -0.275 OA
HETATM   14  C   UNL     1       7.518  23.316  55.773  1.00  0.00     0.288 A 
HETATM   15  O   UNL     1       8.044  22.281  56.161  1.00  0.00    -0.260 OA
HETATM   16  C   UNL     1       7.546  24.531  56.587  1.00  0.00     0.091 A 
ENDBRANCH   1   2
BRANCH   1  17
HETATM   17  S   UNL     1       8.615  27.909  57.082  1.00  0.00    -0.096 SA
BRANCH  17  18
HETATM   18  C   UNL     1       8.058  29.340  57.925  1.00  0.00     0.160 A 
HETATM   19  S   UNL     1       9.076  30.332  58.873  1.00  0.00    -0.022 SA
HETATM   20  C   UNL     1       7.705  31.350  59.166  1.00  0.00     0.195 A 
HETATM   21  N   UNL     1       6.611  30.902  58.584  1.00  0.00    -0.123 NA
HETATM   22  N   UNL     1       6.809  29.743  57.868  1.00  0.00    -0.133 NA
BRANCH  20  23
HETATM   23  N   UNL     1       7.853  32.461  59.922  1.00  0.00    -0.331 N 
HETATM   24  H   UNL     1       8.277  33.277  59.489  1.00  0.00     0.168 HD
BRANCH  23  25
HETATM   25  C   UNL     1       7.446  32.699  61.251  1.00  0.00     0.073 A 
HETATM   26  C   UNL     1       8.340  32.375  62.288  1.00  0.00     0.143 A 
HETATM   27  F   UNL     1       9.540  31.859  61.974  1.00  0.00    -0.204 F 
HETATM   28  C   UNL     1       8.029  32.573  63.632  1.00  0.00     0.044 A 
HETATM   29  C   UNL     1       6.792  33.109  63.974  1.00  0.00     0.003 A 
HETATM   30  C   UNL     1       5.883  33.438  62.969  1.00  0.00     0.002 A 
HETATM   31  C   UNL     1       6.207  33.233  61.621  1.00  0.00     0.033 A 
ENDBRANCH  23  25
ENDBRANCH  20  23
ENDBRANCH  17  18
ENDBRANCH   1  17
TORSDOF 5
ENDMDL
MODEL 8
REMARK VINA RESULT:      -9.5      5.907      9.665
REMARK  5 active torsions:
REMARK  status: ('A' for Active; 'I' for Inactive)
REMARK    1  A    between atoms: C_11  and  C_12 
REMARK    2  A    between atoms: C_12  and  S_13 
REMARK    3  A    between atoms: S_13  and  C_14 
REMARK    4  A    between atoms: C_16  and  N_17 
REMARK    5  A    between atoms: N_17  and  C_18 
ROOT
HETATM    1  C   UNL     1       6.994  25.281  52.377  1.00  0.00     0.121 C 
ENDROOT
BRANCH   1   2
HETATM    2  C   UNL     1       7.658  24.297  53.311  1.00  0.00    -0.029 A 
HETATM    3  C   UNL     1       7.900  24.674  54.752  1.00  0.00     0.016 A 
HETATM    4  C   UNL     1       7.609  25.943  55.409  1.00  0.00    -0.012 A 
HETATM    5  C   UNL     1       8.475  23.663  55.549  1.00  0.00     0.091 A 
HETATM    6  C   UNL     1       7.902  26.067  56.807  1.00  0.00    -0.025 A 
HETATM    7  C   UNL     1       7.055  27.127  54.834  1.00  0.00     0.013 A 
HETATM    8  C   UNL     1       7.643  27.252  57.518  1.00  0.00     0.012 A 
HETATM    9  C   UNL     1       8.462  25.012  57.525  1.00  0.00     0.015 A 
HETATM   10  C   UNL     1       7.094  28.365  56.901  1.00  0.00     0.001 A 
HETATM   11  C   UNL     1       6.801  28.304  55.554  1.00  0.00     0.001 A 
HETATM   12  C   UNL     1       8.754  23.814  56.904  1.00  0.00     0.039 A 
HETATM   13  O   UNL     1       8.836  22.391  55.058  1.00  0.00    -0.275 OA
HETATM   14  C   UNL     1       8.656  22.053  53.743  1.00  0.00     0.288 A 
HETATM   15  O   UNL     1       8.979  20.963  53.288  1.00  0.00    -0.260 OA
HETATM   16  C   UNL     1       8.035  23.072  52.898  1.00  0.00     0.091 A 
ENDBRANCH   1   2
BRANCH   1  17
HETATM   17  S   UNL     1       5.189  25.201  52.176  1.00  0.00    -0.096 SA
BRANCH  17  18
HETATM   18  C   UNL     1       5.011  26.255  50.788  1.00  0.00     0.160 A 
HETATM   19  S   UNL     1       4.123  25.832  49.391  1.00  0.00    -0.022 SA
HETATM   20  C   UNL     1       4.504  27.397  48.753  1.00  0.00     0.195 A 
HETATM   21  N   UNL     1       5.254  28.107  49.572  1.00  0.00    -0.123 NA
HETATM   22  N   UNL     1       5.550  27.452  50.746  1.00  0.00    -0.133 NA
BRANCH  20  23
HETATM   23  N   UNL     1       4.028  27.752  47.538  1.00  0.00    -0.331 N 
HETATM   24  H   UNL     1       4.668  27.718  46.750  1.00  0.00     0.168 HD
BRANCH  23  25
HETATM   25  C   UNL     1       2.720  28.122  47.163  1.00  0.00     0.073 A 
HETATM   26  C   UNL     1       1.827  27.106  46.774  1.00  0.00     0.143 A 
HETATM   27  F   UNL     1       2.251  25.831  46.778  1.00  0.00    -0.204 F 
HETATM   28  C   UNL     1       0.516  27.373  46.387  1.00  0.00     0.044 A 
HETATM   29  C   UNL     1       0.060  28.687  46.381  1.00  0.00     0.003 A 
HETATM   30  C   UNL     1       0.921  29.715  46.758  1.00  0.00     0.002 A 
HETATM   31  C   UNL     1       2.239  29.435  47.144  1.00  0.00     0.033 A 
ENDBRANCH  23  25
ENDBRANCH  20  23
ENDBRANCH  17  18
ENDBRANCH   1  17
TORSDOF 5
ENDMDL
MODEL 9
REMARK VINA RESULT:      -9.3      5.325      7.226
REMARK  5 active torsions:
REMARK  status: ('A' for Active; 'I' for Inactive)
REMARK    1  A    between atoms: C_11  and  C_12 
REMARK    2  A    between atoms: C_12  and  S_13 
REMARK    3  A    between atoms: S_13  and  C_14 
REMARK    4  A    between atoms: C_16  and  N_17 
REMARK    5  A    between atoms: N_17  and  C_18 
ROOT
HETATM    1  C   UNL     1       7.004  25.732  52.350  1.00  0.00     0.121 C 
ENDROOT
BRANCH   1   2
HETATM    2  C   UNL     1       7.233  26.032  53.812  1.00  0.00    -0.029 A 
HETATM    3  C   UNL     1       7.637  24.924  54.753  1.00  0.00     0.016 A 
HETATM    4  C   UNL     1       7.809  23.507  54.451  1.00  0.00    -0.012 A 
HETATM    5  C   UNL     1       7.878  25.323  56.084  1.00  0.00     0.091 A 
HETATM    6  C   UNL     1       8.228  22.633  55.506  1.00  0.00    -0.025 A 
HETATM    7  C   UNL     1       7.608  22.842  53.203  1.00  0.00     0.013 A 
HETATM    8  C   UNL     1       8.427  21.257  55.297  1.00  0.00     0.012 A 
HETATM    9  C   UNL     1       8.456  23.112  56.795  1.00  0.00     0.015 A 
HETATM   10  C   UNL     1       8.223  20.673  54.056  1.00  0.00     0.001 A 
HETATM   11  C   UNL     1       7.810  21.468  53.006  1.00  0.00     0.001 A 
HETATM   12  C   UNL     1       8.278  24.450  57.090  1.00  0.00     0.039 A 
HETATM   13  O   UNL     1       7.732  26.649  56.541  1.00  0.00    -0.275 OA
HETATM   14  C   UNL     1       7.328  27.656  55.704  1.00  0.00     0.288 A 
HETATM   15  O   UNL     1       7.176  28.811  56.079  1.00  0.00    -0.260 OA
HETATM   16  C   UNL     1       7.099  27.276  54.310  1.00  0.00     0.091 A 
ENDBRANCH   1   2
BRANCH   1  17
HETATM   17  S   UNL     1       5.321  25.312  51.806  1.00  0.00    -0.096 SA
BRANCH  17  18
HETATM   18  C   UNL     1       5.056  26.616  50.667  1.00  0.00     0.160 A 
HETATM   19  S   UNL     1       5.201  28.268  51.076  1.00  0.00    -0.022 SA
HETATM   20  C   UNL     1       4.828  28.643  49.426  1.00  0.00     0.195 A 
HETATM   21  N   UNL     1       4.607  27.565  48.701  1.00  0.00    -0.123 NA
HETATM   22  N   UNL     1       4.737  26.394  49.413  1.00  0.00    -0.133 NA
BRANCH  20  23
HETATM   23  N   UNL     1       4.797  29.936  49.031  1.00  0.00    -0.331 N 
HETATM   24  H   UNL     1       4.862  30.130  48.036  1.00  0.00     0.168 HD
BRANCH  23  25
HETATM   25  C   UNL     1       4.624  31.104  49.803  1.00  0.00     0.073 A 
HETATM   26  C   UNL     1       5.731  31.955  49.978  1.00  0.00     0.143 A 
HETATM   27  F   UNL     1       6.900  31.627  49.403  1.00  0.00    -0.204 F 
HETATM   28  C   UNL     1       5.659  33.130  50.723  1.00  0.00     0.044 A 
HETATM   29  C   UNL     1       4.455  33.485  51.323  1.00  0.00     0.003 A 
HETATM   30  C   UNL     1       3.341  32.661  51.170  1.00  0.00     0.002 A 
HETATM   31  C   UNL     1       3.426  31.480  50.419  1.00  0.00     0.033 A 
ENDBRANCH  23  25
ENDBRANCH  20  23
ENDBRANCH  17  18
ENDBRANCH   1  17
TORSDOF 5
ENDMDL
MODEL 10
REMARK VINA RESULT:      -9.2      2.089      2.807
REMARK  5 active torsions:
REMARK  status: ('A' for Active; 'I' for Inactive)
REMARK    1  A    between atoms: C_11  and  C_12 
REMARK    2  A    between atoms: C_12  and  S_13 
REMARK    3  A    between atoms: S_13  and  C_14 
REMARK    4  A    between atoms: C_16  and  N_17 
REMARK    5  A    between atoms: N_17  and  C_18 
ROOT
HETATM    1  C   UNL     1       6.640  26.786  56.549  1.00  0.00     0.121 C 
ENDROOT
BRANCH   1   2
HETATM    2  C   UNL     1       6.671  26.709  55.042  1.00  0.00    -0.029 A 
HETATM    3  C   UNL     1       7.161  25.453  54.364  1.00  0.00     0.016 A 
HETATM    4  C   UNL     1       7.680  24.240  54.986  1.00  0.00    -0.012 A 
HETATM    5  C   UNL     1       7.097  25.466  52.955  1.00  0.00     0.091 A 
HETATM    6  C   UNL     1       8.064  23.151  54.137  1.00  0.00    -0.025 A 
HETATM    7  C   UNL     1       7.871  23.976  56.377  1.00  0.00     0.013 A 
HETATM    8  C   UNL     1       8.565  21.944  54.657  1.00  0.00     0.012 A 
HETATM    9  C   UNL     1       7.960  23.243  52.750  1.00  0.00     0.015 A 
HETATM   10  C   UNL     1       8.717  21.748  56.021  1.00  0.00     0.001 A 
HETATM   11  C   UNL     1       8.371  22.767  56.883  1.00  0.00     0.001 A 
HETATM   12  C   UNL     1       7.484  24.395  52.155  1.00  0.00     0.039 A 
HETATM   13  O   UNL     1       6.643  26.569  52.204  1.00  0.00    -0.275 OA
HETATM   14  C   UNL     1       6.233  27.729  52.808  1.00  0.00     0.288 A 
HETATM   15  O   UNL     1       5.852  28.707  52.178  1.00  0.00    -0.260 OA
HETATM   16  C   UNL     1       6.261  27.733  54.270  1.00  0.00     0.091 A 
ENDBRANCH   1   2
BRANCH   1  17
HETATM   17  S   UNL     1       7.893  27.801  57.390  1.00  0.00    -0.096 SA
BRANCH  17  18
HETATM   18  C   UNL     1       6.925  29.221  57.732  1.00  0.00     0.160 A 
HETATM   19  S   UNL     1       7.551  30.636  58.456  1.00  0.00    -0.022 SA
HETATM   20  C   UNL     1       5.972  31.333  58.309  1.00  0.00     0.195 A 
HETATM   21  N   UNL     1       5.102  30.502  57.771  1.00  0.00    -0.123 NA
HETATM   22  N   UNL     1       5.647  29.283  57.438  1.00  0.00    -0.133 NA
BRANCH  20  23
HETATM   23  N   UNL     1       5.765  32.602  58.729  1.00  0.00    -0.331 N 
HETATM   24  H   UNL     1       6.227  33.351  58.222  1.00  0.00     0.168 HD
BRANCH  23  25
HETATM   25  C   UNL     1       4.933  33.076  59.765  1.00  0.00     0.073 A 
HETATM   26  C   UNL     1       5.430  33.050  61.080  1.00  0.00     0.143 A 
HETATM   27  F   UNL     1       6.670  32.580  61.298  1.00  0.00    -0.204 F 
HETATM   28  C   UNL     1       4.684  33.496  62.169  1.00  0.00     0.044 A 
HETATM   29  C   UNL     1       3.399  33.987  61.961  1.00  0.00     0.003 A 
HETATM   30  C   UNL     1       2.878  34.024  60.669  1.00  0.00     0.002 A 
HETATM   31  C   UNL     1       3.638  33.571  59.581  1.00  0.00     0.033 A 
ENDBRANCH  23  25
ENDBRANCH  20  23
ENDBRANCH  17  18
ENDBRANCH   1  17
TORSDOF 5
ENDMDL
