MODEL 1
REMARK VINA RESULT:     -10.0      0.000      0.000
REMARK  6 active torsions:
REMARK  status: ('A' for Active; 'I' for Inactive)
REMARK    1  A    between atoms: C_7  and  C_8 
REMARK    2  A    between atoms: C_8  and  O_9 
REMARK    3  A    between atoms: N_12  and  C_13 
REMARK    4  A    between atoms: C_13  and  C_14 
REMARK    5  A    between atoms: C_14  and  C_15 
REMARK    6  A    between atoms: C_15  and  C_16 
ROOT
HETATM    1  C   UNL     1       6.159  28.188  56.572  1.00  0.00     0.199 A 
HETATM    2  C   UNL     1       6.222  26.656  56.251  1.00  0.00     0.269 A 
HETATM    3  O   UNL     1       6.786  25.781  56.897  1.00  0.00    -0.269 OA
HETATM    4  N   UNL     1       5.461  26.448  55.084  1.00  0.00    -0.314 N 
HETATM    5  C   UNL     1       4.964  27.660  54.579  1.00  0.00     0.047 A 
HETATM    6  C   UNL     1       5.360  28.719  55.403  1.00  0.00     0.017 A 
HETATM    7  C   UNL     1       4.199  27.880  53.447  1.00  0.00     0.030 A 
HETATM    8  C   UNL     1       3.830  29.195  53.146  1.00  0.00     0.002 A 
HETATM    9  C   UNL     1       4.222  30.260  53.973  1.00  0.00     0.001 A 
HETATM   10  C   UNL     1       4.987  30.026  55.115  1.00  0.00     0.013 A 
ENDROOT
BRANCH   1  11
HETATM   11  C   UNL     1       7.517  28.856  56.535  1.00  0.00     0.025 A 
HETATM   12  C   UNL     1       8.428  28.841  55.477  1.00  0.00     0.016 A 
HETATM   13  C   UNL     1       8.360  28.200  54.135  1.00  0.00     0.069 C 
HETATM   14  N   UNL     1       9.518  29.590  55.837  1.00  0.00    -0.359 N 
HETATM   15  H   UNL     1      10.322  29.761  55.251  1.00  0.00     0.166 HD
HETATM   16  C   UNL     1       9.369  30.090  57.105  1.00  0.00     0.043 A 
HETATM   17  C   UNL     1       8.132  29.651  57.578  1.00  0.00     0.003 A 
HETATM   18  C   UNL     1      10.237  30.896  57.853  1.00  0.00     0.030 A 
HETATM   19  C   UNL     1       7.758  30.045  58.883  1.00  0.00     0.014 A 
HETATM   20  C   UNL     1       8.612  30.851  59.648  1.00  0.00     0.001 A 
HETATM   21  C   UNL     1       9.834  31.271  59.136  1.00  0.00     0.002 A 
ENDBRANCH   1  11
BRANCH   1  22
HETATM   22  O   UNL     1       5.429  28.431  57.773  1.00  0.00    -0.371 OA
HETATM   23  H   UNL     1       4.579  28.817  57.508  1.00  0.00     0.212 HD
ENDBRANCH   1  22
BRANCH   4  24
HETATM   24  C   UNL     1       5.362  25.161  54.430  1.00  0.00     0.133 C 
BRANCH  24  25
HETATM   25  C   UNL     1       6.328  24.983  53.259  1.00  0.00     0.025 C 
BRANCH  25  26
HETATM   26  C   UNL     1       7.732  24.566  53.701  1.00  0.00     0.040 C 
BRANCH  26  27
HETATM   27  C   UNL     1       7.803  23.080  53.959  1.00  0.00    -0.058 A 
HETATM   28  C   UNL     1       7.723  22.582  55.267  1.00  0.00     0.007 A 
HETATM   29  C   UNL     1       7.825  21.212  55.511  1.00  0.00     0.001 A 
HETATM   30  C   UNL     1       8.007  20.325  54.450  1.00  0.00     0.000 A 
HETATM   31  C   UNL     1       8.086  20.809  53.146  1.00  0.00     0.001 A 
HETATM   32  C   UNL     1       7.986  22.180  52.901  1.00  0.00     0.007 A 
ENDBRANCH  26  27
ENDBRANCH  25  26
ENDBRANCH  24  25
ENDBRANCH   4  24
TORSDOF 6
ENDMDL
MODEL 2
REMARK VINA RESULT:      -9.9      2.320      8.058
REMARK  6 active torsions:
REMARK  status: ('A' for Active; 'I' for Inactive)
REMARK    1  A    between atoms: C_7  and  C_8 
REMARK    2  A    between atoms: C_8  and  O_9 
REMARK    3  A    between atoms: N_12  and  C_13 
REMARK    4  A    between atoms: C_13  and  C_14 
REMARK    5  A    between atoms: C_14  and  C_15 
REMARK    6  A    between atoms: C_15  and  C_16 
ROOT
HETATM    1  C   UNL     1       7.662  28.027  55.512  1.00  0.00     0.199 A 
HETATM    2  C   UNL     1       8.469  28.573  56.739  1.00  0.00     0.269 A 
HETATM    3  O   UNL     1       9.659  28.412  56.979  1.00  0.00    -0.269 OA
HETATM    4  N   UNL     1       7.574  29.335  57.515  1.00  0.00    -0.314 N 
HETATM    5  C   UNL     1       6.279  29.303  56.974  1.00  0.00     0.047 A 
HETATM    6  C   UNL     1       6.268  28.531  55.807  1.00  0.00     0.017 A 
HETATM    7  C   UNL     1       5.124  29.900  57.449  1.00  0.00     0.030 A 
HETATM    8  C   UNL     1       3.940  29.711  56.730  1.00  0.00     0.002 A 
HETATM    9  C   UNL     1       3.926  28.942  55.556  1.00  0.00     0.001 A 
HETATM   10  C   UNL     1       5.096  28.350  55.081  1.00  0.00     0.013 A 
ENDROOT
BRANCH   1  11
HETATM   11  C   UNL     1       7.599  26.515  55.470  1.00  0.00     0.025 A 
HETATM   12  C   UNL     1       7.459  25.653  56.559  1.00  0.00     0.016 A 
HETATM   13  C   UNL     1       7.339  25.930  58.017  1.00  0.00     0.069 C 
HETATM   14  N   UNL     1       7.415  24.368  56.088  1.00  0.00    -0.359 N 
HETATM   15  H   UNL     1       7.301  23.544  56.662  1.00  0.00     0.166 HD
HETATM   16  C   UNL     1       7.537  24.344  54.723  1.00  0.00     0.043 A 
HETATM   17  C   UNL     1       7.658  25.667  54.297  1.00  0.00     0.003 A 
HETATM   18  C   UNL     1       7.543  23.250  53.847  1.00  0.00     0.030 A 
HETATM   19  C   UNL     1       7.800  25.893  52.909  1.00  0.00     0.014 A 
HETATM   20  C   UNL     1       7.809  24.813  52.016  1.00  0.00     0.001 A 
HETATM   21  C   UNL     1       7.680  23.510  52.482  1.00  0.00     0.002 A 
ENDBRANCH   1  11
BRANCH   1  22
HETATM   22  O   UNL     1       8.116  28.620  54.295  1.00  0.00    -0.371 OA
HETATM   23  H   UNL     1       9.083  28.534  54.290  1.00  0.00     0.212 HD
ENDBRANCH   1  22
BRANCH   4  24
HETATM   24  C   UNL     1       7.941  29.926  58.782  1.00  0.00     0.133 C 
BRANCH  24  25
HETATM   25  C   UNL     1       8.323  31.403  58.692  1.00  0.00     0.025 C 
BRANCH  25  26
HETATM   26  C   UNL     1       9.194  31.868  59.861  1.00  0.00     0.040 C 
BRANCH  26  27
HETATM   27  C   UNL     1       8.348  32.269  61.046  1.00  0.00    -0.058 A 
HETATM   28  C   UNL     1       7.109  32.897  60.854  1.00  0.00     0.007 A 
HETATM   29  C   UNL     1       6.343  33.301  61.947  1.00  0.00     0.001 A 
HETATM   30  C   UNL     1       6.805  33.080  63.244  1.00  0.00     0.000 A 
HETATM   31  C   UNL     1       8.033  32.454  63.446  1.00  0.00     0.001 A 
HETATM   32  C   UNL     1       8.802  32.052  62.353  1.00  0.00     0.007 A 
ENDBRANCH  26  27
ENDBRANCH  25  26
ENDBRANCH  24  25
ENDBRANCH   4  24
TORSDOF 6
ENDMDL
MODEL 3
REMARK VINA RESULT:      -9.9      1.493      2.158
REMARK  6 active torsions:
REMARK  status: ('A' for Active; 'I' for Inactive)
REMARK    1  A    between atoms: C_7  and  C_8 
REMARK    2  A    between atoms: C_8  and  O_9 
REMARK    3  A    between atoms: N_12  and  C_13 
REMARK    4  A    between atoms: C_13  and  C_14 
REMARK    5  A    between atoms: C_14  and  C_15 
REMARK    6  A    between atoms: C_15  and  C_16 
ROOT
HETATM    1  C   UNL     1       5.179  28.097  56.168  1.00  0.00     0.199 A 
HETATM    2  C   UNL     1       6.082  26.824  56.035  1.00  0.00     0.269 A 
HETATM    3  O   UNL     1       6.442  26.069  56.929  1.00  0.00    -0.269 OA
HETATM    4  N   UNL     1       6.380  26.671  54.666  1.00  0.00    -0.314 N 
HETATM    5  C   UNL     1       5.831  27.716  53.908  1.00  0.00     0.047 A 
HETATM    6  C   UNL     1       5.131  28.595  54.741  1.00  0.00     0.017 A 
HETATM    7  C   UNL     1       5.918  27.938  52.544  1.00  0.00     0.030 A 
HETATM    8  C   UNL     1       5.286  29.069  52.018  1.00  0.00     0.002 A 
HETATM    9  C   UNL     1       4.578  29.951  52.850  1.00  0.00     0.001 A 
HETATM   10  C   UNL     1       4.491  29.714  54.222  1.00  0.00     0.013 A 
ENDROOT
BRANCH   1  11
HETATM   11  C   UNL     1       5.811  29.185  57.009  1.00  0.00     0.025 A 
HETATM   12  C   UNL     1       5.145  30.171  57.738  1.00  0.00     0.016 A 
HETATM   13  C   UNL     1       3.693  30.452  57.907  1.00  0.00     0.069 C 
HETATM   14  N   UNL     1       6.082  30.937  58.382  1.00  0.00    -0.359 N 
HETATM   15  H   UNL     1       5.875  31.713  58.994  1.00  0.00     0.166 HD
HETATM   16  C   UNL     1       7.350  30.502  58.093  1.00  0.00     0.043 A 
HETATM   17  C   UNL     1       7.225  29.410  57.234  1.00  0.00     0.003 A 
HETATM   18  C   UNL     1       8.584  30.996  58.534  1.00  0.00     0.030 A 
HETATM   19  C   UNL     1       8.415  28.789  56.792  1.00  0.00     0.014 A 
HETATM   20  C   UNL     1       9.660  29.268  57.222  1.00  0.00     0.001 A 
HETATM   21  C   UNL     1       9.740  30.356  58.083  1.00  0.00     0.002 A 
ENDBRANCH   1  11
BRANCH   1  22
HETATM   22  O   UNL     1       3.857  27.747  56.575  1.00  0.00    -0.371 OA
HETATM   23  H   UNL     1       3.944  26.995  57.183  1.00  0.00     0.212 HD
ENDBRANCH   1  22
BRANCH   4  24
HETATM   24  C   UNL     1       7.272  25.648  54.167  1.00  0.00     0.133 C 
BRANCH  24  25
HETATM   25  C   UNL     1       6.561  24.384  53.685  1.00  0.00     0.025 C 
BRANCH  25  26
HETATM   26  C   UNL     1       7.486  23.430  52.928  1.00  0.00     0.040 C 
BRANCH  26  27
HETATM   27  C   UNL     1       7.823  22.218  53.764  1.00  0.00    -0.058 A 
HETATM   28  C   UNL     1       7.587  22.222  55.146  1.00  0.00     0.007 A 
HETATM   29  C   UNL     1       7.931  21.117  55.926  1.00  0.00     0.001 A 
HETATM   30  C   UNL     1       8.512  19.997  55.334  1.00  0.00     0.000 A 
HETATM   31  C   UNL     1       8.749  19.982  53.961  1.00  0.00     0.001 A 
HETATM   32  C   UNL     1       8.407  21.088  53.179  1.00  0.00     0.007 A 
ENDBRANCH  26  27
ENDBRANCH  25  26
ENDBRANCH  24  25
ENDBRANCH   4  24
TORSDOF 6
ENDMDL
MODEL 4
REMARK VINA RESULT:      -9.4      2.764      6.670
REMARK  6 active torsions:
REMARK  status: ('A' for Active; 'I' for Inactive)
REMARK    1  A    between atoms: C_7  and  C_8 
REMARK    2  A    between atoms: C_8  and  O_9 
REMARK    3  A    between atoms: N_12  and  C_13 
REMARK    4  A    between atoms: C_13  and  C_14 
REMARK    5  A    between atoms: C_14  and  C_15 
REMARK    6  A    between atoms: C_15  and  C_16 
ROOT
HETATM    1  C   UNL     1       6.214  25.193  55.170  1.00  0.00     0.199 A 
HETATM    2  C   UNL     1       5.322  25.963  54.137  1.00  0.00     0.269 A 
HETATM    3  O   UNL     1       4.474  25.492  53.389  1.00  0.00    -0.269 OA
HETATM    4  N   UNL     1       5.644  27.329  54.252  1.00  0.00    -0.314 N 
HETATM    5  C   UNL     1       6.671  27.532  55.187  1.00  0.00     0.047 A 
HETATM    6  C   UNL     1       7.059  26.309  55.743  1.00  0.00     0.017 A 
HETATM    7  C   UNL     1       7.279  28.716  55.565  1.00  0.00     0.030 A 
HETATM    8  C   UNL     1       8.297  28.658  56.521  1.00  0.00     0.002 A 
HETATM    9  C   UNL     1       8.687  27.433  57.086  1.00  0.00     0.001 A 
HETATM   10  C   UNL     1       8.062  26.246  56.703  1.00  0.00     0.013 A 
ENDROOT
BRANCH   1  11
HETATM   11  C   UNL     1       7.153  24.201  54.518  1.00  0.00     0.025 A 
HETATM   12  C   UNL     1       7.713  24.293  53.243  1.00  0.00     0.016 A 
HETATM   13  C   UNL     1       7.569  25.329  52.183  1.00  0.00     0.069 C 
HETATM   14  N   UNL     1       8.527  23.208  53.050  1.00  0.00    -0.359 N 
HETATM   15  H   UNL     1       9.071  23.032  52.218  1.00  0.00     0.166 HD
HETATM   16  C   UNL     1       8.516  22.389  54.150  1.00  0.00     0.043 A 
HETATM   17  C   UNL     1       7.666  22.972  55.090  1.00  0.00     0.003 A 
HETATM   18  C   UNL     1       9.199  21.186  54.373  1.00  0.00     0.030 A 
HETATM   19  C   UNL     1       7.493  22.297  56.319  1.00  0.00     0.014 A 
HETATM   20  C   UNL     1       8.167  21.092  56.561  1.00  0.00     0.001 A 
HETATM   21  C   UNL     1       9.010  20.548  55.600  1.00  0.00     0.002 A 
ENDBRANCH   1  11
BRANCH   1  22
HETATM   22  O   UNL     1       5.421  24.635  56.217  1.00  0.00    -0.371 OA
HETATM   23  H   UNL     1       4.534  25.021  56.129  1.00  0.00     0.212 HD
ENDBRANCH   1  22
BRANCH   4  24
HETATM   24  C   UNL     1       5.082  28.343  53.387  1.00  0.00     0.133 C 
BRANCH  24  25
HETATM   25  C   UNL     1       5.941  28.663  52.164  1.00  0.00     0.025 C 
BRANCH  25  26
HETATM   26  C   UNL     1       5.141  29.288  51.019  1.00  0.00     0.040 C 
BRANCH  26  27
HETATM   27  C   UNL     1       5.024  28.336  49.853  1.00  0.00    -0.058 A 
HETATM   28  C   UNL     1       5.399  28.741  48.565  1.00  0.00     0.007 A 
HETATM   29  C   UNL     1       5.257  27.874  47.480  1.00  0.00     0.001 A 
HETATM   30  C   UNL     1       4.740  26.594  47.672  1.00  0.00     0.000 A 
HETATM   31  C   UNL     1       4.366  26.180  48.949  1.00  0.00     0.001 A 
HETATM   32  C   UNL     1       4.506  27.046  50.035  1.00  0.00     0.007 A 
ENDBRANCH  26  27
ENDBRANCH  25  26
ENDBRANCH  24  25
ENDBRANCH   4  24
TORSDOF 6
ENDMDL
MODEL 5
REMARK VINA RESULT:      -9.4      1.683      2.140
REMARK  6 active torsions:
REMARK  status: ('A' for Active; 'I' for Inactive)
REMARK    1  A    between atoms: C_7  and  C_8 
REMARK    2  A    between atoms: C_8  and  O_9 
REMARK    3  A    between atoms: N_12  and  C_13 
REMARK    4  A    between atoms: C_13  and  C_14 
REMARK    5  A    between atoms: C_14  and  C_15 
REMARK    6  A    between atoms: C_15  and  C_16 
ROOT
HETATM    1  C   UNL     1       4.791  28.140  55.984  1.00  0.00     0.199 A 
HETATM    2  C   UNL     1       5.310  26.662  55.935  1.00  0.00     0.269 A 
HETATM    3  O   UNL     1       5.491  25.904  56.880  1.00  0.00    -0.269 OA
HETATM    4  N   UNL     1       5.497  26.336  54.578  1.00  0.00    -0.314 N 
HETATM    5  C   UNL     1       5.219  27.434  53.749  1.00  0.00     0.047 A 
HETATM    6  C   UNL     1       4.819  28.528  54.523  1.00  0.00     0.017 A 
HETATM    7  C   UNL     1       5.304  27.524  52.371  1.00  0.00     0.030 A 
HETATM    8  C   UNL     1       4.979  28.743  51.768  1.00  0.00     0.002 A 
HETATM    9  C   UNL     1       4.573  29.842  52.541  1.00  0.00     0.001 A 
HETATM   10  C   UNL     1       4.483  29.739  53.929  1.00  0.00     0.013 A 
ENDROOT
BRANCH   1  11
HETATM   11  C   UNL     1       5.729  29.072  56.720  1.00  0.00     0.025 A 
HETATM   12  C   UNL     1       7.124  29.052  56.688  1.00  0.00     0.016 A 
HETATM   13  C   UNL     1       8.074  28.159  55.968  1.00  0.00     0.069 C 
HETATM   14  N   UNL     1       7.588  30.080  57.466  1.00  0.00    -0.359 N 
HETATM   15  H   UNL     1       8.562  30.307  57.606  1.00  0.00     0.166 HD
HETATM   16  C   UNL     1       6.548  30.775  58.027  1.00  0.00     0.043 A 
HETATM   17  C   UNL     1       5.368  30.175  57.589  1.00  0.00     0.003 A 
HETATM   18  C   UNL     1       6.575  31.886  58.880  1.00  0.00     0.030 A 
HETATM   19  C   UNL     1       4.149  30.725  58.046  1.00  0.00     0.014 A 
HETATM   20  C   UNL     1       4.154  31.836  58.900  1.00  0.00     0.001 A 
HETATM   21  C   UNL     1       5.353  32.407  59.309  1.00  0.00     0.002 A 
ENDBRANCH   1  11
BRANCH   1  22
HETATM   22  O   UNL     1       3.442  28.194  56.447  1.00  0.00    -0.371 OA
HETATM   23  H   UNL     1       3.473  28.049  57.407  1.00  0.00     0.212 HD
ENDBRANCH   1  22
BRANCH   4  24
HETATM   24  C   UNL     1       6.057  25.075  54.144  1.00  0.00     0.133 C 
BRANCH  24  25
HETATM   25  C   UNL     1       7.559  25.125  53.865  1.00  0.00     0.025 C 
BRANCH  25  26
HETATM   26  C   UNL     1       8.016  24.065  52.861  1.00  0.00     0.040 C 
BRANCH  26  27
HETATM   27  C   UNL     1       8.255  22.738  53.541  1.00  0.00    -0.058 A 
HETATM   28  C   UNL     1       8.788  22.689  54.836  1.00  0.00     0.007 A 
HETATM   29  C   UNL     1       9.043  21.463  55.452  1.00  0.00     0.001 A 
HETATM   30  C   UNL     1       8.767  20.273  54.779  1.00  0.00     0.000 A 
HETATM   31  C   UNL     1       8.235  20.310  53.492  1.00  0.00     0.001 A 
HETATM   32  C   UNL     1       7.981  21.536  52.874  1.00  0.00     0.007 A 
ENDBRANCH  26  27
ENDBRANCH  25  26
ENDBRANCH  24  25
ENDBRANCH   4  24
TORSDOF 6
ENDMDL
MODEL 6
REMARK VINA RESULT:      -9.0      7.186     10.888
REMARK  6 active torsions:
REMARK  status: ('A' for Active; 'I' for Inactive)
REMARK    1  A    between atoms: C_7  and  C_8 
REMARK    2  A    between atoms: C_8  and  O_9 
REMARK    3  A    between atoms: N_12  and  C_13 
REMARK    4  A    between atoms: C_13  and  C_14 
REMARK    5  A    between atoms: C_14  and  C_15 
REMARK    6  A    between atoms: C_15  and  C_16 
ROOT
HETATM    1  C   UNL     1       3.858  35.288  64.482  1.00  0.00     0.199 A 
HETATM    2  C   UNL     1       2.841  34.553  63.543  1.00  0.00     0.269 A 
HETATM    3  O   UNL     1       2.258  33.498  63.757  1.00  0.00    -0.269 OA
HETATM    4  N   UNL     1       2.679  35.359  62.399  1.00  0.00    -0.314 N 
HETATM    5  C   UNL     1       3.506  36.492  62.456  1.00  0.00     0.047 A 
HETATM    6  C   UNL     1       4.237  36.491  63.649  1.00  0.00     0.017 A 
HETATM    7  C   UNL     1       3.654  37.506  61.525  1.00  0.00     0.030 A 
HETATM    8  C   UNL     1       4.558  38.534  61.809  1.00  0.00     0.002 A 
HETATM    9  C   UNL     1       5.290  38.540  63.008  1.00  0.00     0.001 A 
HETATM   10  C   UNL     1       5.127  37.517  63.942  1.00  0.00     0.013 A 
ENDROOT
BRANCH   1  11
HETATM   11  C   UNL     1       5.121  34.489  64.727  1.00  0.00     0.025 A 
HETATM   12  C   UNL     1       5.674  34.158  65.964  1.00  0.00     0.016 A 
HETATM   13  C   UNL     1       5.230  34.470  67.350  1.00  0.00     0.069 C 
HETATM   14  N   UNL     1       6.797  33.403  65.746  1.00  0.00    -0.359 N 
HETATM   15  H   UNL     1       7.383  33.014  66.470  1.00  0.00     0.166 HD
HETATM   16  C   UNL     1       7.017  33.233  64.403  1.00  0.00     0.043 A 
HETATM   17  C   UNL     1       5.993  33.900  63.730  1.00  0.00     0.003 A 
HETATM   18  C   UNL     1       8.042  32.537  63.749  1.00  0.00     0.030 A 
HETATM   19  C   UNL     1       6.012  33.865  62.317  1.00  0.00     0.014 A 
HETATM   20  C   UNL     1       7.028  33.175  61.644  1.00  0.00     0.001 A 
HETATM   21  C   UNL     1       8.028  32.519  62.353  1.00  0.00     0.002 A 
ENDBRANCH   1  11
BRANCH   1  22
HETATM   22  O   UNL     1       3.220  35.739  65.675  1.00  0.00    -0.371 OA
HETATM   23  H   UNL     1       2.801  36.588  65.462  1.00  0.00     0.212 HD
ENDBRANCH   1  22
BRANCH   4  24
HETATM   24  C   UNL     1       1.879  34.959  61.264  1.00  0.00     0.133 C 
BRANCH  24  25
HETATM   25  C   UNL     1       2.681  34.314  60.134  1.00  0.00     0.025 C 
BRANCH  25  26
HETATM   26  C   UNL     1       3.090  32.872  60.439  1.00  0.00     0.040 C 
BRANCH  26  27
HETATM   27  C   UNL     1       3.830  32.258  59.274  1.00  0.00    -0.058 A 
HETATM   28  C   UNL     1       4.884  32.947  58.659  1.00  0.00     0.007 A 
HETATM   29  C   UNL     1       5.545  32.397  57.560  1.00  0.00     0.001 A 
HETATM   30  C   UNL     1       5.160  31.151  57.065  1.00  0.00     0.000 A 
HETATM   31  C   UNL     1       4.114  30.456  57.670  1.00  0.00     0.001 A 
HETATM   32  C   UNL     1       3.451  31.007  58.769  1.00  0.00     0.007 A 
ENDBRANCH  26  27
ENDBRANCH  25  26
ENDBRANCH  24  25
ENDBRANCH   4  24
TORSDOF 6
ENDMDL
MODEL 7
REMARK VINA RESULT:      -9.0      6.424      9.711
REMARK  6 active torsions:
REMARK  status: ('A' for Active; 'I' for Inactive)
REMARK    1  A    between atoms: C_7  and  C_8 
REMARK    2  A    between atoms: C_8  and  O_9 
REMARK    3  A    between atoms: N_12  and  C_13 
REMARK    4  A    between atoms: C_13  and  C_14 
REMARK    5  A    between atoms: C_14  and  C_15 
REMARK    6  A    between atoms: C_15  and  C_16 
ROOT
HETATM    1  C   UNL     1       5.301  33.663  63.686  1.00  0.00     0.199 A 
HETATM    2  C   UNL     1       6.740  33.278  63.202  1.00  0.00     0.269 A 
HETATM    3  O   UNL     1       7.749  33.156  63.885  1.00  0.00    -0.269 OA
HETATM    4  N   UNL     1       6.661  33.051  61.814  1.00  0.00    -0.314 N 
HETATM    5  C   UNL     1       5.365  33.296  61.333  1.00  0.00     0.047 A 
HETATM    6  C   UNL     1       4.529  33.679  62.386  1.00  0.00     0.017 A 
HETATM    7  C   UNL     1       4.890  33.209  60.036  1.00  0.00     0.030 A 
HETATM    8  C   UNL     1       3.545  33.516  59.804  1.00  0.00     0.002 A 
HETATM    9  C   UNL     1       2.701  33.896  60.860  1.00  0.00     0.001 A 
HETATM   10  C   UNL     1       3.189  33.973  62.164  1.00  0.00     0.013 A 
ENDROOT
BRANCH   1  11
HETATM   11  C   UNL     1       5.228  35.056  64.275  1.00  0.00     0.025 A 
HETATM   12  C   UNL     1       4.848  35.396  65.574  1.00  0.00     0.016 A 
HETATM   13  C   UNL     1       4.415  34.550  66.721  1.00  0.00     0.069 C 
HETATM   14  N   UNL     1       4.947  36.756  65.710  1.00  0.00    -0.359 N 
HETATM   15  H   UNL     1       4.748  37.270  66.556  1.00  0.00     0.166 HD
HETATM   16  C   UNL     1       5.367  37.334  64.540  1.00  0.00     0.043 A 
HETATM   17  C   UNL     1       5.551  36.305  63.615  1.00  0.00     0.003 A 
HETATM   18  C   UNL     1       5.597  38.684  64.244  1.00  0.00     0.030 A 
HETATM   19  C   UNL     1       5.984  36.665  62.319  1.00  0.00     0.014 A 
HETATM   20  C   UNL     1       6.220  38.010  62.003  1.00  0.00     0.001 A 
HETATM   21  C   UNL     1       6.030  39.003  62.956  1.00  0.00     0.002 A 
ENDBRANCH   1  11
BRANCH   1  22
HETATM   22  O   UNL     1       4.756  32.650  64.531  1.00  0.00    -0.371 OA
HETATM   23  H   UNL     1       4.736  31.833  64.006  1.00  0.00     0.212 HD
ENDBRANCH   1  22
BRANCH   4  24
HETATM   24  C   UNL     1       7.819  32.760  60.998  1.00  0.00     0.133 C 
BRANCH  24  25
HETATM   25  C   UNL     1       8.028  31.272  60.722  1.00  0.00     0.025 C 
BRANCH  25  26
HETATM   26  C   UNL     1       7.532  30.845  59.339  1.00  0.00     0.040 C 
BRANCH  26  27
HETATM   27  C   UNL     1       8.673  30.354  58.479  1.00  0.00    -0.058 A 
HETATM   28  C   UNL     1       9.859  31.095  58.381  1.00  0.00     0.007 A 
HETATM   29  C   UNL     1      10.899  30.661  57.558  1.00  0.00     0.001 A 
HETATM   30  C   UNL     1      10.765  29.481  56.827  1.00  0.00     0.000 A 
HETATM   31  C   UNL     1       9.592  28.736  56.919  1.00  0.00     0.001 A 
HETATM   32  C   UNL     1       8.549  29.170  57.740  1.00  0.00     0.007 A 
ENDBRANCH  26  27
ENDBRANCH  25  26
ENDBRANCH  24  25
ENDBRANCH   4  24
TORSDOF 6
ENDMDL
MODEL 8
REMARK VINA RESULT:      -9.0      8.075     12.891
REMARK  6 active torsions:
REMARK  status: ('A' for Active; 'I' for Inactive)
REMARK    1  A    between atoms: C_7  and  C_8 
REMARK    2  A    between atoms: C_8  and  O_9 
REMARK    3  A    between atoms: N_12  and  C_13 
REMARK    4  A    between atoms: C_13  and  C_14 
REMARK    5  A    between atoms: C_14  and  C_15 
REMARK    6  A    between atoms: C_15  and  C_16 
ROOT
HETATM    1  C   UNL     1       4.020  32.785  62.371  1.00  0.00     0.199 A 
HETATM    2  C   UNL     1       3.302  33.546  63.537  1.00  0.00     0.269 A 
HETATM    3  O   UNL     1       2.111  33.811  63.632  1.00  0.00    -0.269 OA
HETATM    4  N   UNL     1       4.285  33.841  64.503  1.00  0.00    -0.314 N 
HETATM    5  C   UNL     1       5.555  33.418  64.081  1.00  0.00     0.047 A 
HETATM    6  C   UNL     1       5.462  32.808  62.825  1.00  0.00     0.017 A 
HETATM    7  C   UNL     1       6.771  33.544  64.728  1.00  0.00     0.030 A 
HETATM    8  C   UNL     1       7.912  33.045  64.092  1.00  0.00     0.002 A 
HETATM    9  C   UNL     1       7.823  32.428  62.834  1.00  0.00     0.001 A 
HETATM   10  C   UNL     1       6.590  32.299  62.193  1.00  0.00     0.013 A 
ENDROOT
BRANCH   1  11
HETATM   11  C   UNL     1       3.947  33.522  61.051  1.00  0.00     0.025 A 
HETATM   12  C   UNL     1       3.685  32.968  59.797  1.00  0.00     0.016 A 
HETATM   13  C   UNL     1       3.415  31.564  59.384  1.00  0.00     0.069 C 
HETATM   14  N   UNL     1       3.678  33.980  58.873  1.00  0.00    -0.359 N 
HETATM   15  H   UNL     1       3.496  33.862  57.886  1.00  0.00     0.166 HD
HETATM   16  C   UNL     1       3.942  35.186  59.467  1.00  0.00     0.043 A 
HETATM   17  C   UNL     1       4.120  34.944  60.829  1.00  0.00     0.003 A 
HETATM   18  C   UNL     1       4.029  36.462  58.896  1.00  0.00     0.030 A 
HETATM   19  C   UNL     1       4.410  36.053  61.656  1.00  0.00     0.014 A 
HETATM   20  C   UNL     1       4.502  37.338  61.103  1.00  0.00     0.001 A 
HETATM   21  C   UNL     1       4.312  37.537  59.741  1.00  0.00     0.002 A 
ENDBRANCH   1  11
BRANCH   1  22
HETATM   22  O   UNL     1       3.584  31.428  62.299  1.00  0.00    -0.371 OA
HETATM   23  H   UNL     1       2.939  31.306  63.015  1.00  0.00     0.212 HD
ENDBRANCH   1  22
BRANCH   4  24
HETATM   24  C   UNL     1       4.010  34.622  65.688  1.00  0.00     0.133 C 
BRANCH  24  25
HETATM   25  C   UNL     1       4.711  34.111  66.946  1.00  0.00     0.025 C 
BRANCH  25  26
HETATM   26  C   UNL     1       5.399  35.223  67.741  1.00  0.00     0.040 C 
BRANCH  26  27
HETATM   27  C   UNL     1       6.270  34.652  68.835  1.00  0.00    -0.058 A 
HETATM   28  C   UNL     1       5.806  33.599  69.636  1.00  0.00     0.007 A 
HETATM   29  C   UNL     1       6.595  33.095  70.670  1.00  0.00     0.001 A 
HETATM   30  C   UNL     1       7.856  33.636  70.914  1.00  0.00     0.000 A 
HETATM   31  C   UNL     1       8.329  34.681  70.123  1.00  0.00     0.001 A 
HETATM   32  C   UNL     1       7.539  35.188  69.088  1.00  0.00     0.007 A 
ENDBRANCH  26  27
ENDBRANCH  25  26
ENDBRANCH  24  25
ENDBRANCH   4  24
TORSDOF 6
ENDMDL
MODEL 9
REMARK VINA RESULT:      -8.9      3.189      5.488
REMARK  6 active torsions:
REMARK  status: ('A' for Active; 'I' for Inactive)
REMARK    1  A    between atoms: C_7  and  C_8 
REMARK    2  A    between atoms: C_8  and  O_9 
REMARK    3  A    between atoms: N_12  and  C_13 
REMARK    4  A    between atoms: C_13  and  C_14 
REMARK    5  A    between atoms: C_14  and  C_15 
REMARK    6  A    between atoms: C_15  and  C_16 
ROOT
HETATM    1  C   UNL     1       7.349  27.788  54.602  1.00  0.00     0.199 A 
HETATM    2  C   UNL     1       6.208  27.917  53.537  1.00  0.00     0.269 A 
HETATM    3  O   UNL     1       5.790  28.942  53.012  1.00  0.00    -0.269 OA
HETATM    4  N   UNL     1       5.763  26.612  53.248  1.00  0.00    -0.314 N 
HETATM    5  C   UNL     1       6.433  25.662  54.035  1.00  0.00     0.047 A 
HETATM    6  C   UNL     1       7.362  26.299  54.865  1.00  0.00     0.017 A 
HETATM    7  C   UNL     1       6.268  24.289  54.067  1.00  0.00     0.030 A 
HETATM    8  C   UNL     1       7.057  23.550  54.954  1.00  0.00     0.002 A 
HETATM    9  C   UNL     1       7.994  24.184  55.785  1.00  0.00     0.001 A 
HETATM   10  C   UNL     1       8.158  25.569  55.740  1.00  0.00     0.013 A 
ENDROOT
BRANCH   1  11
HETATM   11  C   UNL     1       7.017  28.477  55.910  1.00  0.00     0.025 A 
HETATM   12  C   UNL     1       5.764  28.560  56.517  1.00  0.00     0.016 A 
HETATM   13  C   UNL     1       4.435  28.036  56.096  1.00  0.00     0.069 C 
HETATM   14  N   UNL     1       5.902  29.240  57.698  1.00  0.00    -0.359 N 
HETATM   15  H   UNL     1       5.153  29.430  58.349  1.00  0.00     0.166 HD
HETATM   16  C   UNL     1       7.204  29.625  57.891  1.00  0.00     0.043 A 
HETATM   17  C   UNL     1       7.934  29.170  56.792  1.00  0.00     0.003 A 
HETATM   18  C   UNL     1       7.777  30.334  58.954  1.00  0.00     0.030 A 
HETATM   19  C   UNL     1       9.318  29.455  56.767  1.00  0.00     0.014 A 
HETATM   20  C   UNL     1       9.910  30.164  57.822  1.00  0.00     0.001 A 
HETATM   21  C   UNL     1       9.147  30.594  58.900  1.00  0.00     0.002 A 
ENDBRANCH   1  11
BRANCH   1  22
HETATM   22  O   UNL     1       8.609  28.168  54.053  1.00  0.00    -0.371 OA
HETATM   23  H   UNL     1       9.122  28.559  54.779  1.00  0.00     0.212 HD
ENDBRANCH   1  22
BRANCH   4  24
HETATM   24  C   UNL     1       4.649  26.339  52.368  1.00  0.00     0.133 C 
BRANCH  24  25
HETATM   25  C   UNL     1       5.058  25.958  50.946  1.00  0.00     0.025 C 
BRANCH  25  26
HETATM   26  C   UNL     1       5.014  27.139  49.975  1.00  0.00     0.040 C 
BRANCH  26  27
HETATM   27  C   UNL     1       3.872  26.999  48.997  1.00  0.00    -0.058 A 
HETATM   28  C   UNL     1       2.778  27.874  49.052  1.00  0.00     0.007 A 
HETATM   29  C   UNL     1       1.706  27.723  48.173  1.00  0.00     0.001 A 
HETATM   30  C   UNL     1       1.715  26.697  47.228  1.00  0.00     0.000 A 
HETATM   31  C   UNL     1       2.799  25.823  47.163  1.00  0.00     0.001 A 
HETATM   32  C   UNL     1       3.872  25.972  48.044  1.00  0.00     0.007 A 
ENDBRANCH  26  27
ENDBRANCH  25  26
ENDBRANCH  24  25
ENDBRANCH   4  24
TORSDOF 6
ENDMDL
MODEL 10
REMARK VINA RESULT:      -8.8      1.608      2.823
REMARK  6 active torsions:
REMARK  status: ('A' for Active; 'I' for Inactive)
REMARK    1  A    between atoms: C_7  and  C_8 
REMARK    2  A    between atoms: C_8  and  O_9 
REMARK    3  A    between atoms: N_12  and  C_13 
REMARK    4  A    between atoms: C_13  and  C_14 
REMARK    5  A    between atoms: C_14  and  C_15 
REMARK    6  A    between atoms: C_15  and  C_16 
ROOT
HETATM    1  C   UNL     1       5.264  29.933  57.429  1.00  0.00     0.199 A 
HETATM    2  C   UNL     1       5.348  28.461  56.899  1.00  0.00     0.269 A 
HETATM    3  O   UNL     1       5.651  27.457  57.532  1.00  0.00    -0.269 OA
HETATM    4  N   UNL     1       4.964  28.489  55.545  1.00  0.00    -0.314 N 
HETATM    5  C   UNL     1       4.698  29.799  55.119  1.00  0.00     0.047 A 
HETATM    6  C   UNL     1       4.879  30.692  56.180  1.00  0.00     0.017 A 
HETATM    7  C   UNL     1       4.319  30.244  53.864  1.00  0.00     0.030 A 
HETATM    8  C   UNL     1       4.120  31.616  53.684  1.00  0.00     0.002 A 
HETATM    9  C   UNL     1       4.296  32.516  54.748  1.00  0.00     0.001 A 
HETATM   10  C   UNL     1       4.671  32.056  56.010  1.00  0.00     0.013 A 
ENDROOT
BRANCH   1  11
HETATM   11  C   UNL     1       6.601  30.471  57.894  1.00  0.00     0.025 A 
HETATM   12  C   UNL     1       6.822  31.383  58.927  1.00  0.00     0.016 A 
HETATM   13  C   UNL     1       5.873  32.078  59.840  1.00  0.00     0.069 C 
HETATM   14  N   UNL     1       8.173  31.582  59.044  1.00  0.00    -0.359 N 
HETATM   15  H   UNL     1       8.613  32.184  59.726  1.00  0.00     0.166 HD
HETATM   16  C   UNL     1       8.857  30.844  58.113  1.00  0.00     0.043 A 
HETATM   17  C   UNL     1       7.911  30.137  57.371  1.00  0.00     0.003 A 
HETATM   18  C   UNL     1      10.237  30.754  57.886  1.00  0.00     0.030 A 
HETATM   19  C   UNL     1       8.388  29.299  56.338  1.00  0.00     0.014 A 
HETATM   20  C   UNL     1       9.764  29.195  56.094  1.00  0.00     0.001 A 
HETATM   21  C   UNL     1      10.674  29.913  56.861  1.00  0.00     0.002 A 
ENDBRANCH   1  11
BRANCH   1  22
HETATM   22  O   UNL     1       4.220  30.073  58.391  1.00  0.00    -0.371 OA
HETATM   23  H   UNL     1       4.058  31.025  58.488  1.00  0.00     0.212 HD
ENDBRANCH   1  22
BRANCH   4  24
HETATM   24  C   UNL     1       5.005  27.320  54.693  1.00  0.00     0.133 C 
BRANCH  24  25
HETATM   25  C   UNL     1       6.286  26.496  54.830  1.00  0.00     0.025 C 
BRANCH  25  26
HETATM   26  C   UNL     1       6.031  25.075  55.334  1.00  0.00     0.040 C 
BRANCH  26  27
HETATM   27  C   UNL     1       7.022  24.101  54.742  1.00  0.00    -0.058 A 
HETATM   28  C   UNL     1       6.957  23.758  53.384  1.00  0.00     0.007 A 
HETATM   29  C   UNL     1       7.849  22.832  52.844  1.00  0.00     0.001 A 
HETATM   30  C   UNL     1       8.816  22.239  53.654  1.00  0.00     0.000 A 
HETATM   31  C   UNL     1       8.892  22.574  55.004  1.00  0.00     0.001 A 
HETATM   32  C   UNL     1       7.998  23.500  55.547  1.00  0.00     0.007 A 
ENDBRANCH  26  27
ENDBRANCH  25  26
ENDBRANCH  24  25
ENDBRANCH   4  24
TORSDOF 6
ENDMDL
