MODEL 1
REMARK VINA RESULT:      -9.9      0.000      0.000
REMARK  7 active torsions:
REMARK  status: ('A' for Active; 'I' for Inactive)
REMARK    1  A    between atoms: C_3  and  N_4 
REMARK    2  A    between atoms: N_7  and  C_9 
REMARK    3  A    between atoms: N_12  and  C_13 
REMARK    4  A    between atoms: C_16  and  C_17 
REMARK       I    between atoms: C_17  and  N_18 
REMARK    5  A    between atoms: C_20  and  C_21 
REMARK    6  A    between atoms: C_21  and  O_22 
REMARK    7  A    between atoms: C_33  and  O_34 
ROOT
HETATM    1  C   UNL     1       6.458  32.250  58.718  1.00  0.00     0.191 C 
HETATM    2  C   UNL     1       7.736  31.415  58.522  1.00  0.00     0.053 C 
HETATM    3  C   UNL     1       7.445  29.975  58.109  1.00  0.00     0.125 C 
HETATM    4  N   UNL     1       6.567  29.996  56.941  1.00  0.00    -0.381 N 
HETATM    5  C   UNL     1       5.284  30.671  57.097  1.00  0.00     0.125 C 
HETATM    6  C   UNL     1       5.564  32.124  57.474  1.00  0.00     0.053 C 
ENDROOT
BRANCH   4   7
HETATM    7  C   UNL     1       6.648  28.884  56.098  1.00  0.00     0.030 A 
HETATM    8  C   UNL     1       5.621  27.936  55.969  1.00  0.00     0.030 A 
HETATM    9  C   UNL     1       5.727  26.860  55.077  1.00  0.00     0.019 A 
HETATM   10  C   UNL     1       6.858  26.738  54.268  1.00  0.00     0.032 A 
HETATM   11  C   UNL     1       7.904  27.650  54.396  1.00  0.00     0.019 A 
HETATM   12  C   UNL     1       7.793  28.711  55.299  1.00  0.00     0.030 A 
BRANCH  10  13
HETATM   13  C   UNL     1       7.023  25.615  53.322  1.00  0.00     0.253 C 
HETATM   14  N   UNL     1       7.477  24.375  53.783  1.00  0.00    -0.348 N 
HETATM   15  C   UNL     1       8.001  24.134  55.133  1.00  0.00     0.132 C 
HETATM   16  C   UNL     1       7.813  23.375  52.769  1.00  0.00     0.126 C 
HETATM   17  C   UNL     1       7.762  22.698  55.623  1.00  0.00     0.027 C 
HETATM   18  C   UNL     1       8.241  21.685  54.577  1.00  0.00     0.010 C 
HETATM   19  C   UNL     1       7.553  21.951  53.243  1.00  0.00     0.020 C 
HETATM   20  O   UNL     1       6.707  25.835  52.153  1.00  0.00    -0.267 OA
BRANCH  17  21
HETATM   21  C   UNL     1       8.423  22.468  56.985  1.00  0.00     0.170 C 
BRANCH  21  22
HETATM   22  O   UNL     1       8.487  23.667  57.745  1.00  0.00    -0.400 OA
HETATM   23  H   UNL     1       7.878  24.308  57.335  1.00  0.00     0.209 HD
ENDBRANCH  21  22
ENDBRANCH  17  21
ENDBRANCH  10  13
ENDBRANCH   4   7
BRANCH   1  24
HETATM   24  N   UNL     1       5.726  31.877  60.028  1.00  0.00    -0.064 N 
HETATM   25  C   UNL     1       6.480  32.410  61.272  1.00  0.00     0.255 C 
HETATM   26  C   UNL     1       5.777  31.985  62.575  1.00  0.00     0.150 C 
HETATM   27  N   UNL     1       4.366  32.434  62.606  1.00  0.00    -0.375 N 
HETATM   28  C   UNL     1       3.581  32.041  61.426  1.00  0.00     0.150 C 
HETATM   29  C   UNL     1       4.273  32.386  60.088  1.00  0.00     0.255 C 
HETATM   30  H   UNL     1       5.688  30.852  60.111  1.00  0.00     0.280 HD
BRANCH  27  31
HETATM   31  C   UNL     1       4.166  33.697  63.187  1.00  0.00     0.063 A 
HETATM   32  C   UNL     1       3.607  34.792  62.518  1.00  0.00     0.032 A 
HETATM   33  C   UNL     1       3.481  36.041  63.146  1.00  0.00     0.002 A 
HETATM   34  C   UNL     1       3.897  36.216  64.464  1.00  0.00     0.003 A 
HETATM   35  C   UNL     1       4.418  35.139  65.169  1.00  0.00     0.039 A 
HETATM   36  C   UNL     1       4.526  33.905  64.536  1.00  0.00     0.092 A 
BRANCH  36  37
HETATM   37  O   UNL     1       4.938  32.841  65.299  1.00  0.00    -0.358 OA
HETATM   38  H   UNL     1       4.874  32.077  64.697  1.00  0.00     0.218 HD
ENDBRANCH  36  37
ENDBRANCH  27  31
ENDBRANCH   1  24
TORSDOF 7
ENDMDL
MODEL 2
REMARK VINA RESULT:      -9.8      1.450      2.644
REMARK  7 active torsions:
REMARK  status: ('A' for Active; 'I' for Inactive)
REMARK    1  A    between atoms: C_3  and  N_4 
REMARK    2  A    between atoms: N_7  and  C_9 
REMARK    3  A    between atoms: N_12  and  C_13 
REMARK    4  A    between atoms: C_16  and  C_17 
REMARK       I    between atoms: C_17  and  N_18 
REMARK    5  A    between atoms: C_20  and  C_21 
REMARK    6  A    between atoms: C_21  and  O_22 
REMARK    7  A    between atoms: C_33  and  O_34 
ROOT
HETATM    1  C   UNL     1       6.084  32.111  58.616  1.00  0.00     0.191 C 
HETATM    2  C   UNL     1       7.500  31.536  58.799  1.00  0.00     0.053 C 
HETATM    3  C   UNL     1       7.507  30.019  58.966  1.00  0.00     0.125 C 
HETATM    4  N   UNL     1       6.767  29.427  57.853  1.00  0.00    -0.381 N 
HETATM    5  C   UNL     1       5.378  29.841  57.695  1.00  0.00     0.125 C 
HETATM    6  C   UNL     1       5.363  31.354  57.490  1.00  0.00     0.053 C 
ENDROOT
BRANCH   4   7
HETATM    7  C   UNL     1       7.127  28.121  57.508  1.00  0.00     0.030 A 
HETATM    8  C   UNL     1       8.458  27.707  57.337  1.00  0.00     0.030 A 
HETATM    9  C   UNL     1       8.776  26.376  57.034  1.00  0.00     0.019 A 
HETATM   10  C   UNL     1       7.760  25.425  56.933  1.00  0.00     0.032 A 
HETATM   11  C   UNL     1       6.429  25.815  57.070  1.00  0.00     0.019 A 
HETATM   12  C   UNL     1       6.123  27.148  57.358  1.00  0.00     0.030 A 
BRANCH  10  13
HETATM   13  C   UNL     1       8.042  24.013  56.603  1.00  0.00     0.253 C 
HETATM   14  N   UNL     1       7.954  23.575  55.277  1.00  0.00    -0.348 N 
HETATM   15  C   UNL     1       7.405  24.375  54.175  1.00  0.00     0.132 C 
HETATM   16  C   UNL     1       8.043  22.132  55.051  1.00  0.00     0.126 C 
HETATM   17  C   UNL     1       8.032  24.032  52.815  1.00  0.00     0.027 C 
HETATM   18  C   UNL     1       7.992  22.519  52.569  1.00  0.00     0.010 C 
HETATM   19  C   UNL     1       8.687  21.790  53.713  1.00  0.00     0.020 C 
HETATM   20  O   UNL     1       8.383  23.292  57.539  1.00  0.00    -0.267 OA
BRANCH  17  21
HETATM   21  C   UNL     1       7.349  24.811  51.687  1.00  0.00     0.170 C 
BRANCH  21  22
HETATM   22  O   UNL     1       6.021  25.179  52.035  1.00  0.00    -0.400 OA
HETATM   23  H   UNL     1       5.779  25.952  51.493  1.00  0.00     0.209 HD
ENDBRANCH  21  22
ENDBRANCH  17  21
ENDBRANCH  10  13
ENDBRANCH   4   7
BRANCH   1  24
HETATM   24  N   UNL     1       5.293  32.115  59.944  1.00  0.00    -0.064 N 
HETATM   25  C   UNL     1       6.210  32.437  61.151  1.00  0.00     0.255 C 
HETATM   26  C   UNL     1       5.428  32.383  62.477  1.00  0.00     0.150 C 
HETATM   27  N   UNL     1       4.265  33.300  62.463  1.00  0.00    -0.375 N 
HETATM   28  C   UNL     1       3.370  33.124  61.311  1.00  0.00     0.150 C 
HETATM   29  C   UNL     1       4.113  33.106  59.955  1.00  0.00     0.255 C 
HETATM   30  H   UNL     1       4.899  31.178  60.104  1.00  0.00     0.280 HD
BRANCH  27  31
HETATM   31  C   UNL     1       4.533  34.592  62.947  1.00  0.00     0.063 A 
HETATM   32  C   UNL     1       5.467  35.467  62.381  1.00  0.00     0.032 A 
HETATM   33  C   UNL     1       5.719  36.727  62.946  1.00  0.00     0.002 A 
HETATM   34  C   UNL     1       5.029  37.145  64.082  1.00  0.00     0.003 A 
HETATM   35  C   UNL     1       4.067  36.316  64.645  1.00  0.00     0.039 A 
HETATM   36  C   UNL     1       3.821  35.075  64.066  1.00  0.00     0.092 A 
BRANCH  36  37
HETATM   37  O   UNL     1       2.786  34.336  64.581  1.00  0.00    -0.358 OA
HETATM   38  H   UNL     1       3.111  33.417  64.553  1.00  0.00     0.218 HD
ENDBRANCH  36  37
ENDBRANCH  27  31
ENDBRANCH   1  24
TORSDOF 7
ENDMDL
MODEL 3
REMARK VINA RESULT:      -9.7      1.892     11.744
REMARK  7 active torsions:
REMARK  status: ('A' for Active; 'I' for Inactive)
REMARK    1  A    between atoms: C_3  and  N_4 
REMARK    2  A    between atoms: N_7  and  C_9 
REMARK    3  A    between atoms: N_12  and  C_13 
REMARK    4  A    between atoms: C_16  and  C_17 
REMARK       I    between atoms: C_17  and  N_18 
REMARK    5  A    between atoms: C_20  and  C_21 
REMARK    6  A    between atoms: C_21  and  O_22 
REMARK    7  A    between atoms: C_33  and  O_34 
ROOT
HETATM    1  C   UNL     1       8.044  28.270  56.261  1.00  0.00     0.191 C 
HETATM    2  C   UNL     1       6.843  29.119  55.811  1.00  0.00     0.053 C 
HETATM    3  C   UNL     1       6.002  29.624  56.982  1.00  0.00     0.125 C 
HETATM    4  N   UNL     1       6.886  30.302  57.928  1.00  0.00    -0.381 N 
HETATM    5  C   UNL     1       7.978  29.514  58.485  1.00  0.00     0.125 C 
HETATM    6  C   UNL     1       8.847  29.035  57.324  1.00  0.00     0.053 C 
ENDROOT
BRANCH   4   7
HETATM    7  C   UNL     1       6.289  31.286  58.721  1.00  0.00     0.030 A 
HETATM    8  C   UNL     1       6.984  32.019  59.695  1.00  0.00     0.030 A 
HETATM    9  C   UNL     1       6.356  33.029  60.437  1.00  0.00     0.019 A 
HETATM   10  C   UNL     1       5.021  33.347  60.185  1.00  0.00     0.032 A 
HETATM   11  C   UNL     1       4.299  32.616  59.243  1.00  0.00     0.019 A 
HETATM   12  C   UNL     1       4.933  31.602  58.519  1.00  0.00     0.030 A 
BRANCH  10  13
HETATM   13  C   UNL     1       4.310  34.394  60.948  1.00  0.00     0.253 C 
HETATM   14  N   UNL     1       4.603  34.591  62.302  1.00  0.00    -0.348 N 
HETATM   15  C   UNL     1       5.446  33.698  63.106  1.00  0.00     0.132 C 
HETATM   16  C   UNL     1       3.724  35.496  63.043  1.00  0.00     0.126 C 
HETATM   17  C   UNL     1       6.179  34.427  64.243  1.00  0.00     0.027 C 
HETATM   18  C   UNL     1       5.195  35.266  65.067  1.00  0.00     0.010 C 
HETATM   19  C   UNL     1       4.454  36.238  64.156  1.00  0.00     0.020 C 
HETATM   20  O   UNL     1       3.501  35.074  60.318  1.00  0.00    -0.267 OA
BRANCH  17  21
HETATM   21  C   UNL     1       6.953  33.435  65.116  1.00  0.00     0.170 C 
BRANCH  21  22
HETATM   22  O   UNL     1       6.829  33.746  66.498  1.00  0.00    -0.400 OA
HETATM   23  H   UNL     1       6.438  34.636  66.564  1.00  0.00     0.209 HD
ENDBRANCH  21  22
ENDBRANCH  17  21
ENDBRANCH  10  13
ENDBRANCH   4   7
BRANCH   1  24
HETATM   24  N   UNL     1       7.605  26.863  56.732  1.00  0.00    -0.064 N 
HETATM   25  C   UNL     1       6.550  26.249  55.779  1.00  0.00     0.255 C 
HETATM   26  C   UNL     1       6.075  24.873  56.285  1.00  0.00     0.150 C 
HETATM   27  N   UNL     1       7.207  23.935  56.461  1.00  0.00    -0.375 N 
HETATM   28  C   UNL     1       8.302  24.458  57.292  1.00  0.00     0.150 C 
HETATM   29  C   UNL     1       8.774  25.867  56.867  1.00  0.00     0.255 C 
HETATM   30  H   UNL     1       7.169  26.941  57.660  1.00  0.00     0.280 HD
BRANCH  27  31
HETATM   31  C   UNL     1       7.502  23.155  55.331  1.00  0.00     0.063 A 
HETATM   32  C   UNL     1       7.527  23.644  54.020  1.00  0.00     0.032 A 
HETATM   33  C   UNL     1       7.782  22.796  52.931  1.00  0.00     0.002 A 
HETATM   34  C   UNL     1       8.033  21.441  53.133  1.00  0.00     0.003 A 
HETATM   35  C   UNL     1       8.055  20.931  54.425  1.00  0.00     0.039 A 
HETATM   36  C   UNL     1       7.812  21.787  55.494  1.00  0.00     0.092 A 
BRANCH  36  37
HETATM   37  O   UNL     1       7.956  21.271  56.758  1.00  0.00    -0.358 OA
HETATM   38  H   UNL     1       7.685  20.339  56.666  1.00  0.00     0.218 HD
ENDBRANCH  36  37
ENDBRANCH  27  31
ENDBRANCH   1  24
TORSDOF 7
ENDMDL
MODEL 4
REMARK VINA RESULT:      -9.6      1.868     11.640
REMARK  7 active torsions:
REMARK  status: ('A' for Active; 'I' for Inactive)
REMARK    1  A    between atoms: C_3  and  N_4 
REMARK    2  A    between atoms: N_7  and  C_9 
REMARK    3  A    between atoms: N_12  and  C_13 
REMARK    4  A    between atoms: C_16  and  C_17 
REMARK       I    between atoms: C_17  and  N_18 
REMARK    5  A    between atoms: C_20  and  C_21 
REMARK    6  A    between atoms: C_21  and  O_22 
REMARK    7  A    between atoms: C_33  and  O_34 
ROOT
HETATM    1  C   UNL     1       6.365  28.702  55.723  1.00  0.00     0.191 C 
HETATM    2  C   UNL     1       4.904  29.183  55.674  1.00  0.00     0.053 C 
HETATM    3  C   UNL     1       4.390  29.657  57.032  1.00  0.00     0.125 C 
HETATM    4  N   UNL     1       5.323  30.651  57.558  1.00  0.00    -0.381 N 
HETATM    5  C   UNL     1       6.704  30.221  57.742  1.00  0.00     0.125 C 
HETATM    6  C   UNL     1       7.240  29.780  56.382  1.00  0.00     0.053 C 
ENDROOT
BRANCH   4   7
HETATM    7  C   UNL     1       4.782  31.585  58.446  1.00  0.00     0.030 A 
HETATM    8  C   UNL     1       3.642  31.336  59.228  1.00  0.00     0.030 A 
HETATM    9  C   UNL     1       3.159  32.286  60.138  1.00  0.00     0.019 A 
HETATM   10  C   UNL     1       3.838  33.494  60.307  1.00  0.00     0.032 A 
HETATM   11  C   UNL     1       4.955  33.778  59.523  1.00  0.00     0.019 A 
HETATM   12  C   UNL     1       5.419  32.828  58.608  1.00  0.00     0.030 A 
BRANCH  10  13
HETATM   13  C   UNL     1       3.361  34.532  61.244  1.00  0.00     0.253 C 
HETATM   14  N   UNL     1       3.998  34.704  62.478  1.00  0.00    -0.348 N 
HETATM   15  C   UNL     1       5.011  33.791  63.022  1.00  0.00     0.132 C 
HETATM   16  C   UNL     1       3.352  35.602  63.436  1.00  0.00     0.126 C 
HETATM   17  C   UNL     1       6.022  34.494  63.941  1.00  0.00     0.027 C 
HETATM   18  C   UNL     1       5.296  35.326  65.004  1.00  0.00     0.010 C 
HETATM   19  C   UNL     1       4.355  36.319  64.332  1.00  0.00     0.020 C 
HETATM   20  O   UNL     1       2.425  35.230  60.856  1.00  0.00    -0.267 OA
BRANCH  17  21
HETATM   21  C   UNL     1       6.985  33.482  64.568  1.00  0.00     0.170 C 
BRANCH  21  22
HETATM   22  O   UNL     1       6.902  33.489  65.986  1.00  0.00    -0.400 OA
HETATM   23  H   UNL     1       7.117  34.390  66.289  1.00  0.00     0.209 HD
ENDBRANCH  21  22
ENDBRANCH  17  21
ENDBRANCH  10  13
ENDBRANCH   4   7
BRANCH   1  24
HETATM   24  N   UNL     1       6.489  27.321  56.408  1.00  0.00    -0.064 N 
HETATM   25  C   UNL     1       5.556  26.274  55.749  1.00  0.00     0.255 C 
HETATM   26  C   UNL     1       5.643  24.917  56.472  1.00  0.00     0.150 C 
HETATM   27  N   UNL     1       7.032  24.406  56.511  1.00  0.00    -0.375 N 
HETATM   28  C   UNL     1       8.012  25.359  57.052  1.00  0.00     0.150 C 
HETATM   29  C   UNL     1       7.925  26.760  56.405  1.00  0.00     0.255 C 
HETATM   30  H   UNL     1       6.203  27.407  57.392  1.00  0.00     0.280 HD
BRANCH  27  31
HETATM   31  C   UNL     1       7.384  23.584  55.427  1.00  0.00     0.063 A 
HETATM   32  C   UNL     1       7.266  23.959  54.083  1.00  0.00     0.032 A 
HETATM   33  C   UNL     1       7.591  23.068  53.048  1.00  0.00     0.002 A 
HETATM   34  C   UNL     1       8.057  21.787  53.336  1.00  0.00     0.003 A 
HETATM   35  C   UNL     1       8.223  21.398  54.659  1.00  0.00     0.039 A 
HETATM   36  C   UNL     1       7.907  22.296  55.674  1.00  0.00     0.092 A 
BRANCH  36  37
HETATM   37  O   UNL     1       8.193  21.916  56.961  1.00  0.00    -0.358 OA
HETATM   38  H   UNL     1       9.148  21.720  56.946  1.00  0.00     0.218 HD
ENDBRANCH  36  37
ENDBRANCH  27  31
ENDBRANCH   1  24
TORSDOF 7
ENDMDL
MODEL 5
REMARK VINA RESULT:      -9.6      2.167     11.979
REMARK  7 active torsions:
REMARK  status: ('A' for Active; 'I' for Inactive)
REMARK    1  A    between atoms: C_3  and  N_4 
REMARK    2  A    between atoms: N_7  and  C_9 
REMARK    3  A    between atoms: N_12  and  C_13 
REMARK    4  A    between atoms: C_16  and  C_17 
REMARK       I    between atoms: C_17  and  N_18 
REMARK    5  A    between atoms: C_20  and  C_21 
REMARK    6  A    between atoms: C_21  and  O_22 
REMARK    7  A    between atoms: C_33  and  O_34 
ROOT
HETATM    1  C   UNL     1       7.667  28.529  56.145  1.00  0.00     0.191 C 
HETATM    2  C   UNL     1       6.444  29.464  56.129  1.00  0.00     0.053 C 
HETATM    3  C   UNL     1       6.010  29.895  57.527  1.00  0.00     0.125 C 
HETATM    4  N   UNL     1       7.170  30.448  58.223  1.00  0.00    -0.381 N 
HETATM    5  C   UNL     1       8.322  29.570  58.377  1.00  0.00     0.125 C 
HETATM    6  C   UNL     1       8.789  29.162  56.981  1.00  0.00     0.053 C 
ENDROOT
BRANCH   4   7
HETATM    7  C   UNL     1       6.891  31.381  59.226  1.00  0.00     0.030 A 
HETATM    8  C   UNL     1       5.604  31.881  59.478  1.00  0.00     0.030 A 
HETATM    9  C   UNL     1       5.363  32.782  60.524  1.00  0.00     0.019 A 
HETATM   10  C   UNL     1       6.409  33.171  61.362  1.00  0.00     0.032 A 
HETATM   11  C   UNL     1       7.701  32.711  61.116  1.00  0.00     0.019 A 
HETATM   12  C   UNL     1       7.933  31.824  60.061  1.00  0.00     0.030 A 
BRANCH  10  13
HETATM   13  C   UNL     1       6.208  34.128  62.470  1.00  0.00     0.253 C 
HETATM   14  N   UNL     1       5.318  35.196  62.316  1.00  0.00    -0.348 N 
HETATM   15  C   UNL     1       4.685  35.572  61.046  1.00  0.00     0.132 C 
HETATM   16  C   UNL     1       5.322  36.216  63.366  1.00  0.00     0.126 C 
HETATM   17  C   UNL     1       3.309  36.228  61.232  1.00  0.00     0.027 C 
HETATM   18  C   UNL     1       3.389  37.370  62.251  1.00  0.00     0.010 C 
HETATM   19  C   UNL     1       3.951  36.850  63.569  1.00  0.00     0.020 C 
HETATM   20  O   UNL     1       6.830  33.901  63.506  1.00  0.00    -0.267 OA
BRANCH  17  21
HETATM   21  C   UNL     1       2.744  36.701  59.889  1.00  0.00     0.170 C 
BRANCH  21  22
HETATM   22  O   UNL     1       1.346  36.461  59.795  1.00  0.00    -0.400 OA
HETATM   23  H   UNL     1       1.125  35.760  60.434  1.00  0.00     0.209 HD
ENDBRANCH  21  22
ENDBRANCH  17  21
ENDBRANCH  10  13
ENDBRANCH   4   7
BRANCH   1  24
HETATM   24  N   UNL     1       7.291  27.105  56.617  1.00  0.00    -0.064 N 
HETATM   25  C   UNL     1       6.288  26.430  55.647  1.00  0.00     0.255 C 
HETATM   26  C   UNL     1       5.874  25.036  56.154  1.00  0.00     0.150 C 
HETATM   27  N   UNL     1       7.049  24.159  56.361  1.00  0.00    -0.375 N 
HETATM   28  C   UNL     1       8.097  24.742  57.210  1.00  0.00     0.150 C 
HETATM   29  C   UNL     1       8.506  26.171  56.784  1.00  0.00     0.255 C 
HETATM   30  H   UNL     1       6.831  27.166  57.535  1.00  0.00     0.280 HD
BRANCH  27  31
HETATM   31  C   UNL     1       7.407  23.387  55.243  1.00  0.00     0.063 A 
HETATM   32  C   UNL     1       7.460  23.875  53.932  1.00  0.00     0.032 A 
HETATM   33  C   UNL     1       7.779  23.034  52.855  1.00  0.00     0.002 A 
HETATM   34  C   UNL     1       8.069  21.689  53.068  1.00  0.00     0.003 A 
HETATM   35  C   UNL     1       8.065  21.182  54.361  1.00  0.00     0.039 A 
HETATM   36  C   UNL     1       7.758  22.030  55.420  1.00  0.00     0.092 A 
BRANCH  36  37
HETATM   37  O   UNL     1       7.876  21.521  56.689  1.00  0.00    -0.358 OA
HETATM   38  H   UNL     1       7.530  20.613  56.614  1.00  0.00     0.218 HD
ENDBRANCH  36  37
ENDBRANCH  27  31
ENDBRANCH   1  24
TORSDOF 7
ENDMDL
MODEL 6
REMARK VINA RESULT:      -8.8      8.322     11.811
REMARK  7 active torsions:
REMARK  status: ('A' for Active; 'I' for Inactive)
REMARK    1  A    between atoms: C_3  and  N_4 
REMARK    2  A    between atoms: N_7  and  C_9 
REMARK    3  A    between atoms: N_12  and  C_13 
REMARK    4  A    between atoms: C_16  and  C_17 
REMARK       I    between atoms: C_17  and  N_18 
REMARK    5  A    between atoms: C_20  and  C_21 
REMARK    6  A    between atoms: C_21  and  O_22 
REMARK    7  A    between atoms: C_33  and  O_34 
ROOT
HETATM    1  C   UNL     1       4.500  28.303  48.337  1.00  0.00     0.191 C 
HETATM    2  C   UNL     1       5.157  28.995  49.545  1.00  0.00     0.053 C 
HETATM    3  C   UNL     1       4.938  28.237  50.852  1.00  0.00     0.125 C 
HETATM    4  N   UNL     1       5.362  26.852  50.661  1.00  0.00    -0.381 N 
HETATM    5  C   UNL     1       4.692  26.101  49.607  1.00  0.00     0.125 C 
HETATM    6  C   UNL     1       4.936  26.830  48.288  1.00  0.00     0.053 C 
ENDROOT
BRANCH   4   7
HETATM    7  C   UNL     1       5.777  26.177  51.813  1.00  0.00     0.030 A 
HETATM    8  C   UNL     1       7.098  26.202  52.288  1.00  0.00     0.030 A 
HETATM    9  C   UNL     1       7.460  25.547  53.473  1.00  0.00     0.019 A 
HETATM   10  C   UNL     1       6.489  24.884  54.225  1.00  0.00     0.032 A 
HETATM   11  C   UNL     1       5.176  24.820  53.761  1.00  0.00     0.019 A 
HETATM   12  C   UNL     1       4.830  25.465  52.571  1.00  0.00     0.030 A 
BRANCH  10  13
HETATM   13  C   UNL     1       6.823  24.168  55.474  1.00  0.00     0.253 C 
HETATM   14  N   UNL     1       7.446  22.916  55.416  1.00  0.00    -0.348 N 
HETATM   15  C   UNL     1       7.635  22.141  54.183  1.00  0.00     0.132 C 
HETATM   16  C   UNL     1       7.560  22.176  56.672  1.00  0.00     0.126 C 
HETATM   17  C   UNL     1       8.880  21.242  54.224  1.00  0.00     0.027 C 
HETATM   18  C   UNL     1       8.893  20.397  55.503  1.00  0.00     0.010 C 
HETATM   19  C   UNL     1       8.808  21.303  56.725  1.00  0.00     0.020 C 
HETATM   20  O   UNL     1       6.556  24.749  56.524  1.00  0.00    -0.267 OA
BRANCH  17  21
HETATM   21  C   UNL     1       8.969  20.375  52.965  1.00  0.00     0.170 C 
BRANCH  21  22
HETATM   22  O   UNL     1       7.681  19.995  52.499  1.00  0.00    -0.400 OA
HETATM   23  H   UNL     1       7.046  20.168  53.218  1.00  0.00     0.209 HD
ENDBRANCH  21  22
ENDBRANCH  17  21
ENDBRANCH  10  13
ENDBRANCH   4   7
BRANCH   1  24
HETATM   24  N   UNL     1       2.964  28.479  48.343  1.00  0.00    -0.064 N 
HETATM   25  C   UNL     1       2.562  29.971  48.224  1.00  0.00     0.255 C 
HETATM   26  C   UNL     1       1.033  30.144  48.288  1.00  0.00     0.150 C 
HETATM   27  N   UNL     1       0.349  29.348  47.243  1.00  0.00    -0.375 N 
HETATM   28  C   UNL     1       0.722  27.926  47.224  1.00  0.00     0.150 C 
HETATM   29  C   UNL     1       2.250  27.694  47.225  1.00  0.00     0.255 C 
HETATM   30  H   UNL     1       2.590  28.134  49.237  1.00  0.00     0.280 HD
BRANCH  27  31
HETATM   31  C   UNL     1       0.138  30.030  46.033  1.00  0.00     0.063 A 
HETATM   32  C   UNL     1       0.972  31.041  45.542  1.00  0.00     0.032 A 
HETATM   33  C   UNL     1       0.675  31.714  44.347  1.00  0.00     0.002 A 
HETATM   34  C   UNL     1      -0.457  31.378  43.608  1.00  0.00     0.003 A 
HETATM   35  C   UNL     1      -1.284  30.351  44.046  1.00  0.00     0.039 A 
HETATM   36  C   UNL     1      -0.969  29.686  45.227  1.00  0.00     0.092 A 
BRANCH  36  37
HETATM   37  O   UNL     1      -1.745  28.605  45.565  1.00  0.00    -0.358 OA
HETATM   38  H   UNL     1      -1.542  27.942  44.880  1.00  0.00     0.218 HD
ENDBRANCH  36  37
ENDBRANCH  27  31
ENDBRANCH   1  24
TORSDOF 7
ENDMDL
MODEL 7
REMARK VINA RESULT:      -8.7      8.996     13.141
REMARK  7 active torsions:
REMARK  status: ('A' for Active; 'I' for Inactive)
REMARK    1  A    between atoms: C_3  and  N_4 
REMARK    2  A    between atoms: N_7  and  C_9 
REMARK    3  A    between atoms: N_12  and  C_13 
REMARK    4  A    between atoms: C_16  and  C_17 
REMARK       I    between atoms: C_17  and  N_18 
REMARK    5  A    between atoms: C_20  and  C_21 
REMARK    6  A    between atoms: C_21  and  O_22 
REMARK    7  A    between atoms: C_33  and  O_34 
ROOT
HETATM    1  C   UNL     1       5.206  27.251  49.709  1.00  0.00     0.191 C 
HETATM    2  C   UNL     1       4.596  26.342  48.627  1.00  0.00     0.053 C 
HETATM    3  C   UNL     1       3.105  26.591  48.415  1.00  0.00     0.125 C 
HETATM    4  N   UNL     1       2.904  28.019  48.173  1.00  0.00    -0.381 N 
HETATM    5  C   UNL     1       3.353  28.930  49.217  1.00  0.00     0.125 C 
HETATM    6  C   UNL     1       4.852  28.716  49.411  1.00  0.00     0.053 C 
ENDROOT
BRANCH   4   7
HETATM    7  C   UNL     1       1.775  28.355  47.420  1.00  0.00     0.030 A 
HETATM    8  C   UNL     1       0.704  27.474  47.198  1.00  0.00     0.030 A 
HETATM    9  C   UNL     1      -0.428  27.869  46.473  1.00  0.00     0.019 A 
HETATM   10  C   UNL     1      -0.522  29.174  45.987  1.00  0.00     0.032 A 
HETATM   11  C   UNL     1       0.539  30.060  46.169  1.00  0.00     0.019 A 
HETATM   12  C   UNL     1       1.669  29.651  46.882  1.00  0.00     0.030 A 
BRANCH  10  13
HETATM   13  C   UNL     1      -1.689  29.635  45.207  1.00  0.00     0.253 C 
HETATM   14  N   UNL     1      -1.876  29.181  43.897  1.00  0.00    -0.348 N 
HETATM   15  C   UNL     1      -0.884  28.409  43.138  1.00  0.00     0.132 C 
HETATM   16  C   UNL     1      -2.929  29.831  43.116  1.00  0.00     0.126 C 
HETATM   17  C   UNL     1      -1.520  27.463  42.108  1.00  0.00     0.027 C 
HETATM   18  C   UNL     1      -2.527  28.218  41.233  1.00  0.00     0.010 C 
HETATM   19  C   UNL     1      -3.578  28.888  42.111  1.00  0.00     0.020 C 
HETATM   20  O   UNL     1      -2.470  30.388  45.787  1.00  0.00    -0.267 OA
BRANCH  17  21
HETATM   21  C   UNL     1      -0.444  26.767  41.269  1.00  0.00     0.170 C 
BRANCH  21  22
HETATM   22  O   UNL     1       0.032  25.587  41.902  1.00  0.00    -0.400 OA
HETATM   23  H   UNL     1       0.383  25.844  42.774  1.00  0.00     0.209 HD
ENDBRANCH  21  22
ENDBRANCH  17  21
ENDBRANCH  10  13
ENDBRANCH   4   7
BRANCH   1  24
HETATM   24  N   UNL     1       4.789  26.806  51.130  1.00  0.00    -0.064 N 
HETATM   25  C   UNL     1       4.866  25.267  51.289  1.00  0.00     0.255 C 
HETATM   26  C   UNL     1       4.395  24.826  52.688  1.00  0.00     0.150 C 
HETATM   27  N   UNL     1       5.173  25.487  53.760  1.00  0.00    -0.375 N 
HETATM   28  C   UNL     1       5.224  26.952  53.655  1.00  0.00     0.150 C 
HETATM   29  C   UNL     1       5.630  27.451  52.249  1.00  0.00     0.255 C 
HETATM   30  H   UNL     1       3.811  27.080  51.295  1.00  0.00     0.280 HD
BRANCH  27  31
HETATM   31  C   UNL     1       6.311  24.778  54.179  1.00  0.00     0.063 A 
HETATM   32  C   UNL     1       7.278  24.256  53.312  1.00  0.00     0.032 A 
HETATM   33  C   UNL     1       8.367  23.515  53.797  1.00  0.00     0.002 A 
HETATM   34  C   UNL     1       8.520  23.294  55.164  1.00  0.00     0.003 A 
HETATM   35  C   UNL     1       7.600  23.831  56.055  1.00  0.00     0.039 A 
HETATM   36  C   UNL     1       6.533  24.574  55.559  1.00  0.00     0.092 A 
BRANCH  36  37
HETATM   37  O   UNL     1       5.712  25.183  56.474  1.00  0.00    -0.358 OA
HETATM   38  H   UNL     1       5.419  24.455  57.054  1.00  0.00     0.218 HD
ENDBRANCH  36  37
ENDBRANCH  27  31
ENDBRANCH   1  24
TORSDOF 7
ENDMDL
MODEL 8
REMARK VINA RESULT:      -8.6      2.659     10.776
REMARK  7 active torsions:
REMARK  status: ('A' for Active; 'I' for Inactive)
REMARK    1  A    between atoms: C_3  and  N_4 
REMARK    2  A    between atoms: N_7  and  C_9 
REMARK    3  A    between atoms: N_12  and  C_13 
REMARK    4  A    between atoms: C_16  and  C_17 
REMARK       I    between atoms: C_17  and  N_18 
REMARK    5  A    between atoms: C_20  and  C_21 
REMARK    6  A    between atoms: C_21  and  O_22 
REMARK    7  A    between atoms: C_33  and  O_34 
ROOT
HETATM    1  C   UNL     1       6.796  24.951  56.219  1.00  0.00     0.191 C 
HETATM    2  C   UNL     1       7.919  25.935  56.591  1.00  0.00     0.053 C 
HETATM    3  C   UNL     1       7.525  27.394  56.372  1.00  0.00     0.125 C 
HETATM    4  N   UNL     1       6.264  27.643  57.067  1.00  0.00    -0.381 N 
HETATM    5  C   UNL     1       5.126  26.821  56.675  1.00  0.00     0.125 C 
HETATM    6  C   UNL     1       5.495  25.361  56.926  1.00  0.00     0.053 C 
ENDROOT
BRANCH   4   7
HETATM    7  C   UNL     1       6.040  28.963  57.468  1.00  0.00     0.030 A 
HETATM    8  C   UNL     1       7.061  29.820  57.909  1.00  0.00     0.030 A 
HETATM    9  C   UNL     1       6.797  31.151  58.259  1.00  0.00     0.019 A 
HETATM   10  C   UNL     1       5.503  31.658  58.136  1.00  0.00     0.032 A 
HETATM   11  C   UNL     1       4.466  30.821  57.728  1.00  0.00     0.019 A 
HETATM   12  C   UNL     1       4.738  29.491  57.395  1.00  0.00     0.030 A 
BRANCH  10  13
HETATM   13  C   UNL     1       5.171  33.050  58.505  1.00  0.00     0.253 C 
HETATM   14  N   UNL     1       5.026  33.400  59.851  1.00  0.00    -0.348 N 
HETATM   15  C   UNL     1       4.986  32.436  60.958  1.00  0.00     0.132 C 
HETATM   16  C   UNL     1       4.498  34.735  60.134  1.00  0.00     0.126 C 
HETATM   17  C   UNL     1       5.525  33.013  62.276  1.00  0.00     0.027 C 
HETATM   18  C   UNL     1       4.854  34.355  62.591  1.00  0.00     0.010 C 
HETATM   19  C   UNL     1       5.051  35.320  61.428  1.00  0.00     0.020 C 
HETATM   20  O   UNL     1       5.075  33.852  57.576  1.00  0.00    -0.267 OA
BRANCH  17  21
HETATM   21  C   UNL     1       5.359  32.009  63.420  1.00  0.00     0.170 C 
BRANCH  21  22
HETATM   22  O   UNL     1       4.610  30.871  63.014  1.00  0.00    -0.400 OA
HETATM   23  H   UNL     1       4.430  30.964  62.061  1.00  0.00     0.209 HD
ENDBRANCH  21  22
ENDBRANCH  17  21
ENDBRANCH  10  13
ENDBRANCH   4   7
BRANCH   1  24
HETATM   24  N   UNL     1       6.635  24.821  54.686  1.00  0.00    -0.064 N 
HETATM   25  C   UNL     1       5.195  25.171  54.234  1.00  0.00     0.255 C 
HETATM   26  C   UNL     1       5.026  24.985  52.714  1.00  0.00     0.150 C 
HETATM   27  N   UNL     1       6.008  25.790  51.953  1.00  0.00    -0.375 N 
HETATM   28  C   UNL     1       7.405  25.585  52.361  1.00  0.00     0.150 C 
HETATM   29  C   UNL     1       7.620  25.697  53.887  1.00  0.00     0.255 C 
HETATM   30  H   UNL     1       6.811  23.845  54.411  1.00  0.00     0.280 HD
BRANCH  27  31
HETATM   31  C   UNL     1       5.565  27.078  51.606  1.00  0.00     0.063 A 
HETATM   32  C   UNL     1       5.551  28.169  52.482  1.00  0.00     0.032 A 
HETATM   33  C   UNL     1       5.049  29.417  52.082  1.00  0.00     0.002 A 
HETATM   34  C   UNL     1       4.564  29.604  50.790  1.00  0.00     0.003 A 
HETATM   35  C   UNL     1       4.600  28.552  49.883  1.00  0.00     0.039 A 
HETATM   36  C   UNL     1       5.112  27.325  50.291  1.00  0.00     0.092 A 
BRANCH  36  37
HETATM   37  O   UNL     1       5.237  26.347  49.336  1.00  0.00    -0.358 OA
HETATM   38  H   UNL     1       4.730  25.596  49.697  1.00  0.00     0.218 HD
ENDBRANCH  36  37
ENDBRANCH  27  31
ENDBRANCH   1  24
TORSDOF 7
ENDMDL
MODEL 9
REMARK VINA RESULT:      -8.5      1.988     11.318
REMARK  7 active torsions:
REMARK  status: ('A' for Active; 'I' for Inactive)
REMARK    1  A    between atoms: C_3  and  N_4 
REMARK    2  A    between atoms: N_7  and  C_9 
REMARK    3  A    between atoms: N_12  and  C_13 
REMARK    4  A    between atoms: C_16  and  C_17 
REMARK       I    between atoms: C_17  and  N_18 
REMARK    5  A    between atoms: C_20  and  C_21 
REMARK    6  A    between atoms: C_21  and  O_22 
REMARK    7  A    between atoms: C_33  and  O_34 
ROOT
HETATM    1  C   UNL     1       4.269  29.795  55.017  1.00  0.00     0.191 C 
HETATM    2  C   UNL     1       4.139  29.058  56.362  1.00  0.00     0.053 C 
HETATM    3  C   UNL     1       5.259  29.407  57.339  1.00  0.00     0.125 C 
HETATM    4  N   UNL     1       5.327  30.862  57.465  1.00  0.00    -0.381 N 
HETATM    5  C   UNL     1       5.569  31.615  56.241  1.00  0.00     0.125 C 
HETATM    6  C   UNL     1       4.433  31.302  55.269  1.00  0.00     0.053 C 
ENDROOT
BRANCH   4   7
HETATM    7  C   UNL     1       5.845  31.345  58.670  1.00  0.00     0.030 A 
HETATM    8  C   UNL     1       5.116  32.158  59.553  1.00  0.00     0.030 A 
HETATM    9  C   UNL     1       5.660  32.583  60.772  1.00  0.00     0.019 A 
HETATM   10  C   UNL     1       6.939  32.167  61.145  1.00  0.00     0.032 A 
HETATM   11  C   UNL     1       7.695  31.383  60.275  1.00  0.00     0.019 A 
HETATM   12  C   UNL     1       7.147  30.976  59.055  1.00  0.00     0.030 A 
BRANCH  10  13
HETATM   13  C   UNL     1       7.561  32.599  62.414  1.00  0.00     0.253 C 
HETATM   14  N   UNL     1       6.788  33.240  63.388  1.00  0.00    -0.348 N 
HETATM   15  C   UNL     1       5.411  33.705  63.180  1.00  0.00     0.132 C 
HETATM   16  C   UNL     1       7.505  33.821  64.524  1.00  0.00     0.126 C 
HETATM   17  C   UNL     1       4.574  33.698  64.467  1.00  0.00     0.027 C 
HETATM   18  C   UNL     1       5.315  34.425  65.596  1.00  0.00     0.010 C 
HETATM   19  C   UNL     1       6.685  33.793  65.808  1.00  0.00     0.020 C 
HETATM   20  O   UNL     1       8.753  32.329  62.557  1.00  0.00    -0.267 OA
BRANCH  17  21
HETATM   21  C   UNL     1       3.186  34.296  64.219  1.00  0.00     0.170 C 
BRANCH  21  22
HETATM   22  O   UNL     1       2.384  33.441  63.415  1.00  0.00    -0.400 OA
HETATM   23  H   UNL     1       2.484  32.535  63.760  1.00  0.00     0.209 HD
ENDBRANCH  21  22
ENDBRANCH  17  21
ENDBRANCH  10  13
ENDBRANCH   4   7
BRANCH   1  24
HETATM   24  N   UNL     1       5.401  29.201  54.147  1.00  0.00    -0.064 N 
HETATM   25  C   UNL     1       6.522  28.581  55.019  1.00  0.00     0.255 C 
HETATM   26  C   UNL     1       7.673  28.043  54.148  1.00  0.00     0.150 C 
HETATM   27  N   UNL     1       7.193  27.052  53.159  1.00  0.00    -0.375 N 
HETATM   28  C   UNL     1       6.073  27.520  52.329  1.00  0.00     0.150 C 
HETATM   29  C   UNL     1       4.915  28.130  53.151  1.00  0.00     0.255 C 
HETATM   30  H   UNL     1       5.829  29.954  53.592  1.00  0.00     0.280 HD
BRANCH  27  31
HETATM   31  C   UNL     1       7.221  25.719  53.604  1.00  0.00     0.063 A 
HETATM   32  C   UNL     1       6.807  25.304  54.875  1.00  0.00     0.032 A 
HETATM   33  C   UNL     1       6.909  23.962  55.271  1.00  0.00     0.002 A 
HETATM   34  C   UNL     1       7.412  23.001  54.396  1.00  0.00     0.003 A 
HETATM   35  C   UNL     1       7.794  23.373  53.113  1.00  0.00     0.039 A 
HETATM   36  C   UNL     1       7.677  24.706  52.732  1.00  0.00     0.092 A 
BRANCH  36  37
HETATM   37  O   UNL     1       7.956  25.013  51.424  1.00  0.00    -0.358 OA
HETATM   38  H   UNL     1       7.456  24.351  50.912  1.00  0.00     0.218 HD
ENDBRANCH  36  37
ENDBRANCH  27  31
ENDBRANCH   1  24
TORSDOF 7
ENDMDL
MODEL 10
REMARK VINA RESULT:      -8.3      7.976     12.382
REMARK  7 active torsions:
REMARK  status: ('A' for Active; 'I' for Inactive)
REMARK    1  A    between atoms: C_3  and  N_4 
REMARK    2  A    between atoms: N_7  and  C_9 
REMARK    3  A    between atoms: N_12  and  C_13 
REMARK    4  A    between atoms: C_16  and  C_17 
REMARK       I    between atoms: C_17  and  N_18 
REMARK    5  A    between atoms: C_20  and  C_21 
REMARK    6  A    between atoms: C_21  and  O_22 
REMARK    7  A    between atoms: C_33  and  O_34 
ROOT
HETATM    1  C   UNL     1       4.591  26.641  51.875  1.00  0.00     0.191 C 
HETATM    2  C   UNL     1       4.094  28.074  52.138  1.00  0.00     0.053 C 
HETATM    3  C   UNL     1       4.813  29.116  51.284  1.00  0.00     0.125 C 
HETATM    4  N   UNL     1       4.727  28.707  49.884  1.00  0.00    -0.381 N 
HETATM    5  C   UNL     1       5.290  27.405  49.546  1.00  0.00     0.125 C 
HETATM    6  C   UNL     1       4.551  26.350  50.366  1.00  0.00     0.053 C 
ENDROOT
BRANCH   4   7
HETATM    7  C   UNL     1       4.795  29.738  48.943  1.00  0.00     0.030 A 
HETATM    8  C   UNL     1       5.170  31.052  49.263  1.00  0.00     0.030 A 
HETATM    9  C   UNL     1       5.267  32.045  48.279  1.00  0.00     0.019 A 
HETATM   10  C   UNL     1       5.023  31.725  46.943  1.00  0.00     0.032 A 
HETATM   11  C   UNL     1       4.621  30.435  46.601  1.00  0.00     0.019 A 
HETATM   12  C   UNL     1       4.515  29.456  47.593  1.00  0.00     0.030 A 
BRANCH  10  13
HETATM   13  C   UNL     1       5.099  32.739  45.870  1.00  0.00     0.253 C 
HETATM   14  N   UNL     1       6.017  33.790  45.967  1.00  0.00    -0.348 N 
HETATM   15  C   UNL     1       6.807  34.092  47.168  1.00  0.00     0.132 C 
HETATM   16  C   UNL     1       5.898  34.864  44.981  1.00  0.00     0.126 C 
HETATM   17  C   UNL     1       8.160  34.746  46.847  1.00  0.00     0.027 C 
HETATM   18  C   UNL     1       7.971  35.941  45.906  1.00  0.00     0.010 C 
HETATM   19  C   UNL     1       7.242  35.497  44.643  1.00  0.00     0.020 C 
HETATM   20  O   UNL     1       4.351  32.572  44.908  1.00  0.00    -0.267 OA
BRANCH  17  21
HETATM   21  C   UNL     1       8.893  35.141  48.132  1.00  0.00     0.170 C 
BRANCH  21  22
HETATM   22  O   UNL     1      10.272  35.389  47.893  1.00  0.00    -0.400 OA
HETATM   23  H   UNL     1      10.700  35.521  48.759  1.00  0.00     0.209 HD
ENDBRANCH  21  22
ENDBRANCH  17  21
ENDBRANCH  10  13
ENDBRANCH   4   7
BRANCH   1  24
HETATM   24  N   UNL     1       5.983  26.395  52.501  1.00  0.00    -0.064 N 
HETATM   25  C   UNL     1       5.869  25.764  53.911  1.00  0.00     0.255 C 
HETATM   26  C   UNL     1       7.257  25.575  54.553  1.00  0.00     0.150 C 
HETATM   27  N   UNL     1       8.146  24.754  53.699  1.00  0.00    -0.375 N 
HETATM   28  C   UNL     1       8.261  25.229  52.313  1.00  0.00     0.150 C 
HETATM   29  C   UNL     1       6.895  25.498  51.642  1.00  0.00     0.255 C 
HETATM   30  H   UNL     1       6.467  27.297  52.610  1.00  0.00     0.280 HD
BRANCH  27  31
HETATM   31  C   UNL     1       8.098  23.374  53.961  1.00  0.00     0.063 A 
HETATM   32  C   UNL     1       7.715  22.407  53.024  1.00  0.00     0.032 A 
HETATM   33  C   UNL     1       7.643  21.049  53.369  1.00  0.00     0.002 A 
HETATM   34  C   UNL     1       7.968  20.626  54.656  1.00  0.00     0.003 A 
HETATM   35  C   UNL     1       8.390  21.555  55.598  1.00  0.00     0.039 A 
HETATM   36  C   UNL     1       8.468  22.897  55.237  1.00  0.00     0.092 A 
BRANCH  36  37
HETATM   37  O   UNL     1       8.997  23.766  56.159  1.00  0.00    -0.358 OA
HETATM   38  H   UNL     1       9.469  23.189  56.786  1.00  0.00     0.218 HD
ENDBRANCH  36  37
ENDBRANCH  27  31
ENDBRANCH   1  24
TORSDOF 7
ENDMDL
