MODEL 1
REMARK VINA RESULT:      -9.1      0.000      0.000
REMARK  7 active torsions:
REMARK  status: ('A' for Active; 'I' for Inactive)
REMARK    1  A    between atoms: C_8  and  C_9 
REMARK    2  A    between atoms: C_9  and  C_10 
REMARK    3  A    between atoms: C_10  and  C_11 
REMARK       I    between atoms: C_11  and  N_12 
REMARK    4  A    between atoms: N_12  and  C_13 
REMARK    5  A    between atoms: C_13  and  C_14 
REMARK    6  A    between atoms: C_14  and  C_15 
REMARK    7  A    between atoms: C_16  and  O_17 
ROOT
HETATM    1  C   UNL     1       7.872  28.395  55.367  1.00  0.00     0.217 C 
HETATM    2  N   UNL     1       7.322  27.147  55.165  1.00  0.00    -0.360 N 
HETATM    3  O   UNL     1       8.746  28.880  54.656  1.00  0.00    -0.274 OA
HETATM    4  H   UNL     1       6.728  26.766  55.891  1.00  0.00     0.162 HD
ENDROOT
BRANCH   2   5
HETATM    5  C   UNL     1       7.839  26.222  54.175  1.00  0.00     0.137 C 
BRANCH   5   6
HETATM    6  C   UNL     1       6.791  25.217  53.624  1.00  0.00     0.005 C 
HETATM    7  C   UNL     1       5.346  25.555  54.087  1.00  0.00     0.016 C 
HETATM    8  C   UNL     1       4.433  24.896  53.053  1.00  0.00     0.001 C 
HETATM    9  C   UNL     1       5.234  24.888  51.755  1.00  0.00     0.001 C 
HETATM   10  C   UNL     1       6.574  25.528  52.109  1.00  0.00     0.016 C 
BRANCH   6  11
HETATM   11  C   UNL     1       7.239  23.757  53.910  1.00  0.00    -0.015 A 
HETATM   12  C   UNL     1       7.348  23.214  55.216  1.00  0.00     0.075 A 
HETATM   13  C   UNL     1       7.764  21.884  55.400  1.00  0.00     0.037 A 
HETATM   14  C   UNL     1       8.095  21.079  54.313  1.00  0.00     0.003 A 
HETATM   15  C   UNL     1       8.033  21.600  53.032  1.00  0.00     0.001 A 
HETATM   16  C   UNL     1       7.623  22.921  52.837  1.00  0.00     0.011 A 
BRANCH  12  17
HETATM   17  O   UNL     1       7.086  24.051  56.272  1.00  0.00    -0.355 OA
HETATM   18  C   UNL     1       8.099  24.223  57.255  1.00  0.00     0.210 C 
ENDBRANCH  12  17
ENDBRANCH   6  11
ENDBRANCH   5   6
ENDBRANCH   2   5
BRANCH   1  19
HETATM   19  C   UNL     1       7.227  29.145  56.513  1.00  0.00     0.107 C 
BRANCH  19  20
HETATM   20  C   UNL     1       8.008  28.967  57.811  1.00  0.00     0.052 C 
BRANCH  20  21
HETATM   21  C   UNL     1       8.827  30.173  58.138  1.00  0.00    -0.008 A 
HETATM   22  C   UNL     1      10.144  30.436  57.810  1.00  0.00     0.032 A 
HETATM   23  C   UNL     1      11.157  29.661  57.058  1.00  0.00     0.070 C 
HETATM   24  N   UNL     1      10.424  31.663  58.345  1.00  0.00    -0.282 N 
HETATM   25  H   UNL     1      11.295  32.182  58.302  1.00  0.00     0.189 HD
HETATM   26  N   UNL     1       9.396  32.214  59.002  1.00  0.00    -0.179 NA
HETATM   27  C   UNL     1       8.411  31.318  58.876  1.00  0.00     0.059 A 
HETATM   28  C   UNL     1       7.080  31.582  59.479  1.00  0.00     0.073 C 
ENDBRANCH  20  21
ENDBRANCH  19  20
ENDBRANCH   1  19
TORSDOF 7
ENDMDL
MODEL 2
REMARK VINA RESULT:      -8.6      0.480      1.650
REMARK  7 active torsions:
REMARK  status: ('A' for Active; 'I' for Inactive)
REMARK    1  A    between atoms: C_8  and  C_9 
REMARK    2  A    between atoms: C_9  and  C_10 
REMARK    3  A    between atoms: C_10  and  C_11 
REMARK       I    between atoms: C_11  and  N_12 
REMARK    4  A    between atoms: N_12  and  C_13 
REMARK    5  A    between atoms: C_13  and  C_14 
REMARK    6  A    between atoms: C_14  and  C_15 
REMARK    7  A    between atoms: C_16  and  O_17 
ROOT
HETATM    1  C   UNL     1       7.217  28.222  55.431  1.00  0.00     0.217 C 
HETATM    2  N   UNL     1       7.492  26.875  55.530  1.00  0.00    -0.360 N 
HETATM    3  O   UNL     1       7.191  28.837  54.370  1.00  0.00    -0.274 OA
HETATM    4  H   UNL     1       7.651  26.488  56.453  1.00  0.00     0.162 HD
ENDROOT
BRANCH   2   5
HETATM    5  C   UNL     1       7.931  26.086  54.395  1.00  0.00     0.137 C 
BRANCH   5   6
HETATM    6  C   UNL     1       6.851  25.133  53.817  1.00  0.00     0.005 C 
HETATM    7  C   UNL     1       5.425  25.469  54.338  1.00  0.00     0.016 C 
HETATM    8  C   UNL     1       4.473  24.887  53.294  1.00  0.00     0.001 C 
HETATM    9  C   UNL     1       5.237  24.940  51.975  1.00  0.00     0.001 C 
HETATM   10  C   UNL     1       6.598  25.535  52.328  1.00  0.00     0.016 C 
BRANCH   6  11
HETATM   11  C   UNL     1       7.278  23.652  54.006  1.00  0.00    -0.015 A 
HETATM   12  C   UNL     1       7.419  23.034  55.275  1.00  0.00     0.075 A 
HETATM   13  C   UNL     1       7.814  21.688  55.370  1.00  0.00     0.037 A 
HETATM   14  C   UNL     1       8.093  20.940  54.229  1.00  0.00     0.003 A 
HETATM   15  C   UNL     1       8.000  21.533  52.983  1.00  0.00     0.001 A 
HETATM   16  C   UNL     1       7.610  22.870  52.875  1.00  0.00     0.011 A 
BRANCH  12  17
HETATM   17  O   UNL     1       7.208  23.815  56.383  1.00  0.00    -0.355 OA
HETATM   18  C   UNL     1       8.281  23.974  57.301  1.00  0.00     0.210 C 
ENDBRANCH  12  17
ENDBRANCH   6  11
ENDBRANCH   5   6
ENDBRANCH   2   5
BRANCH   1  19
HETATM   19  C   UNL     1       6.866  28.851  56.762  1.00  0.00     0.107 C 
BRANCH  19  20
HETATM   20  C   UNL     1       7.957  28.608  57.802  1.00  0.00     0.052 C 
BRANCH  20  21
HETATM   21  C   UNL     1       8.768  29.838  58.055  1.00  0.00    -0.008 A 
HETATM   22  C   UNL     1       8.467  30.919  58.863  1.00  0.00     0.032 A 
HETATM   23  C   UNL     1       7.299  31.227  59.719  1.00  0.00     0.070 C 
HETATM   24  N   UNL     1       9.525  31.777  58.748  1.00  0.00    -0.282 N 
HETATM   25  H   UNL     1       9.656  32.675  59.201  1.00  0.00     0.189 HD
HETATM   26  N   UNL     1      10.485  31.344  57.923  1.00  0.00    -0.179 NA
HETATM   27  C   UNL     1      10.040  30.156  57.500  1.00  0.00     0.059 A 
HETATM   28  C   UNL     1      10.852  29.346  56.555  1.00  0.00     0.073 C 
ENDBRANCH  20  21
ENDBRANCH  19  20
ENDBRANCH   1  19
TORSDOF 7
ENDMDL
MODEL 3
REMARK VINA RESULT:      -8.3      1.831      2.677
REMARK  7 active torsions:
REMARK  status: ('A' for Active; 'I' for Inactive)
REMARK    1  A    between atoms: C_8  and  C_9 
REMARK    2  A    between atoms: C_9  and  C_10 
REMARK    3  A    between atoms: C_10  and  C_11 
REMARK       I    between atoms: C_11  and  N_12 
REMARK    4  A    between atoms: N_12  and  C_13 
REMARK    5  A    between atoms: C_13  and  C_14 
REMARK    6  A    between atoms: C_14  and  C_15 
REMARK    7  A    between atoms: C_16  and  O_17 
ROOT
HETATM    1  C   UNL     1       9.557  29.502  56.192  1.00  0.00     0.217 C 
HETATM    2  N   UNL     1       8.466  28.784  55.753  1.00  0.00    -0.360 N 
HETATM    3  O   UNL     1      10.382  30.018  55.445  1.00  0.00    -0.274 OA
HETATM    4  H   UNL     1       7.933  28.261  56.438  1.00  0.00     0.162 HD
ENDROOT
BRANCH   2   5
HETATM    5  C   UNL     1       8.275  28.439  54.358  1.00  0.00     0.137 C 
BRANCH   5   6
HETATM    6  C   UNL     1       6.983  27.629  54.065  1.00  0.00     0.005 C 
HETATM    7  C   UNL     1       5.838  27.962  55.062  1.00  0.00     0.016 C 
HETATM    8  C   UNL     1       4.551  27.577  54.333  1.00  0.00     0.001 C 
HETATM    9  C   UNL     1       4.854  27.771  52.851  1.00  0.00     0.001 C 
HETATM   10  C   UNL     1       6.305  28.243  52.798  1.00  0.00     0.016 C 
BRANCH   6  11
HETATM   11  C   UNL     1       7.310  26.116  53.934  1.00  0.00    -0.015 A 
HETATM   12  C   UNL     1       7.502  25.258  55.048  1.00  0.00     0.075 A 
HETATM   13  C   UNL     1       7.800  23.898  54.853  1.00  0.00     0.037 A 
HETATM   14  C   UNL     1       7.931  23.368  53.572  1.00  0.00     0.003 A 
HETATM   15  C   UNL     1       7.785  24.195  52.472  1.00  0.00     0.001 A 
HETATM   16  C   UNL     1       7.491  25.548  52.653  1.00  0.00     0.011 A 
BRANCH  12  17
HETATM   17  O   UNL     1       7.439  25.822  56.297  1.00  0.00    -0.355 OA
HETATM   18  C   UNL     1       8.394  25.408  57.265  1.00  0.00     0.210 C 
ENDBRANCH  12  17
ENDBRANCH   6  11
ENDBRANCH   5   6
ENDBRANCH   2   5
BRANCH   1  19
HETATM   19  C   UNL     1       9.589  29.662  57.698  1.00  0.00     0.107 C 
BRANCH  19  20
HETATM   20  C   UNL     1       8.242  29.321  58.327  1.00  0.00     0.052 C 
BRANCH  20  21
HETATM   21  C   UNL     1       7.575  30.528  58.902  1.00  0.00    -0.008 A 
HETATM   22  C   UNL     1       6.536  31.274  58.375  1.00  0.00     0.032 A 
HETATM   23  C   UNL     1       5.757  31.148  57.123  1.00  0.00     0.070 C 
HETATM   24  N   UNL     1       6.297  32.271  59.279  1.00  0.00    -0.282 N 
HETATM   25  H   UNL     1       5.602  33.009  59.230  1.00  0.00     0.189 HD
HETATM   26  N   UNL     1       7.103  32.239  60.347  1.00  0.00    -0.179 NA
HETATM   27  C   UNL     1       7.883  31.173  60.134  1.00  0.00     0.059 A 
HETATM   28  C   UNL     1       8.923  30.798  61.126  1.00  0.00     0.073 C 
ENDBRANCH  20  21
ENDBRANCH  19  20
ENDBRANCH   1  19
TORSDOF 7
ENDMDL
MODEL 4
REMARK VINA RESULT:      -8.2      1.922      2.854
REMARK  7 active torsions:
REMARK  status: ('A' for Active; 'I' for Inactive)
REMARK    1  A    between atoms: C_8  and  C_9 
REMARK    2  A    between atoms: C_9  and  C_10 
REMARK    3  A    between atoms: C_10  and  C_11 
REMARK       I    between atoms: C_11  and  N_12 
REMARK    4  A    between atoms: N_12  and  C_13 
REMARK    5  A    between atoms: C_13  and  C_14 
REMARK    6  A    between atoms: C_14  and  C_15 
REMARK    7  A    between atoms: C_16  and  O_17 
ROOT
HETATM    1  C   UNL     1       5.211  26.591  56.555  1.00  0.00     0.217 C 
HETATM    2  N   UNL     1       5.236  26.067  55.280  1.00  0.00    -0.360 N 
HETATM    3  O   UNL     1       5.608  25.991  57.548  1.00  0.00    -0.274 OA
HETATM    4  H   UNL     1       4.742  26.566  54.550  1.00  0.00     0.162 HD
ENDROOT
BRANCH   2   5
HETATM    5  C   UNL     1       5.596  24.688  55.015  1.00  0.00     0.137 C 
BRANCH   5   6
HETATM    6  C   UNL     1       6.657  24.503  53.896  1.00  0.00     0.005 C 
HETATM    7  C   UNL     1       6.042  24.620  52.472  1.00  0.00     0.016 C 
HETATM    8  C   UNL     1       7.212  24.997  51.564  1.00  0.00     0.001 C 
HETATM    9  C   UNL     1       8.175  25.781  52.449  1.00  0.00     0.001 C 
HETATM   10  C   UNL     1       7.520  25.804  53.828  1.00  0.00     0.016 C 
BRANCH   6  11
HETATM   11  C   UNL     1       7.483  23.211  54.141  1.00  0.00    -0.015 A 
HETATM   12  C   UNL     1       8.407  23.064  55.207  1.00  0.00     0.075 A 
HETATM   13  C   UNL     1       9.124  21.865  55.365  1.00  0.00     0.037 A 
HETATM   14  C   UNL     1       8.960  20.807  54.474  1.00  0.00     0.003 A 
HETATM   15  C   UNL     1       8.093  20.944  53.404  1.00  0.00     0.001 A 
HETATM   16  C   UNL     1       7.376  22.130  53.236  1.00  0.00     0.011 A 
BRANCH  12  17
HETATM   17  O   UNL     1       8.603  24.147  56.027  1.00  0.00    -0.355 OA
HETATM   18  C   UNL     1       8.647  23.923  57.430  1.00  0.00     0.210 C 
ENDBRANCH  12  17
ENDBRANCH   6  11
ENDBRANCH   5   6
ENDBRANCH   2   5
BRANCH   1  19
HETATM   19  C   UNL     1       4.717  28.021  56.594  1.00  0.00     0.107 C 
BRANCH  19  20
HETATM   20  C   UNL     1       5.803  29.001  56.161  1.00  0.00     0.052 C 
BRANCH  20  21
HETATM   21  C   UNL     1       6.637  29.453  57.316  1.00  0.00    -0.008 A 
HETATM   22  C   UNL     1       6.404  30.497  58.193  1.00  0.00     0.032 A 
HETATM   23  C   UNL     1       5.305  31.482  58.297  1.00  0.00     0.070 C 
HETATM   24  N   UNL     1       7.462  30.499  59.060  1.00  0.00    -0.282 N 
HETATM   25  H   UNL     1       7.630  31.123  59.842  1.00  0.00     0.189 HD
HETATM   26  N   UNL     1       8.367  29.546  58.810  1.00  0.00    -0.179 NA
HETATM   27  C   UNL     1       7.872  28.894  57.753  1.00  0.00     0.059 A 
HETATM   28  C   UNL     1       8.607  27.740  57.175  1.00  0.00     0.073 C 
ENDBRANCH  20  21
ENDBRANCH  19  20
ENDBRANCH   1  19
TORSDOF 7
ENDMDL
MODEL 5
REMARK VINA RESULT:      -8.1      2.957      7.567
REMARK  7 active torsions:
REMARK  status: ('A' for Active; 'I' for Inactive)
REMARK    1  A    between atoms: C_8  and  C_9 
REMARK    2  A    between atoms: C_9  and  C_10 
REMARK    3  A    between atoms: C_10  and  C_11 
REMARK       I    between atoms: C_11  and  N_12 
REMARK    4  A    between atoms: N_12  and  C_13 
REMARK    5  A    between atoms: C_13  and  C_14 
REMARK    6  A    between atoms: C_14  and  C_15 
REMARK    7  A    between atoms: C_16  and  O_17 
ROOT
HETATM    1  C   UNL     1       7.797  24.595  57.321  1.00  0.00     0.217 C 
HETATM    2  N   UNL     1       6.600  24.867  56.695  1.00  0.00    -0.360 N 
HETATM    3  O   UNL     1       8.315  25.328  58.157  1.00  0.00    -0.274 OA
HETATM    4  H   UNL     1       6.332  24.290  55.908  1.00  0.00     0.162 HD
ENDROOT
BRANCH   2   5
HETATM    5  C   UNL     1       5.911  26.133  56.856  1.00  0.00     0.137 C 
BRANCH   5   6
HETATM    6  C   UNL     1       6.416  27.265  55.920  1.00  0.00     0.005 C 
HETATM    7  C   UNL     1       7.178  26.713  54.682  1.00  0.00     0.016 C 
HETATM    8  C   UNL     1       7.085  27.819  53.632  1.00  0.00     0.001 C 
HETATM    9  C   UNL     1       5.776  28.545  53.925  1.00  0.00     0.001 C 
HETATM   10  C   UNL     1       5.187  27.830  55.139  1.00  0.00     0.016 C 
BRANCH   6  11
HETATM   11  C   UNL     1       7.192  28.336  56.735  1.00  0.00    -0.015 A 
HETATM   12  C   UNL     1       6.558  29.309  57.549  1.00  0.00     0.075 A 
HETATM   13  C   UNL     1       7.326  30.252  58.256  1.00  0.00     0.037 A 
HETATM   14  C   UNL     1       8.715  30.265  58.160  1.00  0.00     0.003 A 
HETATM   15  C   UNL     1       9.351  29.349  57.340  1.00  0.00     0.001 A 
HETATM   16  C   UNL     1       8.600  28.409  56.632  1.00  0.00     0.011 A 
BRANCH  12  17
HETATM   17  O   UNL     1       5.186  29.320  57.569  1.00  0.00    -0.355 OA
HETATM   18  C   UNL     1       4.530  30.571  57.723  1.00  0.00     0.210 C 
ENDBRANCH  12  17
ENDBRANCH   6  11
ENDBRANCH   5   6
ENDBRANCH   2   5
BRANCH   1  19
HETATM   19  C   UNL     1       8.372  23.249  56.932  1.00  0.00     0.107 C 
BRANCH  19  20
HETATM   20  C   UNL     1       9.136  23.325  55.614  1.00  0.00     0.052 C 
BRANCH  20  21
HETATM   21  C   UNL     1       8.705  22.261  54.657  1.00  0.00    -0.008 A 
HETATM   22  C   UNL     1       8.118  22.405  53.414  1.00  0.00     0.032 A 
HETATM   23  C   UNL     1       7.730  23.599  52.629  1.00  0.00     0.070 C 
HETATM   24  N   UNL     1       7.914  21.136  52.948  1.00  0.00    -0.282 N 
HETATM   25  H   UNL     1       7.505  20.850  52.065  1.00  0.00     0.189 HD
HETATM   26  N   UNL     1       8.314  20.179  53.793  1.00  0.00    -0.179 NA
HETATM   27  C   UNL     1       8.808  20.852  54.838  1.00  0.00     0.059 A 
HETATM   28  C   UNL     1       9.367  20.119  56.003  1.00  0.00     0.073 C 
ENDBRANCH  20  21
ENDBRANCH  19  20
ENDBRANCH   1  19
TORSDOF 7
ENDMDL
MODEL 6
REMARK VINA RESULT:      -8.0      2.562      3.489
REMARK  7 active torsions:
REMARK  status: ('A' for Active; 'I' for Inactive)
REMARK    1  A    between atoms: C_8  and  C_9 
REMARK    2  A    between atoms: C_9  and  C_10 
REMARK    3  A    between atoms: C_10  and  C_11 
REMARK       I    between atoms: C_11  and  N_12 
REMARK    4  A    between atoms: N_12  and  C_13 
REMARK    5  A    between atoms: C_13  and  C_14 
REMARK    6  A    between atoms: C_14  and  C_15 
REMARK    7  A    between atoms: C_16  and  O_17 
ROOT
HETATM    1  C   UNL     1       7.573  28.854  55.829  1.00  0.00     0.217 C 
HETATM    2  N   UNL     1       6.901  27.943  55.043  1.00  0.00    -0.360 N 
HETATM    3  O   UNL     1       8.765  29.114  55.707  1.00  0.00    -0.274 OA
HETATM    4  H   UNL     1       5.964  27.676  55.319  1.00  0.00     0.162 HD
ENDROOT
BRANCH   2   5
HETATM    5  C   UNL     1       7.583  27.087  54.092  1.00  0.00     0.137 C 
BRANCH   5   6
HETATM    6  C   UNL     1       6.773  25.838  53.653  1.00  0.00     0.005 C 
HETATM    7  C   UNL     1       5.273  25.935  54.050  1.00  0.00     0.016 C 
HETATM    8  C   UNL     1       4.545  24.994  53.091  1.00  0.00     0.001 C 
HETATM    9  C   UNL     1       5.380  24.993  51.815  1.00  0.00     0.001 C 
HETATM   10  C   UNL     1       6.557  25.921  52.107  1.00  0.00     0.016 C 
BRANCH   6  11
HETATM   11  C   UNL     1       7.484  24.538  54.120  1.00  0.00    -0.015 A 
HETATM   12  C   UNL     1       7.691  24.207  55.484  1.00  0.00     0.075 A 
HETATM   13  C   UNL     1       8.347  23.014  55.833  1.00  0.00     0.037 A 
HETATM   14  C   UNL     1       8.824  22.144  54.856  1.00  0.00     0.003 A 
HETATM   15  C   UNL     1       8.666  22.466  53.519  1.00  0.00     0.001 A 
HETATM   16  C   UNL     1       8.018  23.649  53.160  1.00  0.00     0.011 A 
BRANCH  12  17
HETATM   17  O   UNL     1       7.277  25.117  56.424  1.00  0.00    -0.355 OA
HETATM   18  C   UNL     1       8.194  25.485  57.446  1.00  0.00     0.210 C 
ENDBRANCH  12  17
ENDBRANCH   6  11
ENDBRANCH   5   6
ENDBRANCH   2   5
BRANCH   1  19
HETATM   19  C   UNL     1       6.666  29.568  56.809  1.00  0.00     0.107 C 
BRANCH  19  20
HETATM   20  C   UNL     1       5.263  28.969  56.813  1.00  0.00     0.052 C 
BRANCH  20  21
HETATM   21  C   UNL     1       4.234  29.957  56.367  1.00  0.00    -0.008 A 
HETATM   22  C   UNL     1       3.752  30.186  55.092  1.00  0.00     0.032 A 
HETATM   23  C   UNL     1       4.065  29.566  53.784  1.00  0.00     0.070 C 
HETATM   24  N   UNL     1       2.834  31.191  55.214  1.00  0.00    -0.282 N 
HETATM   25  H   UNL     1       2.273  31.620  54.486  1.00  0.00     0.189 HD
HETATM   26  N   UNL     1       2.687  31.640  56.466  1.00  0.00    -0.179 NA
HETATM   27  C   UNL     1       3.529  30.889  57.183  1.00  0.00     0.059 A 
HETATM   28  C   UNL     1       3.646  31.089  58.650  1.00  0.00     0.073 C 
ENDBRANCH  20  21
ENDBRANCH  19  20
ENDBRANCH   1  19
TORSDOF 7
ENDMDL
MODEL 7
REMARK VINA RESULT:      -7.9      2.678      8.264
REMARK  7 active torsions:
REMARK  status: ('A' for Active; 'I' for Inactive)
REMARK    1  A    between atoms: C_8  and  C_9 
REMARK    2  A    between atoms: C_9  and  C_10 
REMARK    3  A    between atoms: C_10  and  C_11 
REMARK       I    between atoms: C_11  and  N_12 
REMARK    4  A    between atoms: N_12  and  C_13 
REMARK    5  A    between atoms: C_13  and  C_14 
REMARK    6  A    between atoms: C_14  and  C_15 
REMARK    7  A    between atoms: C_16  and  O_17 
ROOT
HETATM    1  C   UNL     1       6.272  25.210  56.673  1.00  0.00     0.217 C 
HETATM    2  N   UNL     1       7.312  26.113  56.625  1.00  0.00    -0.360 N 
HETATM    3  O   UNL     1       5.307  25.317  57.424  1.00  0.00    -0.274 OA
HETATM    4  H   UNL     1       8.137  25.861  56.095  1.00  0.00     0.162 HD
ENDROOT
BRANCH   2   5
HETATM    5  C   UNL     1       7.437  27.203  57.573  1.00  0.00     0.137 C 
BRANCH   5   6
HETATM    6  C   UNL     1       8.086  28.489  56.994  1.00  0.00     0.005 C 
HETATM    7  C   UNL     1       9.615  28.555  57.267  1.00  0.00     0.016 C 
HETATM    8  C   UNL     1      10.169  29.494  56.196  1.00  0.00     0.001 C 
HETATM    9  C   UNL     1       9.239  29.336  54.998  1.00  0.00     0.001 C 
HETATM   10  C   UNL     1       8.185  28.325  55.444  1.00  0.00     0.016 C 
BRANCH   6  11
HETATM   11  C   UNL     1       7.292  29.746  57.445  1.00  0.00    -0.015 A 
HETATM   12  C   UNL     1       7.545  30.437  58.658  1.00  0.00     0.075 A 
HETATM   13  C   UNL     1       6.783  31.567  59.004  1.00  0.00     0.037 A 
HETATM   14  C   UNL     1       5.756  32.020  58.179  1.00  0.00     0.003 A 
HETATM   15  C   UNL     1       5.467  31.338  57.011  1.00  0.00     0.001 A 
HETATM   16  C   UNL     1       6.216  30.214  56.657  1.00  0.00     0.011 A 
BRANCH  12  17
HETATM   17  O   UNL     1       8.513  29.927  59.486  1.00  0.00    -0.355 OA
HETATM   18  C   UNL     1       8.799  30.626  60.690  1.00  0.00     0.210 C 
ENDBRANCH  12  17
ENDBRANCH   6  11
ENDBRANCH   5   6
ENDBRANCH   2   5
BRANCH   1  19
HETATM   19  C   UNL     1       6.400  24.109  55.642  1.00  0.00     0.107 C 
BRANCH  19  20
HETATM   20  C   UNL     1       7.750  23.404  55.738  1.00  0.00     0.052 C 
BRANCH  20  21
HETATM   21  C   UNL     1       7.902  22.346  54.694  1.00  0.00    -0.008 A 
HETATM   22  C   UNL     1       7.958  22.492  53.320  1.00  0.00     0.032 A 
HETATM   23  C   UNL     1       7.892  23.682  52.442  1.00  0.00     0.070 C 
HETATM   24  N   UNL     1       8.095  21.228  52.816  1.00  0.00    -0.282 N 
HETATM   25  H   UNL     1       8.173  20.945  51.845  1.00  0.00     0.189 HD
HETATM   26  N   UNL     1       8.125  20.273  53.753  1.00  0.00    -0.179 NA
HETATM   27  C   UNL     1       8.017  20.942  54.905  1.00  0.00     0.059 A 
HETATM   28  C   UNL     1       8.019  20.211  56.198  1.00  0.00     0.073 C 
ENDBRANCH  20  21
ENDBRANCH  19  20
ENDBRANCH   1  19
TORSDOF 7
ENDMDL
MODEL 8
REMARK VINA RESULT:      -7.7      2.965      7.536
REMARK  7 active torsions:
REMARK  status: ('A' for Active; 'I' for Inactive)
REMARK    1  A    between atoms: C_8  and  C_9 
REMARK    2  A    between atoms: C_9  and  C_10 
REMARK    3  A    between atoms: C_10  and  C_11 
REMARK       I    between atoms: C_11  and  N_12 
REMARK    4  A    between atoms: N_12  and  C_13 
REMARK    5  A    between atoms: C_13  and  C_14 
REMARK    6  A    between atoms: C_14  and  C_15 
REMARK    7  A    between atoms: C_16  and  O_17 
ROOT
HETATM    1  C   UNL     1       7.690  24.652  57.321  1.00  0.00     0.217 C 
HETATM    2  N   UNL     1       6.496  24.811  56.650  1.00  0.00    -0.360 N 
HETATM    3  O   UNL     1       8.110  25.437  58.165  1.00  0.00    -0.274 OA
HETATM    4  H   UNL     1       6.309  24.204  55.861  1.00  0.00     0.162 HD
ENDROOT
BRANCH   2   5
HETATM    5  C   UNL     1       5.693  26.011  56.771  1.00  0.00     0.137 C 
BRANCH   5   6
HETATM    6  C   UNL     1       5.956  27.076  55.672  1.00  0.00     0.005 C 
HETATM    7  C   UNL     1       7.442  27.099  55.214  1.00  0.00     0.016 C 
HETATM    8  C   UNL     1       7.417  27.717  53.817  1.00  0.00     0.001 C 
HETATM    9  C   UNL     1       6.058  27.344  53.233  1.00  0.00     0.001 C 
HETATM   10  C   UNL     1       5.360  26.543  54.330  1.00  0.00     0.016 C 
BRANCH   6  11
HETATM   11  C   UNL     1       5.390  28.456  56.108  1.00  0.00    -0.015 A 
HETATM   12  C   UNL     1       5.920  29.214  57.184  1.00  0.00     0.075 A 
HETATM   13  C   UNL     1       5.354  30.455  57.525  1.00  0.00     0.037 A 
HETATM   14  C   UNL     1       4.255  30.957  56.832  1.00  0.00     0.003 A 
HETATM   15  C   UNL     1       3.698  30.216  55.805  1.00  0.00     0.001 A 
HETATM   16  C   UNL     1       4.251  28.982  55.458  1.00  0.00     0.011 A 
BRANCH  12  17
HETATM   17  O   UNL     1       6.956  28.662  57.895  1.00  0.00    -0.355 OA
HETATM   18  C   UNL     1       8.052  29.500  58.236  1.00  0.00     0.210 C 
ENDBRANCH  12  17
ENDBRANCH   6  11
ENDBRANCH   5   6
ENDBRANCH   2   5
BRANCH   1  19
HETATM   19  C   UNL     1       8.395  23.359  56.969  1.00  0.00     0.107 C 
BRANCH  19  20
HETATM   20  C   UNL     1       9.094  23.452  55.616  1.00  0.00     0.052 C 
BRANCH  20  21
HETATM   21  C   UNL     1       8.641  22.379  54.680  1.00  0.00    -0.008 A 
HETATM   22  C   UNL     1       8.009  22.511  53.457  1.00  0.00     0.032 A 
HETATM   23  C   UNL     1       7.582  23.696  52.680  1.00  0.00     0.070 C 
HETATM   24  N   UNL     1       7.802  21.237  53.005  1.00  0.00    -0.282 N 
HETATM   25  H   UNL     1       7.365  20.943  52.137  1.00  0.00     0.189 HD
HETATM   26  N   UNL     1       8.240  20.289  53.840  1.00  0.00    -0.179 NA
HETATM   27  C   UNL     1       8.764  20.972  54.863  1.00  0.00     0.059 A 
HETATM   28  C   UNL     1       9.370  20.250  56.012  1.00  0.00     0.073 C 
ENDBRANCH  20  21
ENDBRANCH  19  20
ENDBRANCH   1  19
TORSDOF 7
ENDMDL
MODEL 9
REMARK VINA RESULT:      -7.6      3.847      7.420
REMARK  7 active torsions:
REMARK  status: ('A' for Active; 'I' for Inactive)
REMARK    1  A    between atoms: C_8  and  C_9 
REMARK    2  A    between atoms: C_9  and  C_10 
REMARK    3  A    between atoms: C_10  and  C_11 
REMARK       I    between atoms: C_11  and  N_12 
REMARK    4  A    between atoms: N_12  and  C_13 
REMARK    5  A    between atoms: C_13  and  C_14 
REMARK    6  A    between atoms: C_14  and  C_15 
REMARK    7  A    between atoms: C_16  and  O_17 
ROOT
HETATM    1  C   UNL     1       4.047  28.290  52.388  1.00  0.00     0.217 C 
HETATM    2  N   UNL     1       4.530  27.039  52.066  1.00  0.00    -0.360 N 
HETATM    3  O   UNL     1       3.854  28.673  53.537  1.00  0.00    -0.274 OA
HETATM    4  H   UNL     1       4.505  26.755  51.095  1.00  0.00     0.162 HD
ENDROOT
BRANCH   2   5
HETATM    5  C   UNL     1       4.710  25.998  53.059  1.00  0.00     0.137 C 
BRANCH   5   6
HETATM    6  C   UNL     1       6.185  25.565  53.277  1.00  0.00     0.005 C 
HETATM    7  C   UNL     1       6.318  24.041  53.560  1.00  0.00     0.016 C 
HETATM    8  C   UNL     1       7.755  23.690  53.175  1.00  0.00     0.001 C 
HETATM    9  C   UNL     1       8.131  24.674  52.072  1.00  0.00     0.001 C 
HETATM   10  C   UNL     1       6.897  25.554  51.886  1.00  0.00     0.016 C 
BRANCH   6  11
HETATM   11  C   UNL     1       6.869  26.481  54.328  1.00  0.00    -0.015 A 
HETATM   12  C   UNL     1       6.835  26.231  55.724  1.00  0.00     0.075 A 
HETATM   13  C   UNL     1       7.475  27.108  56.618  1.00  0.00     0.037 A 
HETATM   14  C   UNL     1       8.136  28.245  56.160  1.00  0.00     0.003 A 
HETATM   15  C   UNL     1       8.148  28.528  54.806  1.00  0.00     0.001 A 
HETATM   16  C   UNL     1       7.515  27.666  53.908  1.00  0.00     0.011 A 
BRANCH  12  17
HETATM   17  O   UNL     1       6.116  25.145  56.154  1.00  0.00    -0.355 OA
HETATM   18  C   UNL     1       5.031  25.371  57.044  1.00  0.00     0.210 C 
ENDBRANCH  12  17
ENDBRANCH   6  11
ENDBRANCH   5   6
ENDBRANCH   2   5
BRANCH   1  19
HETATM   19  C   UNL     1       3.858  29.177  51.177  1.00  0.00     0.107 C 
BRANCH  19  20
HETATM   20  C   UNL     1       3.097  28.458  50.068  1.00  0.00     0.052 C 
BRANCH  20  21
HETATM   21  C   UNL     1       3.971  28.161  48.893  1.00  0.00    -0.008 A 
HETATM   22  C   UNL     1       4.683  29.045  48.102  1.00  0.00     0.032 A 
HETATM   23  C   UNL     1       4.825  30.518  48.136  1.00  0.00     0.070 C 
HETATM   24  N   UNL     1       5.315  28.279  47.162  1.00  0.00    -0.282 N 
HETATM   25  H   UNL     1       5.929  28.584  46.414  1.00  0.00     0.189 HD
HETATM   26  N   UNL     1       5.064  26.970  47.274  1.00  0.00    -0.179 NA
HETATM   27  C   UNL     1       4.252  26.882  48.333  1.00  0.00     0.059 A 
HETATM   28  C   UNL     1       3.751  25.559  48.784  1.00  0.00     0.073 C 
ENDBRANCH  20  21
ENDBRANCH  19  20
ENDBRANCH   1  19
TORSDOF 7
ENDMDL
MODEL 10
REMARK VINA RESULT:      -7.5      3.697      6.254
REMARK  7 active torsions:
REMARK  status: ('A' for Active; 'I' for Inactive)
REMARK    1  A    between atoms: C_8  and  C_9 
REMARK    2  A    between atoms: C_9  and  C_10 
REMARK    3  A    between atoms: C_10  and  C_11 
REMARK       I    between atoms: C_11  and  N_12 
REMARK    4  A    between atoms: N_12  and  C_13 
REMARK    5  A    between atoms: C_13  and  C_14 
REMARK    6  A    between atoms: C_14  and  C_15 
REMARK    7  A    between atoms: C_16  and  O_17 
ROOT
HETATM    1  C   UNL     1       4.474  27.853  54.238  1.00  0.00     0.217 C 
HETATM    2  N   UNL     1       5.015  26.611  53.982  1.00  0.00    -0.360 N 
HETATM    3  O   UNL     1       4.080  28.213  55.343  1.00  0.00    -0.274 OA
HETATM    4  H   UNL     1       5.161  26.346  53.016  1.00  0.00     0.162 HD
ENDROOT
BRANCH   2   5
HETATM    5  C   UNL     1       5.028  25.552  54.972  1.00  0.00     0.137 C 
BRANCH   5   6
HETATM    6  C   UNL     1       6.413  25.299  55.628  1.00  0.00     0.005 C 
HETATM    7  C   UNL     1       7.359  26.527  55.505  1.00  0.00     0.016 C 
HETATM    8  C   UNL     1       8.373  26.362  56.636  1.00  0.00     0.001 C 
HETATM    9  C   UNL     1       7.633  25.609  57.736  1.00  0.00     0.001 C 
HETATM   10  C   UNL     1       6.233  25.364  57.178  1.00  0.00     0.016 C 
BRANCH   6  11
HETATM   11  C   UNL     1       7.017  23.962  55.119  1.00  0.00    -0.015 A 
HETATM   12  C   UNL     1       7.288  23.696  53.752  1.00  0.00     0.075 A 
HETATM   13  C   UNL     1       7.832  22.460  53.363  1.00  0.00     0.037 A 
HETATM   14  C   UNL     1       8.099  21.466  54.301  1.00  0.00     0.003 A 
HETATM   15  C   UNL     1       7.806  21.689  55.635  1.00  0.00     0.001 A 
HETATM   16  C   UNL     1       7.264  22.913  56.033  1.00  0.00     0.011 A 
BRANCH  12  17
HETATM   17  O   UNL     1       6.948  24.665  52.841  1.00  0.00    -0.355 OA
HETATM   18  C   UNL     1       7.994  25.285  52.104  1.00  0.00     0.210 C 
ENDBRANCH  12  17
ENDBRANCH   6  11
ENDBRANCH   5   6
ENDBRANCH   2   5
BRANCH   1  19
HETATM   19  C   UNL     1       4.491  28.763  53.028  1.00  0.00     0.107 C 
BRANCH  19  20
HETATM   20  C   UNL     1       5.754  28.566  52.196  1.00  0.00     0.052 C 
BRANCH  20  21
HETATM   21  C   UNL     1       5.465  28.585  50.730  1.00  0.00    -0.008 A 
HETATM   22  C   UNL     1       5.509  29.656  49.856  1.00  0.00     0.032 A 
HETATM   23  C   UNL     1       5.843  31.085  50.049  1.00  0.00     0.070 C 
HETATM   24  N   UNL     1       5.155  29.155  48.634  1.00  0.00    -0.282 N 
HETATM   25  H   UNL     1       5.081  29.649  47.751  1.00  0.00     0.189 HD
HETATM   26  N   UNL     1       4.876  27.846  48.647  1.00  0.00    -0.179 NA
HETATM   27  C   UNL     1       5.070  27.483  49.919  1.00  0.00     0.059 A 
HETATM   28  C   UNL     1       4.862  26.072  50.334  1.00  0.00     0.073 C 
ENDBRANCH  20  21
ENDBRANCH  19  20
ENDBRANCH   1  19
TORSDOF 7
ENDMDL
