MODEL 1
REMARK VINA RESULT:      -9.8      0.000      0.000
REMARK  7 active torsions:
REMARK  status: ('A' for Active; 'I' for Inactive)
REMARK    1  A    between atoms: C_2  and  N_3 
REMARK    2  A    between atoms: C_11  and  C_12 
REMARK    3  A    between atoms: C_14  and  O_15 
REMARK    4  A    between atoms: C_17  and  O_18 
REMARK    5  A    between atoms: O_18  and  C_19 
REMARK    6  A    between atoms: C_19  and  C_20 
REMARK    7  A    between atoms: C_31  and  O_32 
ROOT
HETATM    1  N   UNL     1       4.916  33.575  62.818  1.00  0.00    -0.067 N 
HETATM    2  H   UNL     1       4.034  33.803  63.292  1.00  0.00     0.280 HD
HETATM    3  C   UNL     1       4.556  33.421  61.337  1.00  0.00     0.281 C 
HETATM    4  C   UNL     1       5.617  32.675  60.606  1.00  0.00     0.018 A 
HETATM    5  C   UNL     1       6.601  31.898  61.199  1.00  0.00    -0.024 A 
HETATM    6  C   UNL     1       7.472  31.337  60.213  1.00  0.00     0.057 A 
HETATM    7  C   UNL     1       7.079  31.670  58.942  1.00  0.00     0.087 A 
HETATM    8  N   UNL     1       7.738  31.237  57.850  1.00  0.00    -0.357 N 
HETATM    9  C   UNL     1       8.629  30.093  58.025  1.00  0.00     0.243 C 
HETATM   10  N   UNL     1       9.239  29.922  59.361  1.00  0.00    -0.235 NA
HETATM   11  C   UNL     1       8.644  30.510  60.332  1.00  0.00     0.173 C 
HETATM   12  S   UNL     1       5.715  32.677  58.907  1.00  0.00    -0.074 SA
HETATM   13  C   UNL     1       6.680  31.742  62.688  1.00  0.00     0.068 C 
HETATM   14  C   UNL     1       5.394  32.235  63.378  1.00  0.00     0.240 C 
HETATM   15  H   UNL     1       7.283  31.294  56.944  1.00  0.00     0.162 HD
ENDROOT
BRANCH   9  16
HETATM   16  C   UNL     1       7.905  28.832  57.543  1.00  0.00    -0.012 A 
HETATM   17  C   UNL     1       6.519  28.824  57.289  1.00  0.00     0.050 A 
HETATM   18  C   UNL     1       5.884  27.680  56.801  1.00  0.00     0.102 A 
HETATM   19  C   UNL     1       6.652  26.550  56.510  1.00  0.00     0.112 A 
HETATM   20  C   UNL     1       8.018  26.516  56.785  1.00  0.00     0.041 A 
HETATM   21  C   UNL     1       8.639  27.655  57.299  1.00  0.00     0.014 A 
BRANCH  18  22
HETATM   22  O   UNL     1       4.543  27.611  56.533  1.00  0.00    -0.353 OA
HETATM   23  C   UNL     1       4.058  28.587  55.617  1.00  0.00     0.210 C 
ENDBRANCH  18  22
BRANCH  19  24
HETATM   24  O   UNL     1       5.995  25.419  56.009  1.00  0.00    -0.272 OA
BRANCH  24  25
HETATM   25  C   UNL     1       6.112  25.263  54.645  1.00  0.00     0.300 C 
HETATM   26  O   UNL     1       5.679  25.961  53.743  1.00  0.00    -0.259 OA
BRANCH  25  27
HETATM   27  C   UNL     1       6.907  24.050  54.428  1.00  0.00     0.061 A 
HETATM   28  C   UNL     1       7.536  23.823  53.201  1.00  0.00     0.050 A 
HETATM   29 CL   UNL     1       7.423  24.934  51.885  1.00  0.00    -0.083 Cl
HETATM   30  C   UNL     1       8.288  22.661  53.021  1.00  0.00     0.025 A 
HETATM   31  C   UNL     1       8.413  21.737  54.062  1.00  0.00     0.002 A 
HETATM   32  C   UNL     1       7.791  21.973  55.289  1.00  0.00     0.001 A 
HETATM   33  C   UNL     1       7.037  23.132  55.478  1.00  0.00     0.019 A 
ENDBRANCH  25  27
ENDBRANCH  24  25
ENDBRANCH  19  24
ENDBRANCH   9  16
BRANCH  11  34
HETATM   34  O   UNL     1       9.140  30.349  61.572  1.00  0.00    -0.344 OA
HETATM   35  H   UNL     1       9.899  30.955  61.647  1.00  0.00     0.219 HD
ENDBRANCH  11  34
BRANCH   1  36
HETATM   36  C   UNL     1       5.848  34.748  63.047  1.00  0.00     0.231 C 
HETATM   37  C   UNL     1       5.335  35.996  62.355  1.00  0.00     0.034 C 
ENDBRANCH   1  36
TORSDOF 7
ENDMDL
MODEL 2
REMARK VINA RESULT:      -9.7      3.819     10.583
REMARK  7 active torsions:
REMARK  status: ('A' for Active; 'I' for Inactive)
REMARK    1  A    between atoms: C_2  and  N_3 
REMARK    2  A    between atoms: C_11  and  C_12 
REMARK    3  A    between atoms: C_14  and  O_15 
REMARK    4  A    between atoms: C_17  and  O_18 
REMARK    5  A    between atoms: O_18  and  C_19 
REMARK    6  A    between atoms: C_19  and  C_20 
REMARK    7  A    between atoms: C_31  and  O_32 
ROOT
HETATM    1  N   UNL     1       7.030  25.272  56.428  1.00  0.00    -0.067 N 
HETATM    2  H   UNL     1       7.362  24.322  56.632  1.00  0.00     0.280 HD
HETATM    3  C   UNL     1       7.995  26.208  57.163  1.00  0.00     0.281 C 
HETATM    4  C   UNL     1       7.402  27.565  57.324  1.00  0.00     0.018 A 
HETATM    5  C   UNL     1       6.056  27.869  57.189  1.00  0.00    -0.024 A 
HETATM    6  C   UNL     1       5.826  29.267  57.388  1.00  0.00     0.057 A 
HETATM    7  C   UNL     1       6.983  29.929  57.709  1.00  0.00     0.087 A 
HETATM    8  N   UNL     1       7.007  31.252  57.962  1.00  0.00    -0.357 N 
HETATM    9  C   UNL     1       5.731  31.889  58.278  1.00  0.00     0.243 C 
HETATM   10  N   UNL     1       4.519  31.280  57.688  1.00  0.00    -0.235 NA
HETATM   11  C   UNL     1       4.627  30.058  57.312  1.00  0.00     0.173 C 
HETATM   12  S   UNL     1       8.345  28.920  57.734  1.00  0.00    -0.074 SA
HETATM   13  C   UNL     1       5.046  26.812  56.852  1.00  0.00     0.068 C 
HETATM   14  C   UNL     1       5.628  25.397  57.027  1.00  0.00     0.240 C 
HETATM   15  H   UNL     1       7.814  31.651  58.431  1.00  0.00     0.162 HD
ENDROOT
BRANCH   9  16
HETATM   16  C   UNL     1       5.628  32.050  59.797  1.00  0.00    -0.012 A 
HETATM   17  C   UNL     1       4.393  32.272  60.438  1.00  0.00     0.050 A 
HETATM   18  C   UNL     1       4.311  32.366  61.829  1.00  0.00     0.102 A 
HETATM   19  C   UNL     1       5.468  32.180  62.591  1.00  0.00     0.112 A 
HETATM   20  C   UNL     1       6.709  31.997  61.984  1.00  0.00     0.041 A 
HETATM   21  C   UNL     1       6.785  31.932  60.592  1.00  0.00     0.014 A 
BRANCH  18  22
HETATM   22  O   UNL     1       3.142  32.578  62.509  1.00  0.00    -0.353 OA
HETATM   23  C   UNL     1       2.677  33.924  62.509  1.00  0.00     0.210 C 
ENDBRANCH  18  22
BRANCH  19  24
HETATM   24  O   UNL     1       5.358  32.267  63.985  1.00  0.00    -0.272 OA
BRANCH  24  25
HETATM   25  C   UNL     1       6.265  33.129  64.563  1.00  0.00     0.300 C 
HETATM   26  O   UNL     1       7.483  33.083  64.572  1.00  0.00    -0.259 OA
BRANCH  25  27
HETATM   27  C   UNL     1       5.483  34.194  65.200  1.00  0.00     0.061 A 
HETATM   28  C   UNL     1       5.268  35.407  64.540  1.00  0.00     0.050 A 
HETATM   29 CL   UNL     1       5.895  35.726  62.964  1.00  0.00    -0.083 Cl
HETATM   30  C   UNL     1       4.519  36.405  65.167  1.00  0.00     0.025 A 
HETATM   31  C   UNL     1       3.986  36.187  66.440  1.00  0.00     0.002 A 
HETATM   32  C   UNL     1       4.196  34.969  67.090  1.00  0.00     0.001 A 
HETATM   33  C   UNL     1       4.943  33.967  66.472  1.00  0.00     0.019 A 
ENDBRANCH  25  27
ENDBRANCH  24  25
ENDBRANCH  19  24
ENDBRANCH   9  16
BRANCH  11  34
HETATM   34  O   UNL     1       3.538  29.451  56.808  1.00  0.00    -0.344 OA
HETATM   35  H   UNL     1       3.393  29.834  55.924  1.00  0.00     0.219 HD
ENDBRANCH  11  34
BRANCH   1  36
HETATM   36  C   UNL     1       7.116  25.449  54.926  1.00  0.00     0.231 C 
HETATM   37  C   UNL     1       6.844  24.142  54.206  1.00  0.00     0.034 C 
ENDBRANCH   1  36
TORSDOF 7
ENDMDL
MODEL 3
REMARK VINA RESULT:      -9.6      1.680      2.195
REMARK  7 active torsions:
REMARK  status: ('A' for Active; 'I' for Inactive)
REMARK    1  A    between atoms: C_2  and  N_3 
REMARK    2  A    between atoms: C_11  and  C_12 
REMARK    3  A    between atoms: C_14  and  O_15 
REMARK    4  A    between atoms: C_17  and  O_18 
REMARK    5  A    between atoms: O_18  and  C_19 
REMARK    6  A    between atoms: C_19  and  C_20 
REMARK    7  A    between atoms: C_31  and  O_32 
ROOT
HETATM    1  N   UNL     1       5.513  33.165  62.548  1.00  0.00    -0.067 N 
HETATM    2  H   UNL     1       4.912  33.210  63.380  1.00  0.00     0.280 HD
HETATM    3  C   UNL     1       4.628  32.596  61.434  1.00  0.00     0.281 C 
HETATM    4  C   UNL     1       5.455  32.071  60.313  1.00  0.00     0.018 A 
HETATM    5  C   UNL     1       6.808  31.777  60.388  1.00  0.00    -0.024 A 
HETATM    6  C   UNL     1       7.300  31.311  59.128  1.00  0.00     0.057 A 
HETATM    7  C   UNL     1       6.300  31.229  58.193  1.00  0.00     0.087 A 
HETATM    8  N   UNL     1       6.524  30.795  56.938  1.00  0.00    -0.357 N 
HETATM    9  C   UNL     1       7.754  30.042  56.708  1.00  0.00     0.243 C 
HETATM   10  N   UNL     1       8.901  30.355  57.587  1.00  0.00    -0.235 NA
HETATM   11  C   UNL     1       8.619  30.927  58.700  1.00  0.00     0.173 C 
HETATM   12  S   UNL     1       4.794  31.740  58.781  1.00  0.00    -0.074 SA
HETATM   13  C   UNL     1       7.581  31.974  61.658  1.00  0.00     0.068 C 
HETATM   14  C   UNL     1       6.645  32.187  62.863  1.00  0.00     0.240 C 
HETATM   15  H   UNL     1       5.734  30.516  56.364  1.00  0.00     0.162 HD
ENDROOT
BRANCH   9  16
HETATM   16  C   UNL     1       7.416  28.548  56.690  1.00  0.00    -0.012 A 
HETATM   17  C   UNL     1       6.509  28.004  55.759  1.00  0.00     0.050 A 
HETATM   18  C   UNL     1       6.251  26.632  55.723  1.00  0.00     0.102 A 
HETATM   19  C   UNL     1       6.951  25.788  56.590  1.00  0.00     0.112 A 
HETATM   20  C   UNL     1       7.825  26.301  57.546  1.00  0.00     0.041 A 
HETATM   21  C   UNL     1       8.055  27.677  57.593  1.00  0.00     0.014 A 
BRANCH  18  22
HETATM   22  O   UNL     1       5.384  26.044  54.841  1.00  0.00    -0.353 OA
HETATM   23  C   UNL     1       5.390  26.595  53.529  1.00  0.00     0.210 C 
ENDBRANCH  18  22
BRANCH  19  24
HETATM   24  O   UNL     1       6.684  24.414  56.527  1.00  0.00    -0.272 OA
BRANCH  24  25
HETATM   25  C   UNL     1       7.814  23.625  56.550  1.00  0.00     0.300 C 
HETATM   26  O   UNL     1       8.660  23.504  57.421  1.00  0.00    -0.259 OA
BRANCH  25  27
HETATM   27  C   UNL     1       7.837  22.888  55.282  1.00  0.00     0.061 A 
HETATM   28  C   UNL     1       7.898  21.493  55.274  1.00  0.00     0.050 A 
HETATM   29 CL   UNL     1       7.948  20.560  56.725  1.00  0.00    -0.083 Cl
HETATM   30  C   UNL     1       7.917  20.815  54.053  1.00  0.00     0.025 A 
HETATM   31  C   UNL     1       7.871  21.529  52.853  1.00  0.00     0.002 A 
HETATM   32  C   UNL     1       7.800  22.923  52.867  1.00  0.00     0.001 A 
HETATM   33  C   UNL     1       7.781  23.609  54.082  1.00  0.00     0.019 A 
ENDBRANCH  25  27
ENDBRANCH  24  25
ENDBRANCH  19  24
ENDBRANCH   9  16
BRANCH  11  34
HETATM   34  O   UNL     1       9.626  31.193  59.550  1.00  0.00    -0.344 OA
HETATM   35  H   UNL     1       9.305  31.891  60.149  1.00  0.00     0.219 HD
ENDBRANCH  11  34
BRANCH   1  36
HETATM   36  C   UNL     1       5.944  34.586  62.248  1.00  0.00     0.231 C 
HETATM   37  C   UNL     1       4.759  35.441  61.838  1.00  0.00     0.034 C 
ENDBRANCH   1  36
TORSDOF 7
ENDMDL
MODEL 4
REMARK VINA RESULT:      -9.4      5.511      9.170
REMARK  7 active torsions:
REMARK  status: ('A' for Active; 'I' for Inactive)
REMARK    1  A    between atoms: C_2  and  N_3 
REMARK    2  A    between atoms: C_11  and  C_12 
REMARK    3  A    between atoms: C_14  and  O_15 
REMARK    4  A    between atoms: C_17  and  O_18 
REMARK    5  A    between atoms: O_18  and  C_19 
REMARK    6  A    between atoms: C_19  and  C_20 
REMARK    7  A    between atoms: C_31  and  O_32 
ROOT
HETATM    1  N   UNL     1       3.169  30.025  46.479  1.00  0.00    -0.067 N 
HETATM    2  H   UNL     1       3.388  29.853  45.491  1.00  0.00     0.280 HD
HETATM    3  C   UNL     1       4.518  30.279  47.159  1.00  0.00     0.281 C 
HETATM    4  C   UNL     1       4.410  30.111  48.635  1.00  0.00     0.018 A 
HETATM    5  C   UNL     1       3.377  29.460  49.292  1.00  0.00    -0.024 A 
HETATM    6  C   UNL     1       3.570  29.494  50.709  1.00  0.00     0.057 A 
HETATM    7  C   UNL     1       4.746  30.115  51.044  1.00  0.00     0.087 A 
HETATM    8  N   UNL     1       5.149  30.247  52.322  1.00  0.00    -0.357 N 
HETATM    9  C   UNL     1       4.517  29.375  53.309  1.00  0.00     0.243 C 
HETATM   10  N   UNL     1       3.134  28.937  53.021  1.00  0.00    -0.235 NA
HETATM   11  C   UNL     1       2.765  29.002  51.795  1.00  0.00     0.173 C 
HETATM   12  S   UNL     1       5.602  30.695  49.700  1.00  0.00    -0.074 SA
HETATM   13  C   UNL     1       2.234  28.849  48.536  1.00  0.00     0.068 C 
HETATM   14  C   UNL     1       2.542  28.744  47.031  1.00  0.00     0.240 C 
HETATM   15  H   UNL     1       6.119  30.481  52.512  1.00  0.00     0.162 HD
ENDROOT
BRANCH   9  16
HETATM   16  C   UNL     1       5.458  28.203  53.599  1.00  0.00    -0.012 A 
HETATM   17  C   UNL     1       6.381  28.238  54.664  1.00  0.00     0.050 A 
HETATM   18  C   UNL     1       7.196  27.140  54.946  1.00  0.00     0.102 A 
HETATM   19  C   UNL     1       7.047  25.973  54.191  1.00  0.00     0.112 A 
HETATM   20  C   UNL     1       6.170  25.921  53.109  1.00  0.00     0.041 A 
HETATM   21  C   UNL     1       5.379  27.034  52.818  1.00  0.00     0.014 A 
BRANCH  18  22
HETATM   22  O   UNL     1       8.109  27.113  55.966  1.00  0.00    -0.353 OA
HETATM   23  C   UNL     1       7.551  27.083  57.276  1.00  0.00     0.210 C 
ENDBRANCH  18  22
BRANCH  19  24
HETATM   24  O   UNL     1       7.867  24.881  54.501  1.00  0.00    -0.272 OA
BRANCH  24  25
HETATM   25  C   UNL     1       7.226  23.884  55.206  1.00  0.00     0.300 C 
HETATM   26  O   UNL     1       6.394  23.973  56.093  1.00  0.00    -0.259 OA
BRANCH  25  27
HETATM   27  C   UNL     1       7.725  22.610  54.678  1.00  0.00     0.061 A 
HETATM   28  C   UNL     1       8.251  21.643  55.539  1.00  0.00     0.050 A 
HETATM   29 CL   UNL     1       8.347  21.878  57.245  1.00  0.00    -0.083 Cl
HETATM   30  C   UNL     1       8.718  20.438  55.011  1.00  0.00     0.025 A 
HETATM   31  C   UNL     1       8.653  20.202  53.635  1.00  0.00     0.002 A 
HETATM   32  C   UNL     1       8.117  21.168  52.781  1.00  0.00     0.001 A 
HETATM   33  C   UNL     1       7.649  22.375  53.299  1.00  0.00     0.019 A 
ENDBRANCH  25  27
ENDBRANCH  24  25
ENDBRANCH  19  24
ENDBRANCH   9  16
BRANCH  11  34
HETATM   34  O   UNL     1       1.530  28.575  51.481  1.00  0.00    -0.344 OA
HETATM   35  H   UNL     1       0.994  28.659  52.290  1.00  0.00     0.219 HD
ENDBRANCH  11  34
BRANCH   1  36
HETATM   36  C   UNL     1       2.283  31.254  46.519  1.00  0.00     0.231 C 
HETATM   37  C   UNL     1       1.591  31.472  45.187  1.00  0.00     0.034 C 
ENDBRANCH   1  36
TORSDOF 7
ENDMDL
MODEL 5
REMARK VINA RESULT:      -9.4      1.310      1.596
REMARK  7 active torsions:
REMARK  status: ('A' for Active; 'I' for Inactive)
REMARK    1  A    between atoms: C_2  and  N_3 
REMARK    2  A    between atoms: C_11  and  C_12 
REMARK    3  A    between atoms: C_14  and  O_15 
REMARK    4  A    between atoms: C_17  and  O_18 
REMARK    5  A    between atoms: O_18  and  C_19 
REMARK    6  A    between atoms: C_19  and  C_20 
REMARK    7  A    between atoms: C_31  and  O_32 
ROOT
HETATM    1  N   UNL     1       4.547  33.737  63.273  1.00  0.00    -0.067 N 
HETATM    2  H   UNL     1       3.622  33.981  63.646  1.00  0.00     0.280 HD
HETATM    3  C   UNL     1       4.403  33.798  61.749  1.00  0.00     0.281 C 
HETATM    4  C   UNL     1       5.509  33.058  61.079  1.00  0.00     0.018 A 
HETATM    5  C   UNL     1       6.336  32.130  61.694  1.00  0.00    -0.024 A 
HETATM    6  C   UNL     1       7.305  31.621  60.773  1.00  0.00     0.057 A 
HETATM    7  C   UNL     1       7.130  32.141  59.516  1.00  0.00     0.087 A 
HETATM    8  N   UNL     1       7.914  31.790  58.479  1.00  0.00    -0.357 N 
HETATM    9  C   UNL     1       8.688  30.559  58.620  1.00  0.00     0.243 C 
HETATM   10  N   UNL     1       9.078  30.173  59.994  1.00  0.00    -0.235 NA
HETATM   11  C   UNL     1       8.386  30.687  60.942  1.00  0.00     0.173 C 
HETATM   12  S   UNL     1       5.859  33.260  59.427  1.00  0.00    -0.074 SA
HETATM   13  C   UNL     1       6.181  31.786  63.145  1.00  0.00     0.068 C 
HETATM   14  C   UNL     1       4.843  32.301  63.709  1.00  0.00     0.240 C 
HETATM   15  H   UNL     1       7.605  31.998  57.534  1.00  0.00     0.162 HD
ENDROOT
BRANCH   9  16
HETATM   16  C   UNL     1       7.960  29.436  57.877  1.00  0.00    -0.012 A 
HETATM   17  C   UNL     1       6.567  29.468  57.664  1.00  0.00     0.050 A 
HETATM   18  C   UNL     1       5.927  28.460  56.940  1.00  0.00     0.102 A 
HETATM   19  C   UNL     1       6.695  27.439  56.373  1.00  0.00     0.112 A 
HETATM   20  C   UNL     1       8.068  27.361  56.599  1.00  0.00     0.041 A 
HETATM   21  C   UNL     1       8.696  28.357  57.347  1.00  0.00     0.014 A 
BRANCH  18  22
HETATM   22  O   UNL     1       4.579  28.438  56.697  1.00  0.00    -0.353 OA
HETATM   23  C   UNL     1       4.107  29.448  55.812  1.00  0.00     0.210 C 
ENDBRANCH  18  22
BRANCH  19  24
HETATM   24  O   UNL     1       6.031  26.447  55.641  1.00  0.00    -0.272 OA
BRANCH  24  25
HETATM   25  C   UNL     1       6.104  25.192  56.207  1.00  0.00     0.300 C 
HETATM   26  O   UNL     1       5.632  24.785  57.256  1.00  0.00    -0.259 OA
BRANCH  25  27
HETATM   27  C   UNL     1       6.878  24.359  55.282  1.00  0.00     0.061 A 
HETATM   28  C   UNL     1       8.033  23.703  55.716  1.00  0.00     0.050 A 
HETATM   29 CL   UNL     1       8.614  23.826  57.336  1.00  0.00    -0.083 Cl
HETATM   30  C   UNL     1       8.752  22.914  54.815  1.00  0.00     0.025 A 
HETATM   31  C   UNL     1       8.315  22.780  53.495  1.00  0.00     0.002 A 
HETATM   32  C   UNL     1       7.155  23.430  53.070  1.00  0.00     0.001 A 
HETATM   33  C   UNL     1       6.430  24.221  53.962  1.00  0.00     0.019 A 
ENDBRANCH  25  27
ENDBRANCH  24  25
ENDBRANCH  19  24
ENDBRANCH   9  16
BRANCH  11  34
HETATM   34  O   UNL     1       8.679  30.331  62.206  1.00  0.00    -0.344 OA
HETATM   35  H   UNL     1       7.888  30.531  62.739  1.00  0.00     0.219 HD
ENDBRANCH  11  34
BRANCH   1  36
HETATM   36  C   UNL     1       5.513  34.786  63.785  1.00  0.00     0.231 C 
HETATM   37  C   UNL     1       5.280  36.121  63.104  1.00  0.00     0.034 C 
ENDBRANCH   1  36
TORSDOF 7
ENDMDL
MODEL 6
REMARK VINA RESULT:      -8.8      2.907      4.686
REMARK  7 active torsions:
REMARK  status: ('A' for Active; 'I' for Inactive)
REMARK    1  A    between atoms: C_2  and  N_3 
REMARK    2  A    between atoms: C_11  and  C_12 
REMARK    3  A    between atoms: C_14  and  O_15 
REMARK    4  A    between atoms: C_17  and  O_18 
REMARK    5  A    between atoms: O_18  and  C_19 
REMARK    6  A    between atoms: C_19  and  C_20 
REMARK    7  A    between atoms: C_31  and  O_32 
ROOT
HETATM    1  N   UNL     1       5.870  36.249  64.226  1.00  0.00    -0.067 N 
HETATM    2  H   UNL     1       6.648  36.600  64.797  1.00  0.00     0.280 HD
HETATM    3  C   UNL     1       6.020  34.724  64.225  1.00  0.00     0.281 C 
HETATM    4  C   UNL     1       5.249  34.115  63.106  1.00  0.00     0.018 A 
HETATM    5  C   UNL     1       4.773  34.799  61.998  1.00  0.00    -0.024 A 
HETATM    6  C   UNL     1       4.057  33.921  61.124  1.00  0.00     0.057 A 
HETATM    7  C   UNL     1       4.073  32.628  61.582  1.00  0.00     0.087 A 
HETATM    8  N   UNL     1       3.480  31.622  60.912  1.00  0.00    -0.357 N 
HETATM    9  C   UNL     1       3.169  31.857  59.504  1.00  0.00     0.243 C 
HETATM   10  N   UNL     1       2.902  33.256  59.106  1.00  0.00    -0.235 NA
HETATM   11  C   UNL     1       3.355  34.162  59.891  1.00  0.00     0.173 C 
HETATM   12  S   UNL     1       4.889  32.453  63.058  1.00  0.00    -0.074 SA
HETATM   13  C   UNL     1       5.002  36.271  61.831  1.00  0.00     0.068 C 
HETATM   14  C   UNL     1       6.071  36.792  62.810  1.00  0.00     0.240 C 
HETATM   15  H   UNL     1       3.722  30.663  61.145  1.00  0.00     0.162 HD
ENDROOT
BRANCH   9  16
HETATM   16  C   UNL     1       4.253  31.197  58.647  1.00  0.00    -0.012 A 
HETATM   17  C   UNL     1       5.624  31.441  58.868  1.00  0.00     0.050 A 
HETATM   18  C   UNL     1       6.601  30.792  58.110  1.00  0.00     0.102 A 
HETATM   19  C   UNL     1       6.205  29.847  57.160  1.00  0.00     0.112 A 
HETATM   20  C   UNL     1       4.858  29.612  56.894  1.00  0.00     0.041 A 
HETATM   21  C   UNL     1       3.887  30.286  57.637  1.00  0.00     0.014 A 
BRANCH  18  22
HETATM   22  O   UNL     1       7.946  30.985  58.279  1.00  0.00    -0.353 OA
HETATM   23  C   UNL     1       8.468  30.540  59.526  1.00  0.00     0.210 C 
ENDBRANCH  18  22
BRANCH  19  24
HETATM   24  O   UNL     1       7.204  29.200  56.421  1.00  0.00    -0.272 OA
BRANCH  24  25
HETATM   25  C   UNL     1       7.406  27.886  56.787  1.00  0.00     0.300 C 
HETATM   26  O   UNL     1       7.799  27.426  57.847  1.00  0.00    -0.259 OA
BRANCH  25  27
HETATM   27  C   UNL     1       7.036  27.067  55.628  1.00  0.00     0.061 A 
HETATM   28  C   UNL     1       6.024  26.109  55.732  1.00  0.00     0.050 A 
HETATM   29 CL   UNL     1       5.157  25.833  57.198  1.00  0.00    -0.083 Cl
HETATM   30  C   UNL     1       5.690  25.343  54.613  1.00  0.00     0.025 A 
HETATM   31  C   UNL     1       6.360  25.537  53.403  1.00  0.00     0.002 A 
HETATM   32  C   UNL     1       7.364  26.502  53.303  1.00  0.00     0.001 A 
HETATM   33  C   UNL     1       7.705  27.272  54.415  1.00  0.00     0.019 A 
ENDBRANCH  25  27
ENDBRANCH  24  25
ENDBRANCH  19  24
ENDBRANCH   9  16
BRANCH  11  34
HETATM   34  O   UNL     1       3.172  35.449  59.548  1.00  0.00    -0.344 OA
HETATM   35  H   UNL     1       2.272  35.512  59.180  1.00  0.00     0.219 HD
ENDBRANCH  11  34
BRANCH   1  36
HETATM   36  C   UNL     1       4.593  36.684  64.916  1.00  0.00     0.231 C 
HETATM   37  C   UNL     1       4.433  35.990  66.256  1.00  0.00     0.034 C 
ENDBRANCH   1  36
TORSDOF 7
ENDMDL
MODEL 7
REMARK VINA RESULT:      -8.8      2.335      3.285
REMARK  7 active torsions:
REMARK  status: ('A' for Active; 'I' for Inactive)
REMARK    1  A    between atoms: C_2  and  N_3 
REMARK    2  A    between atoms: C_11  and  C_12 
REMARK    3  A    between atoms: C_14  and  O_15 
REMARK    4  A    between atoms: C_17  and  O_18 
REMARK    5  A    between atoms: O_18  and  C_19 
REMARK    6  A    between atoms: C_19  and  C_20 
REMARK    7  A    between atoms: C_31  and  O_32 
ROOT
HETATM    1  N   UNL     1       4.537  33.626  62.525  1.00  0.00    -0.067 N 
HETATM    2  H   UNL     1       4.830  33.598  63.508  1.00  0.00     0.280 HD
HETATM    3  C   UNL     1       3.996  32.226  62.219  1.00  0.00     0.281 C 
HETATM    4  C   UNL     1       3.945  31.984  60.750  1.00  0.00     0.018 A 
HETATM    5  C   UNL     1       4.623  32.726  59.794  1.00  0.00    -0.024 A 
HETATM    6  C   UNL     1       4.341  32.242  58.478  1.00  0.00     0.057 A 
HETATM    7  C   UNL     1       3.520  31.144  58.508  1.00  0.00     0.087 A 
HETATM    8  N   UNL     1       3.135  30.504  57.387  1.00  0.00    -0.357 N 
HETATM    9  C   UNL     1       3.921  30.752  56.180  1.00  0.00     0.243 C 
HETATM   10  N   UNL     1       4.585  32.069  56.078  1.00  0.00    -0.235 NA
HETATM   11  C   UNL     1       4.764  32.698  57.181  1.00  0.00     0.173 C 
HETATM   12  S   UNL     1       3.044  30.708  60.076  1.00  0.00    -0.074 SA
HETATM   13  C   UNL     1       5.495  33.884  60.178  1.00  0.00     0.068 C 
HETATM   14  C   UNL     1       5.791  33.893  61.690  1.00  0.00     0.240 C 
HETATM   15  H   UNL     1       2.743  29.570  57.461  1.00  0.00     0.162 HD
ENDROOT
BRANCH   9  16
HETATM   16  C   UNL     1       4.893  29.585  55.982  1.00  0.00    -0.012 A 
HETATM   17  C   UNL     1       5.978  29.368  56.854  1.00  0.00     0.050 A 
HETATM   18  C   UNL     1       6.825  28.269  56.688  1.00  0.00     0.102 A 
HETATM   19  C   UNL     1       6.549  27.348  55.674  1.00  0.00     0.112 A 
HETATM   20  C   UNL     1       5.506  27.556  54.774  1.00  0.00     0.041 A 
HETATM   21  C   UNL     1       4.682  28.672  54.931  1.00  0.00     0.014 A 
BRANCH  18  22
HETATM   22  O   UNL     1       7.893  28.003  57.503  1.00  0.00    -0.353 OA
HETATM   23  C   UNL     1       9.017  28.859  57.326  1.00  0.00     0.210 C 
ENDBRANCH  18  22
BRANCH  19  24
HETATM   24  O   UNL     1       7.405  26.248  55.536  1.00  0.00    -0.272 OA
BRANCH  24  25
HETATM   25  C   UNL     1       6.841  25.049  55.918  1.00  0.00     0.300 C 
HETATM   26  O   UNL     1       5.959  24.831  56.732  1.00  0.00    -0.259 OA
BRANCH  25  27
HETATM   27  C   UNL     1       7.500  24.005  55.127  1.00  0.00     0.061 A 
HETATM   28  C   UNL     1       7.042  23.690  53.845  1.00  0.00     0.050 A 
HETATM   29 CL   UNL     1       5.698  24.494  53.120  1.00  0.00    -0.083 Cl
HETATM   30  C   UNL     1       7.688  22.692  53.113  1.00  0.00     0.025 A 
HETATM   31  C   UNL     1       8.785  22.020  53.658  1.00  0.00     0.002 A 
HETATM   32  C   UNL     1       9.244  22.345  54.935  1.00  0.00     0.001 A 
HETATM   33  C   UNL     1       8.605  23.341  55.675  1.00  0.00     0.019 A 
ENDBRANCH  25  27
ENDBRANCH  24  25
ENDBRANCH  19  24
ENDBRANCH   9  16
BRANCH  11  34
HETATM   34  O   UNL     1       5.401  33.882  57.140  1.00  0.00    -0.344 OA
HETATM   35  H   UNL     1       6.198  33.748  56.596  1.00  0.00     0.219 HD
ENDBRANCH  11  34
BRANCH   1  36
HETATM   36  C   UNL     1       3.451  34.678  62.424  1.00  0.00     0.231 C 
HETATM   37  C   UNL     1       2.156  34.187  63.043  1.00  0.00     0.034 C 
ENDBRANCH   1  36
TORSDOF 7
ENDMDL
MODEL 8
REMARK VINA RESULT:      -8.8      4.751      9.839
REMARK  7 active torsions:
REMARK  status: ('A' for Active; 'I' for Inactive)
REMARK    1  A    between atoms: C_2  and  N_3 
REMARK    2  A    between atoms: C_11  and  C_12 
REMARK    3  A    between atoms: C_14  and  O_15 
REMARK    4  A    between atoms: C_17  and  O_18 
REMARK    5  A    between atoms: O_18  and  C_19 
REMARK    6  A    between atoms: C_19  and  C_20 
REMARK    7  A    between atoms: C_31  and  O_32 
ROOT
HETATM    1  N   UNL     1       3.681  29.022  48.786  1.00  0.00    -0.067 N 
HETATM    2  H   UNL     1       3.440  29.791  48.150  1.00  0.00     0.280 HD
HETATM    3  C   UNL     1       3.120  29.429  50.152  1.00  0.00     0.281 C 
HETATM    4  C   UNL     1       3.758  28.643  51.245  1.00  0.00     0.018 A 
HETATM    5  C   UNL     1       4.939  27.927  51.129  1.00  0.00    -0.024 A 
HETATM    6  C   UNL     1       5.262  27.271  52.359  1.00  0.00     0.057 A 
HETATM    7  C   UNL     1       4.351  27.563  53.341  1.00  0.00     0.087 A 
HETATM    8  N   UNL     1       4.462  27.074  54.591  1.00  0.00    -0.357 N 
HETATM    9  C   UNL     1       5.770  26.559  54.987  1.00  0.00     0.243 C 
HETATM   10  N   UNL     1       6.623  26.011  53.910  1.00  0.00    -0.235 NA
HETATM   11  C   UNL     1       6.344  26.394  52.719  1.00  0.00     0.173 C 
HETATM   12  S   UNL     1       3.094  28.569  52.809  1.00  0.00    -0.074 SA
HETATM   13  C   UNL     1       5.700  27.880  49.838  1.00  0.00     0.068 C 
HETATM   14  C   UNL     1       5.208  28.955  48.851  1.00  0.00     0.240 C 
HETATM   15  H   UNL     1       3.924  27.501  55.339  1.00  0.00     0.162 HD
ENDROOT
BRANCH   9  16
HETATM   16  C   UNL     1       6.485  27.628  55.818  1.00  0.00    -0.012 A 
HETATM   17  C   UNL     1       7.696  28.211  55.394  1.00  0.00     0.050 A 
HETATM   18  C   UNL     1       8.308  29.221  56.139  1.00  0.00     0.102 A 
HETATM   19  C   UNL     1       7.673  29.693  57.291  1.00  0.00     0.112 A 
HETATM   20  C   UNL     1       6.495  29.111  57.755  1.00  0.00     0.041 A 
HETATM   21  C   UNL     1       5.905  28.082  57.019  1.00  0.00     0.014 A 
BRANCH  18  22
HETATM   22  O   UNL     1       9.481  29.827  55.778  1.00  0.00    -0.353 OA
HETATM   23  C   UNL     1      10.629  29.407  56.509  1.00  0.00     0.210 C 
ENDBRANCH  18  22
BRANCH  19  24
HETATM   24  O   UNL     1       8.300  30.716  58.015  1.00  0.00    -0.272 OA
BRANCH  24  25
HETATM   25  C   UNL     1       7.425  31.632  58.558  1.00  0.00     0.300 C 
HETATM   26  O   UNL     1       6.495  32.222  58.035  1.00  0.00    -0.259 OA
BRANCH  25  27
HETATM   27  C   UNL     1       7.804  31.788  59.967  1.00  0.00     0.061 A 
HETATM   28  C   UNL     1       6.840  32.098  60.929  1.00  0.00     0.050 A 
HETATM   29 CL   UNL     1       5.173  32.312  60.535  1.00  0.00    -0.083 Cl
HETATM   30  C   UNL     1       7.226  32.240  62.264  1.00  0.00     0.025 A 
HETATM   31  C   UNL     1       8.563  32.069  62.630  1.00  0.00     0.002 A 
HETATM   32  C   UNL     1       9.520  31.750  61.665  1.00  0.00     0.001 A 
HETATM   33  C   UNL     1       9.144  31.606  60.329  1.00  0.00     0.019 A 
ENDBRANCH  25  27
ENDBRANCH  24  25
ENDBRANCH  19  24
ENDBRANCH   9  16
BRANCH  11  34
HETATM   34  O   UNL     1       7.120  25.954  51.713  1.00  0.00    -0.344 OA
HETATM   35  H   UNL     1       6.608  25.266  51.251  1.00  0.00     0.219 HD
ENDBRANCH  11  34
BRANCH   1  36
HETATM   36  C   UNL     1       2.996  27.783  48.247  1.00  0.00     0.231 C 
HETATM   37  C   UNL     1       1.501  27.830  48.502  1.00  0.00     0.034 C 
ENDBRANCH   1  36
TORSDOF 7
ENDMDL
MODEL 9
REMARK VINA RESULT:      -8.7      5.936      8.739
REMARK  7 active torsions:
REMARK  status: ('A' for Active; 'I' for Inactive)
REMARK    1  A    between atoms: C_2  and  N_3 
REMARK    2  A    between atoms: C_11  and  C_12 
REMARK    3  A    between atoms: C_14  and  O_15 
REMARK    4  A    between atoms: C_17  and  O_18 
REMARK    5  A    between atoms: O_18  and  C_19 
REMARK    6  A    between atoms: C_19  and  C_20 
REMARK    7  A    between atoms: C_31  and  O_32 
ROOT
HETATM    1  N   UNL     1       6.105  34.699  49.294  1.00  0.00    -0.067 N 
HETATM    2  H   UNL     1       6.720  35.501  49.476  1.00  0.00     0.280 HD
HETATM    3  C   UNL     1       5.778  34.114  50.672  1.00  0.00     0.281 C 
HETATM    4  C   UNL     1       5.270  32.719  50.551  1.00  0.00     0.018 A 
HETATM    5  C   UNL     1       5.416  31.910  49.434  1.00  0.00    -0.024 A 
HETATM    6  C   UNL     1       4.797  30.637  49.642  1.00  0.00     0.057 A 
HETATM    7  C   UNL     1       4.268  30.531  50.903  1.00  0.00     0.087 A 
HETATM    8  N   UNL     1       3.653  29.413  51.332  1.00  0.00    -0.357 N 
HETATM    9  C   UNL     1       3.908  28.187  50.580  1.00  0.00     0.243 C 
HETATM   10  N   UNL     1       4.224  28.341  49.143  1.00  0.00    -0.235 NA
HETATM   11  C   UNL     1       4.646  29.496  48.779  1.00  0.00     0.173 C 
HETATM   12  S   UNL     1       4.460  31.939  51.828  1.00  0.00    -0.074 SA
HETATM   13  C   UNL     1       6.122  32.397  48.204  1.00  0.00     0.068 C 
HETATM   14  C   UNL     1       6.915  33.688  48.480  1.00  0.00     0.240 C 
HETATM   15  H   UNL     1       3.502  29.283  52.328  1.00  0.00     0.162 HD
ENDROOT
BRANCH   9  16
HETATM   16  C   UNL     1       4.960  27.364  51.329  1.00  0.00    -0.012 A 
HETATM   17  C   UNL     1       5.773  27.933  52.330  1.00  0.00     0.050 A 
HETATM   18  C   UNL     1       6.691  27.155  53.039  1.00  0.00     0.102 A 
HETATM   19  C   UNL     1       6.758  25.783  52.783  1.00  0.00     0.112 A 
HETATM   20  C   UNL     1       5.994  25.199  51.774  1.00  0.00     0.041 A 
HETATM   21  C   UNL     1       5.098  25.989  51.052  1.00  0.00     0.014 A 
BRANCH  18  22
HETATM   22  O   UNL     1       7.505  27.649  54.022  1.00  0.00    -0.353 OA
HETATM   23  C   UNL     1       6.839  28.044  55.217  1.00  0.00     0.210 C 
ENDBRANCH  18  22
BRANCH  19  24
HETATM   24  O   UNL     1       7.678  25.022  53.516  1.00  0.00    -0.272 OA
BRANCH  24  25
HETATM   25  C   UNL     1       7.101  24.229  54.484  1.00  0.00     0.300 C 
HETATM   26  O   UNL     1       6.264  24.514  55.325  1.00  0.00    -0.259 OA
BRANCH  25  27
HETATM   27  C   UNL     1       7.678  22.890  54.328  1.00  0.00     0.061 A 
HETATM   28  C   UNL     1       8.271  22.242  55.415  1.00  0.00     0.050 A 
HETATM   29 CL   UNL     1       8.360  22.959  56.983  1.00  0.00    -0.083 Cl
HETATM   30  C   UNL     1       8.813  20.967  55.241  1.00  0.00     0.025 A 
HETATM   31  C   UNL     1       8.756  20.346  53.991  1.00  0.00     0.002 A 
HETATM   32  C   UNL     1       8.154  20.994  52.910  1.00  0.00     0.001 A 
HETATM   33  C   UNL     1       7.611  22.268  53.075  1.00  0.00     0.019 A 
ENDBRANCH  25  27
ENDBRANCH  24  25
ENDBRANCH  19  24
ENDBRANCH   9  16
BRANCH  11  34
HETATM   34  O   UNL     1       4.985  29.670  47.490  1.00  0.00    -0.344 OA
HETATM   35  H   UNL     1       4.226  29.365  46.961  1.00  0.00     0.219 HD
ENDBRANCH  11  34
BRANCH   1  36
HETATM   36  C   UNL     1       4.868  35.245  48.611  1.00  0.00     0.231 C 
HETATM   37  C   UNL     1       5.226  35.953  47.318  1.00  0.00     0.034 C 
ENDBRANCH   1  36
TORSDOF 7
ENDMDL
MODEL 10
REMARK VINA RESULT:      -8.6      5.519      7.403
REMARK  7 active torsions:
REMARK  status: ('A' for Active; 'I' for Inactive)
REMARK    1  A    between atoms: C_2  and  N_3 
REMARK    2  A    between atoms: C_11  and  C_12 
REMARK    3  A    between atoms: C_14  and  O_15 
REMARK    4  A    between atoms: C_17  and  O_18 
REMARK    5  A    between atoms: O_18  and  C_19 
REMARK    6  A    between atoms: C_19  and  C_20 
REMARK    7  A    between atoms: C_31  and  O_32 
ROOT
HETATM    1  N   UNL     1       4.874  35.200  52.682  1.00  0.00    -0.067 N 
HETATM    2  H   UNL     1       5.186  35.933  53.331  1.00  0.00     0.280 HD
HETATM    3  C   UNL     1       4.362  34.061  53.569  1.00  0.00     0.281 C 
HETATM    4  C   UNL     1       4.290  32.783  52.806  1.00  0.00     0.018 A 
HETATM    5  C   UNL     1       4.932  32.535  51.602  1.00  0.00    -0.024 A 
HETATM    6  C   UNL     1       4.638  31.218  51.129  1.00  0.00     0.057 A 
HETATM    7  C   UNL     1       3.844  30.529  52.010  1.00  0.00     0.087 A 
HETATM    8  N   UNL     1       3.455  29.260  51.785  1.00  0.00    -0.357 N 
HETATM    9  C   UNL     1       4.212  28.501  50.793  1.00  0.00     0.243 C 
HETATM   10  N   UNL     1       4.842  29.276  49.702  1.00  0.00    -0.235 NA
HETATM   11  C   UNL     1       5.026  30.524  49.929  1.00  0.00     0.173 C 
HETATM   12  S   UNL     1       3.408  31.443  53.370  1.00  0.00    -0.074 SA
HETATM   13  C   UNL     1       5.783  33.578  50.941  1.00  0.00     0.068 C 
HETATM   14  C   UNL     1       6.106  34.737  51.902  1.00  0.00     0.240 C 
HETATM   15  H   UNL     1       3.087  28.712  52.557  1.00  0.00     0.162 HD
ENDROOT
BRANCH   9  16
HETATM   16  C   UNL     1       5.208  27.597  51.525  1.00  0.00    -0.012 A 
HETATM   17  C   UNL     1       6.047  28.090  52.544  1.00  0.00     0.050 A 
HETATM   18  C   UNL     1       6.913  27.241  53.236  1.00  0.00     0.102 A 
HETATM   19  C   UNL     1       6.899  25.874  52.945  1.00  0.00     0.112 A 
HETATM   20  C   UNL     1       6.108  25.364  51.918  1.00  0.00     0.041 A 
HETATM   21  C   UNL     1       5.265  26.225  51.212  1.00  0.00     0.014 A 
BRANCH  18  22
HETATM   22  O   UNL     1       7.749  27.659  54.237  1.00  0.00    -0.353 OA
HETATM   23  C   UNL     1       7.109  27.962  55.472  1.00  0.00     0.210 C 
ENDBRANCH  18  22
BRANCH  19  24
HETATM   24  O   UNL     1       7.767  25.041  53.662  1.00  0.00    -0.272 OA
BRANCH  24  25
HETATM   25  C   UNL     1       7.135  24.240  54.589  1.00  0.00     0.300 C 
HETATM   26  O   UNL     1       6.263  24.524  55.394  1.00  0.00    -0.259 OA
BRANCH  25  27
HETATM   27  C   UNL     1       7.701  22.896  54.438  1.00  0.00     0.061 A 
HETATM   28  C   UNL     1       8.295  22.251  55.526  1.00  0.00     0.050 A 
HETATM   29 CL   UNL     1       8.400  22.977  57.088  1.00  0.00    -0.083 Cl
HETATM   30  C   UNL     1       8.826  20.970  55.356  1.00  0.00     0.025 A 
HETATM   31  C   UNL     1       8.757  20.341  54.111  1.00  0.00     0.002 A 
HETATM   32  C   UNL     1       8.153  20.987  53.030  1.00  0.00     0.001 A 
HETATM   33  C   UNL     1       7.621  22.266  53.190  1.00  0.00     0.019 A 
ENDBRANCH  25  27
ENDBRANCH  24  25
ENDBRANCH  19  24
ENDBRANCH   9  16
BRANCH  11  34
HETATM   34  O   UNL     1       5.634  31.259  48.982  1.00  0.00    -0.344 OA
HETATM   35  H   UNL     1       6.434  30.768  48.722  1.00  0.00     0.219 HD
ENDBRANCH  11  34
BRANCH   1  36
HETATM   36  C   UNL     1       3.762  35.802  51.848  1.00  0.00     0.231 C 
HETATM   37  C   UNL     1       4.007  37.277  51.594  1.00  0.00     0.034 C 
ENDBRANCH   1  36
TORSDOF 7
ENDMDL
