MODEL 1
REMARK VINA RESULT:      -9.2      0.000      0.000
REMARK  12 active torsions:
REMARK  status: ('A' for Active; 'I' for Inactive)
REMARK    1  A    between atoms: C_2  and  N_3 
REMARK    2  A    between atoms: N_3  and  C_5 
REMARK    3  A    between atoms: N_3  and  C_37 
REMARK    4  A    between atoms: C_5  and  C_6 
REMARK    5  A    between atoms: C_6  and  C_7 
REMARK    6  A    between atoms: C_7  and  N_8 
REMARK    7  A    between atoms: N_8  and  C_9 
REMARK    8  A    between atoms: C_9  and  N_10 
REMARK    9  A    between atoms: N_10  and  C_11 
REMARK   10  A    between atoms: N_10  and  C_26 
REMARK   11  A    between atoms: C_11  and  C_12 
REMARK   12  A    between atoms: C_26  and  C_27 
ROOT
HETATM    1  N   UNL     1       6.657  28.329  55.508  1.00  0.00    -0.350 N 
ENDROOT
BRANCH   1   2
HETATM    2  C   UNL     1       5.753  29.160  54.820  1.00  0.00     0.170 C 
HETATM    3  S   UNL     1       4.724  30.272  55.552  1.00  0.00    -0.041 SA
BRANCH   2   4
HETATM    4  N   UNL     1       5.801  29.024  53.441  1.00  0.00    -0.367 N 
HETATM    5  H   UNL     1       6.157  29.826  52.934  1.00  0.00     0.161 HD
BRANCH   4   6
HETATM    6  C   UNL     1       5.808  27.761  52.720  1.00  0.00     0.123 C 
BRANCH   6   7
HETATM    7  C   UNL     1       4.752  27.739  51.619  1.00  0.00     0.047 C 
BRANCH   7   8
HETATM    8  C   UNL     1       5.138  26.730  50.548  1.00  0.00     0.236 C 
BRANCH   8   9
HETATM    9  N   UNL     1       5.222  27.340  49.156  1.00  0.00    -0.072 N 
HETATM   10  H   UNL     1       5.982  26.832  48.683  1.00  0.00     0.279 HD
BRANCH   9  11
HETATM   11  C   UNL     1       5.640  28.803  49.130  1.00  0.00     0.230 C 
HETATM   12  C   UNL     1       4.676  29.645  48.314  1.00  0.00     0.034 C 
ENDBRANCH   9  11
BRANCH   9  13
HETATM   13  C   UNL     1       3.993  27.128  48.287  1.00  0.00     0.230 C 
HETATM   14  C   UNL     1       3.494  25.696  48.359  1.00  0.00     0.034 C 
ENDBRANCH   9  13
ENDBRANCH   8   9
ENDBRANCH   7   8
ENDBRANCH   6   7
ENDBRANCH   4   6
ENDBRANCH   2   4
ENDBRANCH   1   2
BRANCH   1  15
HETATM   15  C   UNL     1       6.234  27.365  56.542  1.00  0.00     0.169 C 
BRANCH  15  16
HETATM   16  C   UNL     1       6.830  25.995  56.344  1.00  0.00     0.029 A 
HETATM   17  C   UNL     1       7.629  25.453  57.486  1.00  0.00     0.253 A 
HETATM   18  O   UNL     1       7.663  26.015  58.579  1.00  0.00    -0.268 OA
HETATM   19  N   UNL     1       8.288  24.269  57.294  1.00  0.00    -0.322 N 
HETATM   20  C   UNL     1       8.157  23.488  56.140  1.00  0.00     0.048 A 
HETATM   21  H   UNL     1       8.874  23.953  58.053  1.00  0.00     0.169 HD
HETATM   22  C   UNL     1       7.333  23.952  55.091  1.00  0.00    -0.006 A 
HETATM   23  C   UNL     1       8.818  22.262  56.061  1.00  0.00     0.070 A 
HETATM   24  C   UNL     1       7.164  23.173  53.942  1.00  0.00     0.053 A 
HETATM   25  C   UNL     1       6.687  25.258  55.228  1.00  0.00     0.028 A 
HETATM   26  C   UNL     1       7.821  21.961  53.889  1.00  0.00     0.106 A 
HETATM   27  C   UNL     1       8.623  21.519  54.916  1.00  0.00     0.107 A 
HETATM   28  O   UNL     1       7.767  21.073  52.860  1.00  0.00    -0.323 OA
HETATM   29  O   UNL     1       9.167  20.300  54.663  1.00  0.00    -0.323 OA
HETATM   30  C   UNL     1       8.640  20.031  53.345  1.00  0.00     0.352 A 
ENDBRANCH  15  16
ENDBRANCH   1  15
BRANCH   1  31
HETATM   31  C   UNL     1       8.118  28.549  55.419  1.00  0.00     0.164 C 
BRANCH  31  32
HETATM   32  C   UNL     1       8.686  29.458  56.487  1.00  0.00    -0.037 A 
HETATM   33  C   UNL     1       7.861  30.022  57.476  1.00  0.00     0.048 A 
HETATM   34  C   UNL     1       8.437  30.854  58.415  1.00  0.00     0.105 A 
HETATM   35  C   UNL     1       9.778  31.152  58.399  1.00  0.00     0.105 A 
HETATM   36  O   UNL     1       7.783  31.467  59.437  1.00  0.00    -0.323 OA
HETATM   37  O   UNL     1      10.137  31.992  59.405  1.00  0.00    -0.323 OA
HETATM   38  C   UNL     1      10.619  30.636  57.442  1.00  0.00     0.040 A 
HETATM   39  C   UNL     1       8.864  32.206  60.047  1.00  0.00     0.352 A 
HETATM   40  C   UNL     1      10.064  29.787  56.480  1.00  0.00     0.012 A 
ENDBRANCH  31  32
ENDBRANCH   1  31
TORSDOF 12
ENDMDL
MODEL 2
REMARK VINA RESULT:      -9.1      2.703      6.337
REMARK  12 active torsions:
REMARK  status: ('A' for Active; 'I' for Inactive)
REMARK    1  A    between atoms: C_2  and  N_3 
REMARK    2  A    between atoms: N_3  and  C_5 
REMARK    3  A    between atoms: N_3  and  C_37 
REMARK    4  A    between atoms: C_5  and  C_6 
REMARK    5  A    between atoms: C_6  and  C_7 
REMARK    6  A    between atoms: C_7  and  N_8 
REMARK    7  A    between atoms: N_8  and  C_9 
REMARK    8  A    between atoms: C_9  and  N_10 
REMARK    9  A    between atoms: N_10  and  C_11 
REMARK   10  A    between atoms: N_10  and  C_26 
REMARK   11  A    between atoms: C_11  and  C_12 
REMARK   12  A    between atoms: C_26  and  C_27 
ROOT
HETATM    1  N   UNL     1       7.259  27.697  55.562  1.00  0.00    -0.350 N 
ENDROOT
BRANCH   1   2
HETATM    2  C   UNL     1       5.938  27.252  55.760  1.00  0.00     0.170 C 
HETATM    3  S   UNL     1       4.656  28.234  56.231  1.00  0.00    -0.041 SA
BRANCH   2   4
HETATM    4  N   UNL     1       5.751  25.905  55.488  1.00  0.00    -0.367 N 
HETATM    5  H   UNL     1       5.634  25.669  54.509  1.00  0.00     0.161 HD
BRANCH   4   6
HETATM    6  C   UNL     1       6.125  24.809  56.367  1.00  0.00     0.123 C 
BRANCH   6   7
HETATM    7  C   UNL     1       7.468  24.205  55.967  1.00  0.00     0.047 C 
BRANCH   7   8
HETATM    8  C   UNL     1       7.281  22.755  55.544  1.00  0.00     0.236 C 
BRANCH   8   9
HETATM    9  N   UNL     1       8.415  22.238  54.671  1.00  0.00    -0.072 N 
HETATM   10  H   UNL     1       9.093  23.010  54.623  1.00  0.00     0.279 HD
BRANCH   9  11
HETATM   11  C   UNL     1       8.024  21.954  53.228  1.00  0.00     0.230 C 
HETATM   12  C   UNL     1       8.317  20.515  52.843  1.00  0.00     0.034 C 
ENDBRANCH   9  11
BRANCH   9  13
HETATM   13  C   UNL     1       9.185  21.061  55.250  1.00  0.00     0.230 C 
HETATM   14  C   UNL     1       8.590  20.593  56.566  1.00  0.00     0.034 C 
ENDBRANCH   9  13
ENDBRANCH   8   9
ENDBRANCH   7   8
ENDBRANCH   6   7
ENDBRANCH   4   6
ENDBRANCH   2   4
ENDBRANCH   1   2
BRANCH   1  15
HETATM   15  C   UNL     1       7.774  28.124  54.247  1.00  0.00     0.169 C 
BRANCH  15  16
HETATM   16  C   UNL     1       6.883  27.707  53.106  1.00  0.00     0.029 A 
HETATM   17  C   UNL     1       7.140  26.351  52.530  1.00  0.00     0.253 A 
HETATM   18  O   UNL     1       7.919  25.559  53.057  1.00  0.00    -0.268 OA
HETATM   19  N   UNL     1       6.435  25.992  51.413  1.00  0.00    -0.322 N 
HETATM   20  C   UNL     1       5.412  26.770  50.860  1.00  0.00     0.048 A 
HETATM   21  H   UNL     1       6.670  25.100  51.001  1.00  0.00     0.169 HD
HETATM   22  C   UNL     1       5.103  28.014  51.453  1.00  0.00    -0.006 A 
HETATM   23  C   UNL     1       4.703  26.291  49.757  1.00  0.00     0.070 A 
HETATM   24  C   UNL     1       4.063  28.793  50.935  1.00  0.00     0.053 A 
HETATM   25  C   UNL     1       5.900  28.469  52.592  1.00  0.00     0.028 A 
HETATM   26  C   UNL     1       3.371  28.296  49.849  1.00  0.00     0.106 A 
HETATM   27  C   UNL     1       3.682  27.083  49.278  1.00  0.00     0.107 A 
HETATM   28  O   UNL     1       2.332  28.909  49.222  1.00  0.00    -0.323 OA
HETATM   29  O   UNL     1       2.874  26.781  48.227  1.00  0.00    -0.323 OA
HETATM   30  C   UNL     1       2.034  27.955  48.180  1.00  0.00     0.352 A 
ENDBRANCH  15  16
ENDBRANCH   1  15
BRANCH   1  31
HETATM   31  C   UNL     1       8.289  27.524  56.611  1.00  0.00     0.164 C 
BRANCH  31  32
HETATM   32  C   UNL     1       8.701  28.803  57.308  1.00  0.00    -0.037 A 
HETATM   33  C   UNL     1       7.883  29.393  58.287  1.00  0.00     0.048 A 
HETATM   34  C   UNL     1       8.309  30.567  58.877  1.00  0.00     0.105 A 
HETATM   35  C   UNL     1       9.491  31.172  58.524  1.00  0.00     0.105 A 
HETATM   36  O   UNL     1       7.643  31.255  59.841  1.00  0.00    -0.323 OA
HETATM   37  O   UNL     1       9.717  32.317  59.219  1.00  0.00    -0.323 OA
HETATM   38  C   UNL     1      10.314  30.638  57.561  1.00  0.00     0.040 A 
HETATM   39  C   UNL     1       8.532  32.377  60.037  1.00  0.00     0.352 A 
HETATM   40  C   UNL     1       9.910  29.448  56.949  1.00  0.00     0.012 A 
ENDBRANCH  31  32
ENDBRANCH   1  31
TORSDOF 12
ENDMDL
MODEL 3
REMARK VINA RESULT:      -9.1      2.619      7.143
REMARK  12 active torsions:
REMARK  status: ('A' for Active; 'I' for Inactive)
REMARK    1  A    between atoms: C_2  and  N_3 
REMARK    2  A    between atoms: N_3  and  C_5 
REMARK    3  A    between atoms: N_3  and  C_37 
REMARK    4  A    between atoms: C_5  and  C_6 
REMARK    5  A    between atoms: C_6  and  C_7 
REMARK    6  A    between atoms: C_7  and  N_8 
REMARK    7  A    between atoms: N_8  and  C_9 
REMARK    8  A    between atoms: C_9  and  N_10 
REMARK    9  A    between atoms: N_10  and  C_11 
REMARK   10  A    between atoms: N_10  and  C_26 
REMARK   11  A    between atoms: C_11  and  C_12 
REMARK   12  A    between atoms: C_26  and  C_27 
ROOT
HETATM    1  N   UNL     1       5.699  28.477  54.443  1.00  0.00    -0.350 N 
ENDROOT
BRANCH   1   2
HETATM    2  C   UNL     1       5.367  29.647  55.155  1.00  0.00     0.170 C 
HETATM    3  S   UNL     1       3.941  30.517  54.958  1.00  0.00    -0.041 SA
BRANCH   2   4
HETATM    4  N   UNL     1       6.316  30.021  56.095  1.00  0.00    -0.367 N 
HETATM    5  H   UNL     1       7.164  30.430  55.721  1.00  0.00     0.161 HD
BRANCH   4   6
HETATM    6  C   UNL     1       6.050  30.279  57.501  1.00  0.00     0.123 C 
BRANCH   6   7
HETATM    7  C   UNL     1       7.194  31.049  58.153  1.00  0.00     0.047 C 
BRANCH   7   8
HETATM    8  C   UNL     1       8.169  30.079  58.805  1.00  0.00     0.236 C 
BRANCH   8   9
HETATM    9  N   UNL     1       9.548  30.682  59.030  1.00  0.00    -0.072 N 
HETATM   10  H   UNL     1      10.059  29.988  59.594  1.00  0.00     0.279 HD
BRANCH   9  11
HETATM   11  C   UNL     1       9.555  31.957  59.861  1.00  0.00     0.230 C 
HETATM   12  C   UNL     1       9.542  31.654  61.348  1.00  0.00     0.034 C 
ENDBRANCH   9  11
BRANCH   9  13
HETATM   13  C   UNL     1      10.381  30.869  57.772  1.00  0.00     0.230 C 
HETATM   14  C   UNL     1      10.591  29.557  57.037  1.00  0.00     0.034 C 
ENDBRANCH   9  13
ENDBRANCH   8   9
ENDBRANCH   7   8
ENDBRANCH   6   7
ENDBRANCH   4   6
ENDBRANCH   2   4
ENDBRANCH   1   2
BRANCH   1  15
HETATM   15  C   UNL     1       7.090  28.087  54.144  1.00  0.00     0.169 C 
BRANCH  15  16
HETATM   16  C   UNL     1       7.390  26.659  54.518  1.00  0.00     0.029 A 
HETATM   17  C   UNL     1       7.545  26.378  55.978  1.00  0.00     0.253 A 
HETATM   18  O   UNL     1       7.282  27.222  56.833  1.00  0.00    -0.268 OA
HETATM   19  N   UNL     1       7.942  25.120  56.345  1.00  0.00    -0.322 N 
HETATM   20  C   UNL     1       8.091  24.062  55.442  1.00  0.00     0.048 A 
HETATM   21  H   UNL     1       8.104  24.970  57.330  1.00  0.00     0.169 HD
HETATM   22  C   UNL     1       7.861  24.298  54.069  1.00  0.00    -0.006 A 
HETATM   23  C   UNL     1       8.437  22.796  55.917  1.00  0.00     0.070 A 
HETATM   24  C   UNL     1       7.976  23.247  53.153  1.00  0.00     0.053 A 
HETATM   25  C   UNL     1       7.525  25.654  53.633  1.00  0.00     0.028 A 
HETATM   26  C   UNL     1       8.311  22.002  53.646  1.00  0.00     0.106 A 
HETATM   27  C   UNL     1       8.536  21.784  54.986  1.00  0.00     0.107 A 
HETATM   28  O   UNL     1       8.458  20.869  52.908  1.00  0.00    -0.323 OA
HETATM   29  O   UNL     1       8.845  20.489  55.257  1.00  0.00    -0.323 OA
HETATM   30  C   UNL     1       8.818  19.917  53.931  1.00  0.00     0.352 A 
ENDBRANCH  15  16
ENDBRANCH   1  15
BRANCH   1  31
HETATM   31  C   UNL     1       4.663  27.697  53.730  1.00  0.00     0.164 C 
BRANCH  31  32
HETATM   32  C   UNL     1       4.763  27.746  52.221  1.00  0.00    -0.037 A 
HETATM   33  C   UNL     1       4.625  28.957  51.522  1.00  0.00     0.048 A 
HETATM   34  C   UNL     1       4.714  28.934  50.144  1.00  0.00     0.105 A 
HETATM   35  C   UNL     1       4.917  27.767  49.447  1.00  0.00     0.105 A 
HETATM   36  O   UNL     1       4.612  30.014  49.325  1.00  0.00    -0.323 OA
HETATM   37  O   UNL     1       4.966  27.965  48.104  1.00  0.00    -0.323 OA
HETATM   38  C   UNL     1       5.041  26.557  50.088  1.00  0.00     0.040 A 
HETATM   39  C   UNL     1       4.750  29.388  48.031  1.00  0.00     0.352 A 
HETATM   40  C   UNL     1       4.960  26.552  51.484  1.00  0.00     0.012 A 
ENDBRANCH  31  32
ENDBRANCH   1  31
TORSDOF 12
ENDMDL
MODEL 4
REMARK VINA RESULT:      -9.0      2.836      7.418
REMARK  12 active torsions:
REMARK  status: ('A' for Active; 'I' for Inactive)
REMARK    1  A    between atoms: C_2  and  N_3 
REMARK    2  A    between atoms: N_3  and  C_5 
REMARK    3  A    between atoms: N_3  and  C_37 
REMARK    4  A    between atoms: C_5  and  C_6 
REMARK    5  A    between atoms: C_6  and  C_7 
REMARK    6  A    between atoms: C_7  and  N_8 
REMARK    7  A    between atoms: N_8  and  C_9 
REMARK    8  A    between atoms: C_9  and  N_10 
REMARK    9  A    between atoms: N_10  and  C_11 
REMARK   10  A    between atoms: N_10  and  C_26 
REMARK   11  A    between atoms: C_11  and  C_12 
REMARK   12  A    between atoms: C_26  and  C_27 
ROOT
HETATM    1  N   UNL     1       5.894  28.565  56.299  1.00  0.00    -0.350 N 
ENDROOT
BRANCH   1   2
HETATM    2  C   UNL     1       5.775  29.537  57.311  1.00  0.00     0.170 C 
HETATM    3  S   UNL     1       4.462  30.572  57.497  1.00  0.00    -0.041 SA
BRANCH   2   4
HETATM    4  N   UNL     1       6.837  29.553  58.204  1.00  0.00    -0.367 N 
HETATM    5  H   UNL     1       7.113  28.650  58.571  1.00  0.00     0.161 HD
BRANCH   4   6
HETATM    6  C   UNL     1       7.822  30.616  58.320  1.00  0.00     0.123 C 
BRANCH   6   7
HETATM    7  C   UNL     1       8.364  30.723  59.741  1.00  0.00     0.047 C 
BRANCH   7   8
HETATM    8  C   UNL     1       7.800  31.963  60.421  1.00  0.00     0.236 C 
BRANCH   8   9
HETATM    9  N   UNL     1       6.515  31.690  61.189  1.00  0.00    -0.072 N 
HETATM   10  H   UNL     1       6.277  30.710  60.980  1.00  0.00     0.279 HD
BRANCH   9  11
HETATM   11  C   UNL     1       5.315  32.502  60.724  1.00  0.00     0.230 C 
HETATM   12  C   UNL     1       4.128  32.328  61.654  1.00  0.00     0.034 C 
ENDBRANCH   9  11
BRANCH   9  13
HETATM   13  C   UNL     1       6.643  31.759  62.702  1.00  0.00     0.230 C 
HETATM   14  C   UNL     1       7.986  32.325  63.126  1.00  0.00     0.034 C 
ENDBRANCH   9  13
ENDBRANCH   8   9
ENDBRANCH   7   8
ENDBRANCH   6   7
ENDBRANCH   4   6
ENDBRANCH   2   4
ENDBRANCH   1   2
BRANCH   1  15
HETATM   15  C   UNL     1       7.174  28.250  55.636  1.00  0.00     0.169 C 
BRANCH  15  16
HETATM   16  C   UNL     1       7.510  26.781  55.679  1.00  0.00     0.029 A 
HETATM   17  C   UNL     1       7.996  26.254  56.990  1.00  0.00     0.253 A 
HETATM   18  O   UNL     1       7.970  26.935  58.014  1.00  0.00    -0.268 OA
HETATM   19  N   UNL     1       8.429  24.956  57.032  1.00  0.00    -0.322 N 
HETATM   20  C   UNL     1       8.328  24.072  55.952  1.00  0.00     0.048 A 
HETATM   21  H   UNL     1       8.814  24.639  57.910  1.00  0.00     0.169 HD
HETATM   22  C   UNL     1       7.787  24.539  54.734  1.00  0.00    -0.006 A 
HETATM   23  C   UNL     1       8.736  22.746  56.108  1.00  0.00     0.070 A 
HETATM   24  C   UNL     1       7.649  23.663  53.653  1.00  0.00     0.053 A 
HETATM   25  C   UNL     1       7.400  25.946  54.629  1.00  0.00     0.028 A 
HETATM   26  C   UNL     1       8.052  22.356  53.832  1.00  0.00     0.106 A 
HETATM   27  C   UNL     1       8.580  21.911  55.023  1.00  0.00     0.107 A 
HETATM   28  O   UNL     1       7.985  21.370  52.898  1.00  0.00    -0.323 OA
HETATM   29  O   UNL     1       8.904  20.592  54.987  1.00  0.00    -0.323 OA
HETATM   30  C   UNL     1       8.547  20.258  53.628  1.00  0.00     0.352 A 
ENDBRANCH  15  16
ENDBRANCH   1  15
BRANCH   1  31
HETATM   31  C   UNL     1       4.697  27.977  55.659  1.00  0.00     0.164 C 
BRANCH  31  32
HETATM   32  C   UNL     1       4.506  28.358  54.207  1.00  0.00    -0.037 A 
HETATM   33  C   UNL     1       4.672  27.413  53.180  1.00  0.00     0.048 A 
HETATM   34  C   UNL     1       4.497  27.826  51.874  1.00  0.00     0.105 A 
HETATM   35  C   UNL     1       4.181  29.125  51.557  1.00  0.00     0.105 A 
HETATM   36  O   UNL     1       4.611  27.038  50.772  1.00  0.00    -0.323 OA
HETATM   37  O   UNL     1       4.061  29.320  50.217  1.00  0.00    -0.323 OA
HETATM   38  C   UNL     1       4.026  30.086  52.528  1.00  0.00     0.040 A 
HETATM   39  C   UNL     1       4.356  27.998  49.723  1.00  0.00     0.352 A 
HETATM   40  C   UNL     1       4.193  29.695  53.860  1.00  0.00     0.012 A 
ENDBRANCH  31  32
ENDBRANCH   1  31
TORSDOF 12
ENDMDL
MODEL 5
REMARK VINA RESULT:      -8.9      3.109      8.987
REMARK  12 active torsions:
REMARK  status: ('A' for Active; 'I' for Inactive)
REMARK    1  A    between atoms: C_2  and  N_3 
REMARK    2  A    between atoms: N_3  and  C_5 
REMARK    3  A    between atoms: N_3  and  C_37 
REMARK    4  A    between atoms: C_5  and  C_6 
REMARK    5  A    between atoms: C_6  and  C_7 
REMARK    6  A    between atoms: C_7  and  N_8 
REMARK    7  A    between atoms: N_8  and  C_9 
REMARK    8  A    between atoms: C_9  and  N_10 
REMARK    9  A    between atoms: N_10  and  C_11 
REMARK   10  A    between atoms: N_10  and  C_26 
REMARK   11  A    between atoms: C_11  and  C_12 
REMARK   12  A    between atoms: C_26  and  C_27 
ROOT
HETATM    1  N   UNL     1       6.883  26.094  55.069  1.00  0.00    -0.350 N 
ENDROOT
BRANCH   1   2
HETATM    2  C   UNL     1       7.190  26.697  56.304  1.00  0.00     0.170 C 
HETATM    3  S   UNL     1       7.595  25.859  57.706  1.00  0.00    -0.041 SA
BRANCH   2   4
HETATM    4  N   UNL     1       7.176  28.083  56.273  1.00  0.00    -0.367 N 
HETATM    5  H   UNL     1       7.221  28.500  55.350  1.00  0.00     0.161 HD
BRANCH   4   6
HETATM    6  C   UNL     1       6.686  28.944  57.337  1.00  0.00     0.123 C 
BRANCH   6   7
HETATM    7  C   UNL     1       7.832  29.513  58.168  1.00  0.00     0.047 C 
BRANCH   7   8
HETATM    8  C   UNL     1       7.389  30.797  58.854  1.00  0.00     0.236 C 
BRANCH   8   9
HETATM    9  N   UNL     1       7.672  30.802  60.349  1.00  0.00    -0.072 N 
HETATM   10  H   UNL     1       7.211  29.958  60.715  1.00  0.00     0.279 HD
BRANCH   9  11
HETATM   11  C   UNL     1       7.045  31.963  61.108  1.00  0.00     0.230 C 
HETATM   12  C   UNL     1       5.942  32.626  60.304  1.00  0.00     0.034 C 
ENDBRANCH   9  11
BRANCH   9  13
HETATM   13  C   UNL     1       9.138  30.656  60.727  1.00  0.00     0.230 C 
HETATM   14  C   UNL     1       9.595  31.774  61.646  1.00  0.00     0.034 C 
ENDBRANCH   9  13
ENDBRANCH   8   9
ENDBRANCH   7   8
ENDBRANCH   6   7
ENDBRANCH   4   6
ENDBRANCH   2   4
ENDBRANCH   1   2
BRANCH   1  15
HETATM   15  C   UNL     1       5.507  25.739  54.669  1.00  0.00     0.169 C 
BRANCH  15  16
HETATM   16  C   UNL     1       5.020  26.529  53.482  1.00  0.00     0.029 A 
HETATM   17  C   UNL     1       4.344  27.828  53.787  1.00  0.00     0.253 A 
HETATM   18  O   UNL     1       4.329  28.301  54.922  1.00  0.00    -0.268 OA
HETATM   19  N   UNL     1       3.777  28.509  52.743  1.00  0.00    -0.322 N 
HETATM   20  C   UNL     1       3.904  28.119  51.405  1.00  0.00     0.048 A 
HETATM   21  H   UNL     1       3.269  29.349  52.979  1.00  0.00     0.169 HD
HETATM   22  C   UNL     1       4.618  26.939  51.101  1.00  0.00    -0.006 A 
HETATM   23  C   UNL     1       3.347  28.914  50.402  1.00  0.00     0.070 A 
HETATM   24  C   UNL     1       4.781  26.548  49.769  1.00  0.00     0.053 A 
HETATM   25  C   UNL     1       5.156  26.139  52.202  1.00  0.00     0.028 A 
HETATM   26  C   UNL     1       4.229  27.353  48.793  1.00  0.00     0.106 A 
HETATM   27  C   UNL     1       3.533  28.500  49.101  1.00  0.00     0.107 A 
HETATM   28  O   UNL     1       4.295  27.134  47.453  1.00  0.00    -0.323 OA
HETATM   29  O   UNL     1       3.081  29.146  47.994  1.00  0.00    -0.323 OA
HETATM   30  C   UNL     1       3.547  28.262  46.950  1.00  0.00     0.352 A 
ENDBRANCH  15  16
ENDBRANCH   1  15
BRANCH   1  31
HETATM   31  C   UNL     1       7.947  25.547  54.199  1.00  0.00     0.164 C 
BRANCH  31  32
HETATM   32  C   UNL     1       8.047  24.037  54.197  1.00  0.00    -0.037 A 
HETATM   33  C   UNL     1       8.406  23.331  55.358  1.00  0.00     0.048 A 
HETATM   34  C   UNL     1       8.493  21.954  55.289  1.00  0.00     0.105 A 
HETATM   35  C   UNL     1       8.253  21.268  54.123  1.00  0.00     0.105 A 
HETATM   36  O   UNL     1       8.817  21.128  56.319  1.00  0.00    -0.323 OA
HETATM   37  O   UNL     1       8.399  19.925  54.270  1.00  0.00    -0.323 OA
HETATM   38  C   UNL     1       7.915  21.918  52.960  1.00  0.00     0.040 A 
HETATM   39  C   UNL     1       8.778  19.844  55.659  1.00  0.00     0.352 A 
HETATM   40  C   UNL     1       7.816  23.312  53.002  1.00  0.00     0.012 A 
ENDBRANCH  31  32
ENDBRANCH   1  31
TORSDOF 12
ENDMDL
MODEL 6
REMARK VINA RESULT:      -8.8      2.296      7.684
REMARK  12 active torsions:
REMARK  status: ('A' for Active; 'I' for Inactive)
REMARK    1  A    between atoms: C_2  and  N_3 
REMARK    2  A    between atoms: N_3  and  C_5 
REMARK    3  A    between atoms: N_3  and  C_37 
REMARK    4  A    between atoms: C_5  and  C_6 
REMARK    5  A    between atoms: C_6  and  C_7 
REMARK    6  A    between atoms: C_7  and  N_8 
REMARK    7  A    between atoms: N_8  and  C_9 
REMARK    8  A    between atoms: C_9  and  N_10 
REMARK    9  A    between atoms: N_10  and  C_11 
REMARK   10  A    between atoms: N_10  and  C_26 
REMARK   11  A    between atoms: C_11  and  C_12 
REMARK   12  A    between atoms: C_26  and  C_27 
ROOT
HETATM    1  N   UNL     1       6.307  26.147  54.758  1.00  0.00    -0.350 N 
ENDROOT
BRANCH   1   2
HETATM    2  C   UNL     1       5.427  26.738  53.830  1.00  0.00     0.170 C 
HETATM    3  S   UNL     1       5.508  28.337  53.316  1.00  0.00    -0.041 SA
BRANCH   2   4
HETATM    4  N   UNL     1       4.479  25.864  53.318  1.00  0.00    -0.367 N 
HETATM    5  H   UNL     1       3.517  26.072  53.560  1.00  0.00     0.161 HD
BRANCH   4   6
HETATM    6  C   UNL     1       4.673  24.989  52.173  1.00  0.00     0.123 C 
BRANCH   6   7
HETATM    7  C   UNL     1       5.507  25.664  51.089  1.00  0.00     0.047 C 
BRANCH   7   8
HETATM    8  C   UNL     1       4.596  26.398  50.115  1.00  0.00     0.236 C 
BRANCH   8   9
HETATM    9  N   UNL     1       5.357  27.086  48.991  1.00  0.00    -0.072 N 
HETATM   10  H   UNL     1       6.310  26.702  49.033  1.00  0.00     0.279 HD
BRANCH   9  11
HETATM   11  C   UNL     1       5.522  28.589  49.165  1.00  0.00     0.230 C 
HETATM   12  C   UNL     1       4.249  29.234  49.682  1.00  0.00     0.034 C 
ENDBRANCH   9  11
BRANCH   9  13
HETATM   13  C   UNL     1       4.858  26.770  47.589  1.00  0.00     0.230 C 
HETATM   14  C   UNL     1       3.582  25.949  47.620  1.00  0.00     0.034 C 
ENDBRANCH   9  13
ENDBRANCH   8   9
ENDBRANCH   7   8
ENDBRANCH   6   7
ENDBRANCH   4   6
ENDBRANCH   2   4
ENDBRANCH   1   2
BRANCH   1  15
HETATM   15  C   UNL     1       6.078  26.182  56.215  1.00  0.00     0.169 C 
BRANCH  15  16
HETATM   16  C   UNL     1       6.081  27.581  56.775  1.00  0.00     0.029 A 
HETATM   17  C   UNL     1       7.397  28.089  57.271  1.00  0.00     0.253 A 
HETATM   18  O   UNL     1       8.444  27.470  57.085  1.00  0.00    -0.268 OA
HETATM   19  N   UNL     1       7.412  29.305  57.901  1.00  0.00    -0.322 N 
HETATM   20  C   UNL     1       6.294  30.141  57.995  1.00  0.00     0.048 A 
HETATM   21  H   UNL     1       8.297  29.600  58.285  1.00  0.00     0.169 HD
HETATM   22  C   UNL     1       5.066  29.705  57.450  1.00  0.00    -0.006 A 
HETATM   23  C   UNL     1       6.421  31.393  58.599  1.00  0.00     0.070 A 
HETATM   24  C   UNL     1       3.944  30.538  57.507  1.00  0.00     0.053 A 
HETATM   25  C   UNL     1       4.995  28.371  56.852  1.00  0.00     0.028 A 
HETATM   26  C   UNL     1       4.095  31.774  58.102  1.00  0.00     0.106 A 
HETATM   27  C   UNL     1       5.295  32.188  58.632  1.00  0.00     0.107 A 
HETATM   28  O   UNL     1       3.120  32.713  58.239  1.00  0.00    -0.323 OA
HETATM   29  O   UNL     1       5.226  33.438  59.161  1.00  0.00    -0.323 OA
HETATM   30  C   UNL     1       3.837  33.757  58.931  1.00  0.00     0.352 A 
ENDBRANCH  15  16
ENDBRANCH   1  15
BRANCH   1  31
HETATM   31  C   UNL     1       7.647  25.674  54.346  1.00  0.00     0.164 C 
BRANCH  31  32
HETATM   32  C   UNL     1       7.805  24.169  54.322  1.00  0.00    -0.037 A 
HETATM   33  C   UNL     1       8.048  23.445  55.502  1.00  0.00     0.048 A 
HETATM   34  C   UNL     1       8.197  22.075  55.413  1.00  0.00     0.105 A 
HETATM   35  C   UNL     1       8.128  21.413  54.211  1.00  0.00     0.105 A 
HETATM   36  O   UNL     1       8.425  21.233  56.455  1.00  0.00    -0.323 OA
HETATM   37  O   UNL     1       8.307  20.072  54.345  1.00  0.00    -0.323 OA
HETATM   38  C   UNL     1       7.909  22.082  53.030  1.00  0.00     0.040 A 
HETATM   39  C   UNL     1       8.517  19.967  55.767  1.00  0.00     0.352 A 
HETATM   40  C   UNL     1       7.750  23.470  53.092  1.00  0.00     0.012 A 
ENDBRANCH  31  32
ENDBRANCH   1  31
TORSDOF 12
ENDMDL
MODEL 7
REMARK VINA RESULT:      -8.8      1.985      3.086
REMARK  12 active torsions:
REMARK  status: ('A' for Active; 'I' for Inactive)
REMARK    1  A    between atoms: C_2  and  N_3 
REMARK    2  A    between atoms: N_3  and  C_5 
REMARK    3  A    between atoms: N_3  and  C_37 
REMARK    4  A    between atoms: C_5  and  C_6 
REMARK    5  A    between atoms: C_6  and  C_7 
REMARK    6  A    between atoms: C_7  and  N_8 
REMARK    7  A    between atoms: N_8  and  C_9 
REMARK    8  A    between atoms: C_9  and  N_10 
REMARK    9  A    between atoms: N_10  and  C_11 
REMARK   10  A    between atoms: N_10  and  C_26 
REMARK   11  A    between atoms: C_11  and  C_12 
REMARK   12  A    between atoms: C_26  and  C_27 
ROOT
HETATM    1  N   UNL     1       5.972  28.281  54.005  1.00  0.00    -0.350 N 
ENDROOT
BRANCH   1   2
HETATM    2  C   UNL     1       5.080  28.687  52.994  1.00  0.00     0.170 C 
HETATM    3  S   UNL     1       3.404  28.582  53.096  1.00  0.00    -0.041 SA
BRANCH   2   4
HETATM    4  N   UNL     1       5.701  29.239  51.884  1.00  0.00    -0.367 N 
HETATM    5  H   UNL     1       6.658  28.945  51.728  1.00  0.00     0.161 HD
BRANCH   4   6
HETATM    6  C   UNL     1       5.018  29.820  50.739  1.00  0.00     0.123 C 
BRANCH   6   7
HETATM    7  C   UNL     1       5.714  29.458  49.431  1.00  0.00     0.047 C 
BRANCH   7   8
HETATM    8  C   UNL     1       4.711  28.852  48.459  1.00  0.00     0.236 C 
BRANCH   8   9
HETATM    9  N   UNL     1       3.794  27.827  49.110  1.00  0.00    -0.072 N 
HETATM   10  H   UNL     1       3.842  28.022  50.120  1.00  0.00     0.279 HD
BRANCH   9  11
HETATM   11  C   UNL     1       4.248  26.383  48.958  1.00  0.00     0.230 C 
HETATM   12  C   UNL     1       3.224  25.552  48.206  1.00  0.00     0.034 C 
ENDBRANCH   9  11
BRANCH   9  13
HETATM   13  C   UNL     1       2.323  27.959  48.746  1.00  0.00     0.230 C 
HETATM   14  C   UNL     1       1.581  28.853  49.722  1.00  0.00     0.034 C 
ENDBRANCH   9  13
ENDBRANCH   8   9
ENDBRANCH   7   8
ENDBRANCH   6   7
ENDBRANCH   4   6
ENDBRANCH   2   4
ENDBRANCH   1   2
BRANCH   1  15
HETATM   15  C   UNL     1       7.351  27.838  53.728  1.00  0.00     0.169 C 
BRANCH  15  16
HETATM   16  C   UNL     1       7.485  26.338  53.674  1.00  0.00     0.029 A 
HETATM   17  C   UNL     1       7.017  25.679  52.416  1.00  0.00     0.253 A 
HETATM   18  O   UNL     1       6.695  26.330  51.424  1.00  0.00    -0.268 OA
HETATM   19  N   UNL     1       7.005  24.310  52.381  1.00  0.00    -0.322 N 
HETATM   20  C   UNL     1       7.519  23.507  53.406  1.00  0.00     0.048 A 
HETATM   21  H   UNL     1       6.625  23.885  51.549  1.00  0.00     0.169 HD
HETATM   22  C   UNL     1       8.044  24.125  54.562  1.00  0.00    -0.006 A 
HETATM   23  C   UNL     1       7.524  22.119  53.254  1.00  0.00     0.070 A 
HETATM   24  C   UNL     1       8.589  23.341  55.584  1.00  0.00     0.053 A 
HETATM   25  C   UNL     1       7.986  25.583  54.669  1.00  0.00     0.028 A 
HETATM   26  C   UNL     1       8.591  21.972  55.409  1.00  0.00     0.106 A 
HETATM   27  C   UNL     1       8.074  21.380  54.279  1.00  0.00     0.107 A 
HETATM   28  O   UNL     1       9.084  21.060  56.289  1.00  0.00    -0.323 OA
HETATM   29  O   UNL     1       8.183  20.026  54.307  1.00  0.00    -0.323 OA
HETATM   30  C   UNL     1       8.803  19.826  55.596  1.00  0.00     0.352 A 
ENDBRANCH  15  16
ENDBRANCH   1  15
BRANCH   1  31
HETATM   31  C   UNL     1       5.501  28.032  55.386  1.00  0.00     0.164 C 
BRANCH  31  32
HETATM   32  C   UNL     1       6.001  29.025  56.412  1.00  0.00    -0.037 A 
HETATM   33  C   UNL     1       7.032  28.690  57.306  1.00  0.00     0.048 A 
HETATM   34  C   UNL     1       7.435  29.636  58.228  1.00  0.00     0.105 A 
HETATM   35  C   UNL     1       6.849  30.876  58.302  1.00  0.00     0.105 A 
HETATM   36  O   UNL     1       8.420  29.473  59.151  1.00  0.00    -0.323 OA
HETATM   37  O   UNL     1       7.388  31.649  59.281  1.00  0.00    -0.323 OA
HETATM   38  C   UNL     1       5.826  31.241  57.459  1.00  0.00     0.040 A 
HETATM   39  C   UNL     1       8.369  30.747  59.830  1.00  0.00     0.352 A 
HETATM   40  C   UNL     1       5.401  30.304  56.512  1.00  0.00     0.012 A 
ENDBRANCH  31  32
ENDBRANCH   1  31
TORSDOF 12
ENDMDL
MODEL 8
REMARK VINA RESULT:      -8.7      3.163      9.158
REMARK  12 active torsions:
REMARK  status: ('A' for Active; 'I' for Inactive)
REMARK    1  A    between atoms: C_2  and  N_3 
REMARK    2  A    between atoms: N_3  and  C_5 
REMARK    3  A    between atoms: N_3  and  C_37 
REMARK    4  A    between atoms: C_5  and  C_6 
REMARK    5  A    between atoms: C_6  and  C_7 
REMARK    6  A    between atoms: C_7  and  N_8 
REMARK    7  A    between atoms: N_8  and  C_9 
REMARK    8  A    between atoms: C_9  and  N_10 
REMARK    9  A    between atoms: N_10  and  C_11 
REMARK   10  A    between atoms: N_10  and  C_26 
REMARK   11  A    between atoms: C_11  and  C_12 
REMARK   12  A    between atoms: C_26  and  C_27 
ROOT
HETATM    1  N   UNL     1       6.393  26.134  54.567  1.00  0.00    -0.350 N 
ENDROOT
BRANCH   1   2
HETATM    2  C   UNL     1       6.287  26.611  55.888  1.00  0.00     0.170 C 
HETATM    3  S   UNL     1       5.850  25.671  57.214  1.00  0.00    -0.041 SA
BRANCH   2   4
HETATM    4  N   UNL     1       6.621  27.949  56.033  1.00  0.00    -0.367 N 
HETATM    5  H   UNL     1       5.842  28.598  56.015  1.00  0.00     0.161 HD
BRANCH   4   6
HETATM    6  C   UNL     1       7.855  28.450  56.616  1.00  0.00     0.123 C 
BRANCH   6   7
HETATM    7  C   UNL     1       7.656  28.870  58.068  1.00  0.00     0.047 C 
BRANCH   7   8
HETATM    8  C   UNL     1       8.017  30.338  58.240  1.00  0.00     0.236 C 
BRANCH   8   9
HETATM    9  N   UNL     1       9.433  30.548  58.757  1.00  0.00    -0.072 N 
HETATM   10  H   UNL     1       9.756  29.616  59.049  1.00  0.00     0.279 HD
BRANCH   9  11
HETATM   11  C   UNL     1       9.529  31.415  60.005  1.00  0.00     0.230 C 
HETATM   12  C   UNL     1       9.032  30.679  61.235  1.00  0.00     0.034 C 
ENDBRANCH   9  11
BRANCH   9  13
HETATM   13  C   UNL     1      10.436  31.014  57.713  1.00  0.00     0.230 C 
HETATM   14  C   UNL     1      11.323  29.876  57.241  1.00  0.00     0.034 C 
ENDBRANCH   9  13
ENDBRANCH   8   9
ENDBRANCH   7   8
ENDBRANCH   6   7
ENDBRANCH   4   6
ENDBRANCH   2   4
ENDBRANCH   1   2
BRANCH   1  15
HETATM   15  C   UNL     1       5.220  25.877  53.711  1.00  0.00     0.169 C 
BRANCH  15  16
HETATM   16  C   UNL     1       5.180  26.761  52.491  1.00  0.00     0.029 A 
HETATM   17  C   UNL     1       5.072  26.062  51.173  1.00  0.00     0.253 A 
HETATM   18  O   UNL     1       4.864  24.852  51.096  1.00  0.00    -0.268 OA
HETATM   19  N   UNL     1       5.160  26.824  50.040  1.00  0.00    -0.322 N 
HETATM   20  C   UNL     1       5.223  28.222  50.052  1.00  0.00     0.048 A 
HETATM   21  H   UNL     1       5.151  26.327  49.162  1.00  0.00     0.169 HD
HETATM   22  C   UNL     1       5.236  28.896  51.293  1.00  0.00    -0.006 A 
HETATM   23  C   UNL     1       5.244  28.920  48.843  1.00  0.00     0.070 A 
HETATM   24  C   UNL     1       5.268  30.294  51.326  1.00  0.00     0.053 A 
HETATM   25  C   UNL     1       5.236  28.105  52.524  1.00  0.00     0.028 A 
HETATM   26  C   UNL     1       5.281  30.962  50.120  1.00  0.00     0.106 A 
HETATM   27  C   UNL     1       5.270  30.296  48.915  1.00  0.00     0.107 A 
HETATM   28  O   UNL     1       5.304  32.313  49.960  1.00  0.00    -0.323 OA
HETATM   29  O   UNL     1       5.279  31.143  47.853  1.00  0.00    -0.323 OA
HETATM   30  C   UNL     1       5.325  32.423  48.521  1.00  0.00     0.352 A 
ENDBRANCH  15  16
ENDBRANCH   1  15
BRANCH   1  31
HETATM   31  C   UNL     1       7.677  25.621  54.040  1.00  0.00     0.164 C 
BRANCH  31  32
HETATM   32  C   UNL     1       7.830  24.117  54.106  1.00  0.00    -0.037 A 
HETATM   33  C   UNL     1       8.113  23.468  55.320  1.00  0.00     0.048 A 
HETATM   34  C   UNL     1       8.255  22.094  55.312  1.00  0.00     0.105 A 
HETATM   35  C   UNL     1       8.142  21.358  54.158  1.00  0.00     0.105 A 
HETATM   36  O   UNL     1       8.518  21.319  56.398  1.00  0.00    -0.323 OA
HETATM   37  O   UNL     1       8.322  20.027  54.370  1.00  0.00    -0.323 OA
HETATM   38  C   UNL     1       7.882  21.952  52.946  1.00  0.00     0.040 A 
HETATM   39  C   UNL     1       8.582  20.011  55.788  1.00  0.00     0.352 A 
HETATM   40  C   UNL     1       7.730  23.342  52.925  1.00  0.00     0.012 A 
ENDBRANCH  31  32
ENDBRANCH   1  31
TORSDOF 12
ENDMDL
MODEL 9
REMARK VINA RESULT:      -8.5      1.887      7.642
REMARK  12 active torsions:
REMARK  status: ('A' for Active; 'I' for Inactive)
REMARK    1  A    between atoms: C_2  and  N_3 
REMARK    2  A    between atoms: N_3  and  C_5 
REMARK    3  A    between atoms: N_3  and  C_37 
REMARK    4  A    between atoms: C_5  and  C_6 
REMARK    5  A    between atoms: C_6  and  C_7 
REMARK    6  A    between atoms: C_7  and  N_8 
REMARK    7  A    between atoms: N_8  and  C_9 
REMARK    8  A    between atoms: C_9  and  N_10 
REMARK    9  A    between atoms: N_10  and  C_11 
REMARK   10  A    between atoms: N_10  and  C_26 
REMARK   11  A    between atoms: C_11  and  C_12 
REMARK   12  A    between atoms: C_26  and  C_27 
ROOT
HETATM    1  N   UNL     1       6.556  27.883  55.268  1.00  0.00    -0.350 N 
ENDROOT
BRANCH   1   2
HETATM    2  C   UNL     1       5.719  28.210  54.184  1.00  0.00     0.170 C 
HETATM    3  S   UNL     1       4.221  28.963  54.321  1.00  0.00    -0.041 SA
BRANCH   2   4
HETATM    4  N   UNL     1       6.256  27.895  52.944  1.00  0.00    -0.367 N 
HETATM    5  H   UNL     1       7.251  28.057  52.845  1.00  0.00     0.161 HD
BRANCH   4   6
HETATM    6  C   UNL     1       5.657  26.993  51.973  1.00  0.00     0.123 C 
BRANCH   6   7
HETATM    7  C   UNL     1       5.402  27.694  50.643  1.00  0.00     0.047 C 
BRANCH   7   8
HETATM    8  C   UNL     1       3.936  28.091  50.537  1.00  0.00     0.236 C 
BRANCH   8   9
HETATM    9  N   UNL     1       3.224  27.433  49.364  1.00  0.00    -0.072 N 
HETATM   10  H   UNL     1       2.414  26.950  49.775  1.00  0.00     0.279 HD
BRANCH   9  11
HETATM   11  C   UNL     1       4.027  26.347  48.663  1.00  0.00     0.230 C 
HETATM   12  C   UNL     1       3.126  25.276  48.078  1.00  0.00     0.034 C 
ENDBRANCH   9  11
BRANCH   9  13
HETATM   13  C   UNL     1       2.641  28.399  48.343  1.00  0.00     0.230 C 
HETATM   14  C   UNL     1       3.717  28.986  47.448  1.00  0.00     0.034 C 
ENDBRANCH   9  13
ENDBRANCH   8   9
ENDBRANCH   7   8
ENDBRANCH   6   7
ENDBRANCH   4   6
ENDBRANCH   2   4
ENDBRANCH   1   2
BRANCH   1  15
HETATM   15  C   UNL     1       7.871  28.514  55.486  1.00  0.00     0.169 C 
BRANCH  15  16
HETATM   16  C   UNL     1       7.895  29.417  56.693  1.00  0.00     0.029 A 
HETATM   17  C   UNL     1       9.185  29.478  57.446  1.00  0.00     0.253 A 
HETATM   18  O   UNL     1      10.212  28.953  57.017  1.00  0.00    -0.268 OA
HETATM   19  N   UNL     1       9.206  30.187  58.616  1.00  0.00    -0.322 N 
HETATM   20  C   UNL     1       8.127  30.951  59.076  1.00  0.00     0.048 A 
HETATM   21  H   UNL     1      10.067  30.161  59.142  1.00  0.00     0.169 HD
HETATM   22  C   UNL     1       6.932  30.969  58.324  1.00  0.00    -0.006 A 
HETATM   23  C   UNL     1       8.262  31.695  60.249  1.00  0.00     0.070 A 
HETATM   24  C   UNL     1       5.853  31.750  58.750  1.00  0.00     0.053 A 
HETATM   25  C   UNL     1       6.847  30.147  57.116  1.00  0.00     0.028 A 
HETATM   26  C   UNL     1       6.011  32.483  59.908  1.00  0.00     0.106 A 
HETATM   27  C   UNL     1       7.180  32.456  60.635  1.00  0.00     0.107 A 
HETATM   28  O   UNL     1       5.077  33.299  60.465  1.00  0.00    -0.323 OA
HETATM   29  O   UNL     1       7.126  33.254  61.734  1.00  0.00    -0.323 OA
HETATM   30  C   UNL     1       5.781  33.769  61.635  1.00  0.00     0.352 A 
ENDBRANCH  15  16
ENDBRANCH   1  15
BRANCH   1  31
HETATM   31  C   UNL     1       6.280  26.702  56.117  1.00  0.00     0.164 C 
BRANCH  31  32
HETATM   32  C   UNL     1       7.173  25.510  55.851  1.00  0.00    -0.037 A 
HETATM   33  C   UNL     1       7.118  24.820  54.628  1.00  0.00     0.048 A 
HETATM   34  C   UNL     1       7.949  23.731  54.451  1.00  0.00     0.105 A 
HETATM   35  C   UNL     1       8.809  23.304  55.433  1.00  0.00     0.105 A 
HETATM   36  O   UNL     1       8.024  22.966  53.329  1.00  0.00    -0.323 OA
HETATM   37  O   UNL     1       9.530  22.216  55.057  1.00  0.00    -0.323 OA
HETATM   38  C   UNL     1       8.885  23.939  56.650  1.00  0.00     0.040 A 
HETATM   39  C   UNL     1       9.012  21.992  53.731  1.00  0.00     0.352 A 
HETATM   40  C   UNL     1       8.057  25.047  56.856  1.00  0.00     0.012 A 
ENDBRANCH  31  32
ENDBRANCH   1  31
TORSDOF 12
ENDMDL
MODEL 10
REMARK VINA RESULT:      -8.5      2.291      2.872
REMARK  12 active torsions:
REMARK  status: ('A' for Active; 'I' for Inactive)
REMARK    1  A    between atoms: C_2  and  N_3 
REMARK    2  A    between atoms: N_3  and  C_5 
REMARK    3  A    between atoms: N_3  and  C_37 
REMARK    4  A    between atoms: C_5  and  C_6 
REMARK    5  A    between atoms: C_6  and  C_7 
REMARK    6  A    between atoms: C_7  and  N_8 
REMARK    7  A    between atoms: N_8  and  C_9 
REMARK    8  A    between atoms: C_9  and  N_10 
REMARK    9  A    between atoms: N_10  and  C_11 
REMARK   10  A    between atoms: N_10  and  C_26 
REMARK   11  A    between atoms: C_11  and  C_12 
REMARK   12  A    between atoms: C_26  and  C_27 
ROOT
HETATM    1  N   UNL     1       5.872  28.989  55.404  1.00  0.00    -0.350 N 
ENDROOT
BRANCH   1   2
HETATM    2  C   UNL     1       5.215  29.220  54.180  1.00  0.00     0.170 C 
HETATM    3  S   UNL     1       3.708  29.950  54.023  1.00  0.00    -0.041 SA
BRANCH   2   4
HETATM    4  N   UNL     1       5.944  28.826  53.067  1.00  0.00    -0.367 N 
HETATM    5  H   UNL     1       6.913  29.122  53.053  1.00  0.00     0.161 HD
BRANCH   4   6
HETATM    6  C   UNL     1       5.602  27.723  52.185  1.00  0.00     0.123 C 
BRANCH   6   7
HETATM    7  C   UNL     1       5.408  28.196  50.748  1.00  0.00     0.047 C 
BRANCH   7   8
HETATM    8  C   UNL     1       3.937  28.487  50.490  1.00  0.00     0.236 C 
BRANCH   8   9
HETATM    9  N   UNL     1       3.243  27.392  49.692  1.00  0.00    -0.072 N 
HETATM   10  H   UNL     1       2.701  26.855  50.383  1.00  0.00     0.279 HD
BRANCH   9  11
HETATM   11  C   UNL     1       4.185  26.383  49.050  1.00  0.00     0.230 C 
HETATM   12  C   UNL     1       3.671  25.921  47.699  1.00  0.00     0.034 C 
ENDBRANCH   9  11
BRANCH   9  13
HETATM   13  C   UNL     1       2.225  27.883  48.676  1.00  0.00     0.230 C 
HETATM   14  C   UNL     1       1.486  29.113  49.172  1.00  0.00     0.034 C 
ENDBRANCH   9  13
ENDBRANCH   8   9
ENDBRANCH   7   8
ENDBRANCH   6   7
ENDBRANCH   4   6
ENDBRANCH   2   4
ENDBRANCH   1   2
BRANCH   1  15
HETATM   15  C   UNL     1       7.304  28.646  55.494  1.00  0.00     0.169 C 
BRANCH  15  16
HETATM   16  C   UNL     1       7.539  27.198  55.836  1.00  0.00     0.029 A 
HETATM   17  C   UNL     1       8.015  26.917  57.225  1.00  0.00     0.253 A 
HETATM   18  O   UNL     1       8.057  27.794  58.087  1.00  0.00    -0.268 OA
HETATM   19  N   UNL     1       8.360  25.628  57.531  1.00  0.00    -0.322 N 
HETATM   20  C   UNL     1       8.175  24.550  56.657  1.00  0.00     0.048 A 
HETATM   21  H   UNL     1       8.740  25.471  58.452  1.00  0.00     0.169 HD
HETATM   22  C   UNL     1       7.642  24.795  55.372  1.00  0.00    -0.006 A 
HETATM   23  C   UNL     1       8.494  23.259  57.080  1.00  0.00     0.070 A 
HETATM   24  C   UNL     1       7.421  23.729  54.495  1.00  0.00     0.053 A 
HETATM   25  C   UNL     1       7.350  26.175  54.982  1.00  0.00     0.028 A 
HETATM   26  C   UNL     1       7.737  22.461  54.937  1.00  0.00     0.106 A 
HETATM   27  C   UNL     1       8.259  22.233  56.191  1.00  0.00     0.107 A 
HETATM   28  O   UNL     1       7.584  21.311  54.227  1.00  0.00    -0.323 OA
HETATM   29  O   UNL     1       8.490  20.915  56.425  1.00  0.00    -0.323 OA
HETATM   30  C   UNL     1       8.083  20.335  55.167  1.00  0.00     0.352 A 
ENDBRANCH  15  16
ENDBRANCH   1  15
BRANCH   1  31
HETATM   31  C   UNL     1       5.110  28.828  56.662  1.00  0.00     0.164 C 
BRANCH  31  32
HETATM   32  C   UNL     1       5.079  30.057  57.544  1.00  0.00    -0.037 A 
HETATM   33  C   UNL     1       3.862  30.604  57.985  1.00  0.00     0.048 A 
HETATM   34  C   UNL     1       3.900  31.735  58.777  1.00  0.00     0.105 A 
HETATM   35  C   UNL     1       5.083  32.338  59.129  1.00  0.00     0.105 A 
HETATM   36  O   UNL     1       2.819  32.379  59.291  1.00  0.00    -0.323 OA
HETATM   37  O   UNL     1       4.897  33.438  59.905  1.00  0.00    -0.323 OA
HETATM   38  C   UNL     1       6.296  31.846  58.707  1.00  0.00     0.040 A 
HETATM   39  C   UNL     1       3.458  33.472  59.986  1.00  0.00     0.352 A 
HETATM   40  C   UNL     1       6.288  30.700  57.907  1.00  0.00     0.012 A 
ENDBRANCH  31  32
ENDBRANCH   1  31
TORSDOF 12
ENDMDL
