MODEL 1
REMARK VINA RESULT:      -8.4      0.000      0.000
REMARK  7 active torsions:
REMARK  status: ('A' for Active; 'I' for Inactive)
REMARK    1  A    between atoms: O_2  and  C_3 
REMARK    2  A    between atoms: C_5  and  C_6 
REMARK    3  A    between atoms: C_10  and  N_11 
REMARK    4  A    between atoms: N_11  and  C_12 
REMARK    5  A    between atoms: C_12  and  S_13 
REMARK    6  A    between atoms: N_15  and  C_17 
REMARK    7  A    between atoms: C_17  and  C_18 
ROOT
HETATM    1  C   UNL     1       7.593  25.169  56.015  1.00  0.00     0.064 A 
HETATM    2  N   UNL     1       8.242  25.186  57.226  1.00  0.00    -0.276 N 
HETATM    3  H   UNL     1       8.890  24.495  57.589  1.00  0.00     0.189 HD
HETATM    4  N   UNL     1       7.956  26.253  57.998  1.00  0.00    -0.156 NA
HETATM    5  C   UNL     1       7.122  26.973  57.248  1.00  0.00     0.151 A 
HETATM    6  C   UNL     1       6.875  26.352  56.007  1.00  0.00     0.084 A 
ENDROOT
BRANCH   5   7
HETATM    7  N   UNL     1       6.548  28.137  57.599  1.00  0.00    -0.320 N 
HETATM    8  H   UNL     1       5.546  28.183  57.733  1.00  0.00     0.169 HD
BRANCH   7   9
HETATM    9  C   UNL     1       7.164  29.389  57.810  1.00  0.00     0.141 C 
HETATM   10  N   UNL     1       8.411  29.429  58.219  1.00  0.00    -0.365 N 
HETATM   11  H   UNL     1       8.839  28.508  58.356  1.00  0.00     0.162 HD
BRANCH   9  12
HETATM   12  S   UNL     1       6.205  30.783  57.494  1.00  0.00    -0.099 SA
HETATM   13  C   UNL     1       5.421  30.268  55.950  1.00  0.00     0.099 C 
ENDBRANCH   9  12
BRANCH  10  14
HETATM   14  C   UNL     1       9.195  30.635  58.454  1.00  0.00     0.186 C 
BRANCH  14  15
HETATM   15  C   UNL     1       9.140  31.023  59.889  1.00  0.00     0.070 A 
HETATM   16  O   UNL     1       9.069  30.021  60.817  1.00  0.00    -0.325 OA
HETATM   17  C   UNL     1       9.038  30.613  62.038  1.00  0.00     0.142 A 
HETATM   18  C   UNL     1       9.086  31.980  61.914  1.00  0.00     0.027 A 
HETATM   19  C   UNL     1       9.152  32.249  60.525  1.00  0.00     0.036 A 
ENDBRANCH  14  15
ENDBRANCH  10  14
ENDBRANCH   7   9
ENDBRANCH   5   7
BRANCH   1  20
HETATM   20  C   UNL     1       7.692  24.096  55.020  1.00  0.00    -0.005 A 
HETATM   21  C   UNL     1       7.746  22.756  55.434  1.00  0.00     0.050 A 
HETATM   22  C   UNL     1       7.889  21.706  54.518  1.00  0.00     0.069 A 
HETATM   23  C   UNL     1       7.955  21.992  53.158  1.00  0.00     0.037 A 
HETATM   24  C   UNL     1       7.893  23.317  52.724  1.00  0.00     0.004 A 
HETATM   25  C   UNL     1       7.767  24.361  53.646  1.00  0.00     0.014 A 
BRANCH  22  26
HETATM   26  O   UNL     1       7.945  20.462  55.084  1.00  0.00    -0.356 OA
HETATM   27  C   UNL     1       8.816  20.302  56.197  1.00  0.00     0.210 C 
ENDBRANCH  22  26
ENDBRANCH   1  20
TORSDOF 7
ENDMDL
MODEL 2
REMARK VINA RESULT:      -7.9      2.307      2.916
REMARK  7 active torsions:
REMARK  status: ('A' for Active; 'I' for Inactive)
REMARK    1  A    between atoms: O_2  and  C_3 
REMARK    2  A    between atoms: C_5  and  C_6 
REMARK    3  A    between atoms: C_10  and  N_11 
REMARK    4  A    between atoms: N_11  and  C_12 
REMARK    5  A    between atoms: C_12  and  S_13 
REMARK    6  A    between atoms: N_15  and  C_17 
REMARK    7  A    between atoms: C_17  and  C_18 
ROOT
HETATM    1  C   UNL     1       7.037  24.465  54.164  1.00  0.00     0.064 A 
HETATM    2  N   UNL     1       7.716  25.503  53.574  1.00  0.00    -0.276 N 
HETATM    3  H   UNL     1       8.553  25.449  53.002  1.00  0.00     0.189 HD
HETATM    4  N   UNL     1       7.187  26.721  53.806  1.00  0.00    -0.156 NA
HETATM    5  C   UNL     1       6.106  26.461  54.542  1.00  0.00     0.151 A 
HETATM    6  C   UNL     1       5.962  25.080  54.781  1.00  0.00     0.084 A 
ENDROOT
BRANCH   5   7
HETATM    7  N   UNL     1       5.248  27.373  55.033  1.00  0.00    -0.320 N 
HETATM    8  H   UNL     1       4.289  27.385  54.710  1.00  0.00     0.169 HD
BRANCH   7   9
HETATM    9  C   UNL     1       5.497  28.389  55.980  1.00  0.00     0.141 C 
HETATM   10  N   UNL     1       6.673  28.452  56.558  1.00  0.00    -0.365 N 
HETATM   11  H   UNL     1       7.330  27.724  56.258  1.00  0.00     0.162 HD
BRANCH   9  12
HETATM   12  S   UNL     1       4.207  29.486  56.290  1.00  0.00    -0.099 SA
HETATM   13  C   UNL     1       3.881  30.055  54.606  1.00  0.00     0.099 C 
ENDBRANCH   9  12
BRANCH  10  14
HETATM   14  C   UNL     1       7.096  29.453  57.531  1.00  0.00     0.186 C 
BRANCH  14  15
HETATM   15  C   UNL     1       8.543  29.757  57.371  1.00  0.00     0.070 A 
HETATM   16  O   UNL     1       9.079  30.738  58.159  1.00  0.00    -0.325 OA
HETATM   17  C   UNL     1      10.395  30.827  57.843  1.00  0.00     0.142 A 
HETATM   18  C   UNL     1      10.719  29.921  56.862  1.00  0.00     0.027 A 
HETATM   19  C   UNL     1       9.523  29.228  56.554  1.00  0.00     0.036 A 
ENDBRANCH  14  15
ENDBRANCH  10  14
ENDBRANCH   7   9
ENDBRANCH   5   7
BRANCH   1  20
HETATM   20  C   UNL     1       7.437  23.055  54.107  1.00  0.00    -0.005 A 
HETATM   21  C   UNL     1       7.558  22.310  55.291  1.00  0.00     0.050 A 
HETATM   22  C   UNL     1       7.984  20.976  55.282  1.00  0.00     0.069 A 
HETATM   23  C   UNL     1       8.272  20.360  54.069  1.00  0.00     0.037 A 
HETATM   24  C   UNL     1       8.149  21.080  52.879  1.00  0.00     0.004 A 
HETATM   25  C   UNL     1       7.739  22.417  52.897  1.00  0.00     0.014 A 
BRANCH  22  26
HETATM   26  O   UNL     1       8.068  20.398  56.519  1.00  0.00    -0.356 OA
HETATM   27  C   UNL     1       8.350  21.263  57.613  1.00  0.00     0.210 C 
ENDBRANCH  22  26
ENDBRANCH   1  20
TORSDOF 7
ENDMDL
MODEL 3
REMARK VINA RESULT:      -7.7      5.025      7.880
REMARK  7 active torsions:
REMARK  status: ('A' for Active; 'I' for Inactive)
REMARK    1  A    between atoms: O_2  and  C_3 
REMARK    2  A    between atoms: C_5  and  C_6 
REMARK    3  A    between atoms: C_10  and  N_11 
REMARK    4  A    between atoms: N_11  and  C_12 
REMARK    5  A    between atoms: C_12  and  S_13 
REMARK    6  A    between atoms: N_15  and  C_17 
REMARK    7  A    between atoms: C_17  and  C_18 
ROOT
HETATM    1  C   UNL     1       6.886  24.043  53.947  1.00  0.00     0.064 A 
HETATM    2  N   UNL     1       7.486  25.180  54.429  1.00  0.00    -0.276 N 
HETATM    3  H   UNL     1       8.403  25.262  54.857  1.00  0.00     0.189 HD
HETATM    4  N   UNL     1       6.741  26.298  54.312  1.00  0.00    -0.156 NA
HETATM    5  C   UNL     1       5.634  25.878  53.699  1.00  0.00     0.151 A 
HETATM    6  C   UNL     1       5.680  24.493  53.441  1.00  0.00     0.084 A 
ENDROOT
BRANCH   5   7
HETATM    7  N   UNL     1       4.576  26.640  53.371  1.00  0.00    -0.320 N 
HETATM    8  H   UNL     1       3.708  26.543  53.885  1.00  0.00     0.169 HD
BRANCH   7   9
HETATM    9  C   UNL     1       4.474  27.605  52.347  1.00  0.00     0.141 C 
HETATM   10  N   UNL     1       4.394  27.208  51.099  1.00  0.00    -0.365 N 
HETATM   11  H   UNL     1       4.416  26.190  50.978  1.00  0.00     0.162 HD
BRANCH   9  12
HETATM   12  S   UNL     1       4.456  29.254  52.841  1.00  0.00    -0.099 SA
HETATM   13  C   UNL     1       4.097  29.040  54.599  1.00  0.00     0.099 C 
ENDBRANCH   9  12
BRANCH  10  14
HETATM   14  C   UNL     1       4.256  28.074  49.933  1.00  0.00     0.186 C 
BRANCH  14  15
HETATM   15  C   UNL     1       3.174  27.579  49.040  1.00  0.00     0.070 A 
HETATM   16  O   UNL     1       3.468  26.544  48.197  1.00  0.00    -0.325 OA
HETATM   17  C   UNL     1       2.337  26.267  47.499  1.00  0.00     0.142 A 
HETATM   18  C   UNL     1       1.319  27.109  47.876  1.00  0.00     0.027 A 
HETATM   19  C   UNL     1       1.857  27.959  48.873  1.00  0.00     0.036 A 
ENDBRANCH  14  15
ENDBRANCH  10  14
ENDBRANCH   7   9
ENDBRANCH   5   7
BRANCH   1  20
HETATM   20  C   UNL     1       7.463  22.696  54.004  1.00  0.00    -0.005 A 
HETATM   21  C   UNL     1       7.790  22.123  55.244  1.00  0.00     0.050 A 
HETATM   22  C   UNL     1       8.387  20.860  55.338  1.00  0.00     0.069 A 
HETATM   23  C   UNL     1       8.642  20.138  54.176  1.00  0.00     0.037 A 
HETATM   24  C   UNL     1       8.317  20.685  52.933  1.00  0.00     0.004 A 
HETATM   25  C   UNL     1       7.736  21.955  52.847  1.00  0.00     0.014 A 
BRANCH  22  26
HETATM   26  O   UNL     1       8.659  20.453  56.615  1.00  0.00    -0.356 OA
HETATM   27  C   UNL     1       8.306  21.349  57.662  1.00  0.00     0.210 C 
ENDBRANCH  22  26
ENDBRANCH   1  20
TORSDOF 7
ENDMDL
MODEL 4
REMARK VINA RESULT:      -7.7      5.388      8.115
REMARK  7 active torsions:
REMARK  status: ('A' for Active; 'I' for Inactive)
REMARK    1  A    between atoms: O_2  and  C_3 
REMARK    2  A    between atoms: C_5  and  C_6 
REMARK    3  A    between atoms: C_10  and  N_11 
REMARK    4  A    between atoms: N_11  and  C_12 
REMARK    5  A    between atoms: C_12  and  S_13 
REMARK    6  A    between atoms: N_15  and  C_17 
REMARK    7  A    between atoms: C_17  and  C_18 
ROOT
HETATM    1  C   UNL     1       6.803  24.596  54.489  1.00  0.00     0.064 A 
HETATM    2  N   UNL     1       7.469  25.728  54.086  1.00  0.00    -0.276 N 
HETATM    3  H   UNL     1       8.466  25.909  54.136  1.00  0.00     0.189 HD
HETATM    4  N   UNL     1       6.676  26.692  53.576  1.00  0.00    -0.156 NA
HETATM    5  C   UNL     1       5.458  26.153  53.616  1.00  0.00     0.151 A 
HETATM    6  C   UNL     1       5.484  24.853  54.161  1.00  0.00     0.084 A 
ENDROOT
BRANCH   5   7
HETATM    7  N   UNL     1       4.318  26.746  53.218  1.00  0.00    -0.320 N 
HETATM    8  H   UNL     1       3.467  26.606  53.748  1.00  0.00     0.169 HD
BRANCH   7   9
HETATM    9  C   UNL     1       4.108  27.576  52.097  1.00  0.00     0.141 C 
HETATM   10  N   UNL     1       4.594  27.216  50.933  1.00  0.00    -0.365 N 
HETATM   11  H   UNL     1       5.105  26.327  50.947  1.00  0.00     0.162 HD
BRANCH   9  12
HETATM   12  S   UNL     1       3.204  29.017  52.363  1.00  0.00    -0.099 SA
HETATM   13  C   UNL     1       4.010  29.608  53.868  1.00  0.00     0.099 C 
ENDBRANCH   9  12
BRANCH  10  14
HETATM   14  C   UNL     1       4.440  27.944  49.678  1.00  0.00     0.186 C 
BRANCH  14  15
HETATM   15  C   UNL     1       3.643  27.148  48.707  1.00  0.00     0.070 A 
HETATM   16  O   UNL     1       2.316  27.447  48.576  1.00  0.00    -0.325 OA
HETATM   17  C   UNL     1       1.809  26.605  47.640  1.00  0.00     0.142 A 
HETATM   18  C   UNL     1       2.789  25.766  47.164  1.00  0.00     0.027 A 
HETATM   19  C   UNL     1       3.976  26.114  47.853  1.00  0.00     0.036 A 
ENDBRANCH  14  15
ENDBRANCH  10  14
ENDBRANCH   7   9
ENDBRANCH   5   7
BRANCH   1  20
HETATM   20  C   UNL     1       7.428  23.430  55.123  1.00  0.00    -0.005 A 
HETATM   21  C   UNL     1       7.642  22.258  54.381  1.00  0.00     0.050 A 
HETATM   22  C   UNL     1       8.192  21.108  54.962  1.00  0.00     0.069 A 
HETATM   23  C   UNL     1       8.559  21.131  56.304  1.00  0.00     0.037 A 
HETATM   24  C   UNL     1       8.363  22.290  57.057  1.00  0.00     0.004 A 
HETATM   25  C   UNL     1       7.799  23.429  56.474  1.00  0.00     0.014 A 
BRANCH  22  26
HETATM   26  O   UNL     1       8.318  20.046  54.110  1.00  0.00    -0.356 OA
HETATM   27  C   UNL     1       8.357  20.341  52.719  1.00  0.00     0.210 C 
ENDBRANCH  22  26
ENDBRANCH   1  20
TORSDOF 7
ENDMDL
MODEL 5
REMARK VINA RESULT:      -7.7      1.956      2.559
REMARK  7 active torsions:
REMARK  status: ('A' for Active; 'I' for Inactive)
REMARK    1  A    between atoms: O_2  and  C_3 
REMARK    2  A    between atoms: C_5  and  C_6 
REMARK    3  A    between atoms: C_10  and  N_11 
REMARK    4  A    between atoms: N_11  and  C_12 
REMARK    5  A    between atoms: C_12  and  S_13 
REMARK    6  A    between atoms: N_15  and  C_17 
REMARK    7  A    between atoms: C_17  and  C_18 
ROOT
HETATM    1  C   UNL     1       7.422  26.856  55.678  1.00  0.00     0.064 A 
HETATM    2  N   UNL     1       6.517  27.890  55.650  1.00  0.00    -0.276 N 
HETATM    3  H   UNL     1       5.752  28.024  54.997  1.00  0.00     0.189 HD
HETATM    4  N   UNL     1       6.699  28.818  56.610  1.00  0.00    -0.156 NA
HETATM    5  C   UNL     1       7.736  28.352  57.308  1.00  0.00     0.151 A 
HETATM    6  C   UNL     1       8.211  27.136  56.779  1.00  0.00     0.084 A 
ENDROOT
BRANCH   5   7
HETATM    7  N   UNL     1       8.302  28.947  58.373  1.00  0.00    -0.320 N 
HETATM    8  H   UNL     1       8.835  28.394  59.033  1.00  0.00     0.169 HD
BRANCH   7   9
HETATM    9  C   UNL     1       8.252  30.307  58.747  1.00  0.00     0.141 C 
HETATM   10  N   UNL     1       7.139  30.795  59.242  1.00  0.00    -0.365 N 
HETATM   11  H   UNL     1       6.375  30.114  59.312  1.00  0.00     0.162 HD
BRANCH   9  12
HETATM   12  S   UNL     1       9.693  31.221  58.522  1.00  0.00    -0.099 SA
HETATM   13  C   UNL     1      10.570  30.129  57.380  1.00  0.00     0.099 C 
ENDBRANCH   9  12
BRANCH  10  14
HETATM   14  C   UNL     1       6.934  32.164  59.700  1.00  0.00     0.186 C 
BRANCH  14  15
HETATM   15  C   UNL     1       7.173  32.266  61.165  1.00  0.00     0.070 A 
HETATM   16  O   UNL     1       6.086  32.430  61.978  1.00  0.00    -0.325 OA
HETATM   17  C   UNL     1       6.548  32.488  63.252  1.00  0.00     0.142 A 
HETATM   18  C   UNL     1       7.917  32.365  63.276  1.00  0.00     0.027 A 
HETATM   19  C   UNL     1       8.324  32.221  61.928  1.00  0.00     0.036 A 
ENDBRANCH  14  15
ENDBRANCH  10  14
ENDBRANCH   7   9
ENDBRANCH   5   7
BRANCH   1  20
HETATM   20  C   UNL     1       7.471  25.752  54.713  1.00  0.00    -0.005 A 
HETATM   21  C   UNL     1       7.428  24.423  55.162  1.00  0.00     0.050 A 
HETATM   22  C   UNL     1       7.520  23.342  54.277  1.00  0.00     0.069 A 
HETATM   23  C   UNL     1       7.634  23.586  52.912  1.00  0.00     0.037 A 
HETATM   24  C   UNL     1       7.670  24.901  52.443  1.00  0.00     0.004 A 
HETATM   25  C   UNL     1       7.593  25.975  53.335  1.00  0.00     0.014 A 
BRANCH  22  26
HETATM   26  O   UNL     1       7.481  22.113  54.876  1.00  0.00    -0.356 OA
HETATM   27  C   UNL     1       8.187  21.974  56.102  1.00  0.00     0.210 C 
ENDBRANCH  22  26
ENDBRANCH   1  20
TORSDOF 7
ENDMDL
MODEL 6
REMARK VINA RESULT:      -7.5      8.237     14.115
REMARK  7 active torsions:
REMARK  status: ('A' for Active; 'I' for Inactive)
REMARK    1  A    between atoms: O_2  and  C_3 
REMARK    2  A    between atoms: C_5  and  C_6 
REMARK    3  A    between atoms: C_10  and  N_11 
REMARK    4  A    between atoms: N_11  and  C_12 
REMARK    5  A    between atoms: C_12  and  S_13 
REMARK    6  A    between atoms: N_15  and  C_17 
REMARK    7  A    between atoms: C_17  and  C_18 
ROOT
HETATM    1  C   UNL     1       6.200  34.462  67.808  1.00  0.00     0.064 A 
HETATM    2  N   UNL     1       7.140  34.300  66.819  1.00  0.00    -0.276 N 
HETATM    3  H   UNL     1       8.144  34.420  66.895  1.00  0.00     0.189 HD
HETATM    4  N   UNL     1       6.635  33.948  65.620  1.00  0.00    -0.156 NA
HETATM    5  C   UNL     1       5.325  33.841  65.847  1.00  0.00     0.151 A 
HETATM    6  C   UNL     1       5.007  34.137  67.188  1.00  0.00     0.084 A 
ENDROOT
BRANCH   5   7
HETATM    7  N   UNL     1       4.390  33.518  64.937  1.00  0.00    -0.320 N 
HETATM    8  H   UNL     1       3.439  33.339  65.235  1.00  0.00     0.169 HD
BRANCH   7   9
HETATM    9  C   UNL     1       4.540  33.364  63.542  1.00  0.00     0.141 C 
HETATM   10  N   UNL     1       5.618  32.779  63.075  1.00  0.00    -0.365 N 
HETATM   11  H   UNL     1       6.280  32.478  63.797  1.00  0.00     0.162 HD
BRANCH   9  12
HETATM   12  S   UNL     1       3.261  33.963  62.558  1.00  0.00    -0.099 SA
HETATM   13  C   UNL     1       3.829  35.662  62.324  1.00  0.00     0.099 C 
ENDBRANCH   9  12
BRANCH  10  14
HETATM   14  C   UNL     1       5.909  32.519  61.670  1.00  0.00     0.186 C 
BRANCH  14  15
HETATM   15  C   UNL     1       7.365  32.284  61.473  1.00  0.00     0.070 A 
HETATM   16  O   UNL     1       7.863  32.402  60.206  1.00  0.00    -0.325 OA
HETATM   17  C   UNL     1       9.196  32.153  60.278  1.00  0.00     0.142 A 
HETATM   18  C   UNL     1       9.565  31.875  61.572  1.00  0.00     0.027 A 
HETATM   19  C   UNL     1       8.384  31.958  62.347  1.00  0.00     0.036 A 
ENDBRANCH  14  15
ENDBRANCH  10  14
ENDBRANCH   7   9
ENDBRANCH   5   7
BRANCH   1  20
HETATM   20  C   UNL     1       6.486  34.891  69.181  1.00  0.00    -0.005 A 
HETATM   21  C   UNL     1       5.722  34.392  70.248  1.00  0.00     0.050 A 
HETATM   22  C   UNL     1       5.932  34.814  71.566  1.00  0.00     0.069 A 
HETATM   23  C   UNL     1       6.940  35.735  71.835  1.00  0.00     0.037 A 
HETATM   24  C   UNL     1       7.717  36.238  70.790  1.00  0.00     0.004 A 
HETATM   25  C   UNL     1       7.491  35.823  69.473  1.00  0.00     0.014 A 
BRANCH  22  26
HETATM   26  O   UNL     1       5.093  34.247  72.485  1.00  0.00    -0.356 OA
HETATM   27  C   UNL     1       5.012  34.881  73.756  1.00  0.00     0.210 C 
ENDBRANCH  22  26
ENDBRANCH   1  20
TORSDOF 7
ENDMDL
MODEL 7
REMARK VINA RESULT:      -7.5      1.484      1.643
REMARK  7 active torsions:
REMARK  status: ('A' for Active; 'I' for Inactive)
REMARK    1  A    between atoms: O_2  and  C_3 
REMARK    2  A    between atoms: C_5  and  C_6 
REMARK    3  A    between atoms: C_10  and  N_11 
REMARK    4  A    between atoms: N_11  and  C_12 
REMARK    5  A    between atoms: C_12  and  S_13 
REMARK    6  A    between atoms: N_15  and  C_17 
REMARK    7  A    between atoms: C_17  and  C_18 
ROOT
HETATM    1  C   UNL     1       7.441  26.142  56.305  1.00  0.00     0.064 A 
HETATM    2  N   UNL     1       8.306  26.646  57.247  1.00  0.00    -0.276 N 
HETATM    3  H   UNL     1       9.228  26.298  57.489  1.00  0.00     0.189 HD
HETATM    4  N   UNL     1       7.843  27.723  57.911  1.00  0.00    -0.156 NA
HETATM    5  C   UNL     1       6.651  27.949  57.357  1.00  0.00     0.151 A 
HETATM    6  C   UNL     1       6.362  27.007  56.350  1.00  0.00     0.084 A 
ENDROOT
BRANCH   5   7
HETATM    7  N   UNL     1       5.793  28.926  57.700  1.00  0.00    -0.320 N 
HETATM    8  H   UNL     1       4.810  28.714  57.818  1.00  0.00     0.169 HD
BRANCH   7   9
HETATM    9  C   UNL     1       6.065  30.293  57.921  1.00  0.00     0.141 C 
HETATM   10  N   UNL     1       6.904  30.634  58.870  1.00  0.00    -0.365 N 
HETATM   11  H   UNL     1       7.300  29.842  59.387  1.00  0.00     0.162 HD
BRANCH   9  12
HETATM   12  S   UNL     1       5.258  31.415  56.894  1.00  0.00    -0.099 SA
HETATM   13  C   UNL     1       4.060  30.308  56.117  1.00  0.00     0.099 C 
ENDBRANCH   9  12
BRANCH  10  14
HETATM   14  C   UNL     1       7.311  31.994  59.204  1.00  0.00     0.186 C 
BRANCH  14  15
HETATM   15  C   UNL     1       7.548  32.124  60.667  1.00  0.00     0.070 A 
HETATM   16  O   UNL     1       6.580  32.730  61.417  1.00  0.00    -0.325 OA
HETATM   17  C   UNL     1       7.012  32.725  62.704  1.00  0.00     0.142 A 
HETATM   18  C   UNL     1       8.246  32.125  62.796  1.00  0.00     0.027 A 
HETATM   19  C   UNL     1       8.596  31.736  61.480  1.00  0.00     0.036 A 
ENDBRANCH  14  15
ENDBRANCH  10  14
ENDBRANCH   7   9
ENDBRANCH   5   7
BRANCH   1  20
HETATM   20  C   UNL     1       7.686  24.949  55.488  1.00  0.00    -0.005 A 
HETATM   21  C   UNL     1       8.146  23.767  56.089  1.00  0.00     0.050 A 
HETATM   22  C   UNL     1       8.437  22.622  55.338  1.00  0.00     0.069 A 
HETATM   23  C   UNL     1       8.245  22.644  53.960  1.00  0.00     0.037 A 
HETATM   24  C   UNL     1       7.780  23.807  53.342  1.00  0.00     0.004 A 
HETATM   25  C   UNL     1       7.507  24.951  54.098  1.00  0.00     0.014 A 
BRANCH  22  26
HETATM   26  O   UNL     1       8.892  21.561  56.071  1.00  0.00    -0.356 OA
HETATM   27  C   UNL     1       8.290  20.299  55.813  1.00  0.00     0.210 C 
ENDBRANCH  22  26
ENDBRANCH   1  20
TORSDOF 7
ENDMDL
MODEL 8
REMARK VINA RESULT:      -7.3      2.133      3.106
REMARK  7 active torsions:
REMARK  status: ('A' for Active; 'I' for Inactive)
REMARK    1  A    between atoms: O_2  and  C_3 
REMARK    2  A    between atoms: C_5  and  C_6 
REMARK    3  A    between atoms: C_10  and  N_11 
REMARK    4  A    between atoms: N_11  and  C_12 
REMARK    5  A    between atoms: C_12  and  S_13 
REMARK    6  A    between atoms: N_15  and  C_17 
REMARK    7  A    between atoms: C_17  and  C_18 
ROOT
HETATM    1  C   UNL     1       7.525  24.495  54.750  1.00  0.00     0.064 A 
HETATM    2  N   UNL     1       7.890  24.981  53.519  1.00  0.00    -0.276 N 
HETATM    3  H   UNL     1       8.443  24.513  52.808  1.00  0.00     0.189 HD
HETATM    4  N   UNL     1       7.454  26.229  53.258  1.00  0.00    -0.156 NA
HETATM    5  C   UNL     1       6.749  26.551  54.343  1.00  0.00     0.151 A 
HETATM    6  C   UNL     1       6.752  25.508  55.290  1.00  0.00     0.084 A 
ENDROOT
BRANCH   5   7
HETATM    7  N   UNL     1       6.119  27.720  54.558  1.00  0.00    -0.320 N 
HETATM    8  H   UNL     1       5.433  28.051  53.891  1.00  0.00     0.169 HD
BRANCH   7   9
HETATM    9  C   UNL     1       6.287  28.622  55.630  1.00  0.00     0.141 C 
HETATM   10  N   UNL     1       7.137  28.329  56.586  1.00  0.00    -0.365 N 
HETATM   11  H   UNL     1       7.619  27.433  56.462  1.00  0.00     0.162 HD
BRANCH   9  12
HETATM   12  S   UNL     1       5.345  30.062  55.581  1.00  0.00    -0.099 SA
HETATM   13  C   UNL     1       3.852  29.477  56.413  1.00  0.00     0.099 C 
ENDBRANCH   9  12
BRANCH  10  14
HETATM   14  C   UNL     1       7.445  29.164  57.742  1.00  0.00     0.186 C 
BRANCH  14  15
HETATM   15  C   UNL     1       8.839  29.676  57.660  1.00  0.00     0.070 A 
HETATM   16  O   UNL     1       9.724  28.991  56.876  1.00  0.00    -0.325 OA
HETATM   17  C   UNL     1      10.911  29.644  56.952  1.00  0.00     0.142 A 
HETATM   18  C   UNL     1      10.807  30.740  57.774  1.00  0.00     0.027 A 
HETATM   19  C   UNL     1       9.468  30.764  58.234  1.00  0.00     0.036 A 
ENDBRANCH  14  15
ENDBRANCH  10  14
ENDBRANCH   7   9
ENDBRANCH   5   7
BRANCH   1  20
HETATM   20  C   UNL     1       7.916  23.189  55.292  1.00  0.00    -0.005 A 
HETATM   21  C   UNL     1       8.062  22.087  54.435  1.00  0.00     0.050 A 
HETATM   22  C   UNL     1       8.387  20.815  54.919  1.00  0.00     0.069 A 
HETATM   23  C   UNL     1       8.596  20.637  56.283  1.00  0.00     0.037 A 
HETATM   24  C   UNL     1       8.465  21.721  57.152  1.00  0.00     0.004 A 
HETATM   25  C   UNL     1       8.124  22.986  56.663  1.00  0.00     0.014 A 
BRANCH  22  26
HETATM   26  O   UNL     1       8.473  19.845  53.957  1.00  0.00    -0.356 OA
HETATM   27  C   UNL     1       8.415  20.279  52.604  1.00  0.00     0.210 C 
ENDBRANCH  22  26
ENDBRANCH   1  20
TORSDOF 7
ENDMDL
MODEL 9
REMARK VINA RESULT:      -7.2      2.940      9.851
REMARK  7 active torsions:
REMARK  status: ('A' for Active; 'I' for Inactive)
REMARK    1  A    between atoms: O_2  and  C_3 
REMARK    2  A    between atoms: C_5  and  C_6 
REMARK    3  A    between atoms: C_10  and  N_11 
REMARK    4  A    between atoms: N_11  and  C_12 
REMARK    5  A    between atoms: C_12  and  S_13 
REMARK    6  A    between atoms: N_15  and  C_17 
REMARK    7  A    between atoms: C_17  and  C_18 
ROOT
HETATM    1  C   UNL     1       7.627  31.688  61.098  1.00  0.00     0.064 A 
HETATM    2  N   UNL     1       8.497  30.627  61.165  1.00  0.00    -0.276 N 
HETATM    3  H   UNL     1       9.000  30.290  61.979  1.00  0.00     0.189 HD
HETATM    4  N   UNL     1       8.687  29.986  59.994  1.00  0.00    -0.156 NA
HETATM    5  C   UNL     1       7.885  30.630  59.147  1.00  0.00     0.151 A 
HETATM    6  C   UNL     1       7.198  31.683  59.783  1.00  0.00     0.084 A 
ENDROOT
BRANCH   5   7
HETATM    7  N   UNL     1       7.737  30.357  57.838  1.00  0.00    -0.320 N 
HETATM    8  H   UNL     1       8.214  30.925  57.149  1.00  0.00     0.169 HD
BRANCH   7   9
HETATM    9  C   UNL     1       6.957  29.347  57.237  1.00  0.00     0.141 C 
HETATM   10  N   UNL     1       7.154  28.096  57.581  1.00  0.00    -0.365 N 
HETATM   11  H   UNL     1       7.888  27.963  58.284  1.00  0.00     0.162 HD
BRANCH   9  12
HETATM   12  S   UNL     1       5.786  29.860  56.085  1.00  0.00    -0.099 SA
HETATM   13  C   UNL     1       4.512  30.484  57.205  1.00  0.00     0.099 C 
ENDBRANCH   9  12
BRANCH  10  14
HETATM   14  C   UNL     1       6.416  26.943  57.077  1.00  0.00     0.186 C 
BRANCH  14  15
HETATM   15  C   UNL     1       7.338  25.804  56.821  1.00  0.00     0.070 A 
HETATM   16  O   UNL     1       7.219  25.144  55.630  1.00  0.00    -0.325 OA
HETATM   17  C   UNL     1       8.158  24.164  55.623  1.00  0.00     0.142 A 
HETATM   18  C   UNL     1       8.881  24.180  56.792  1.00  0.00     0.027 A 
HETATM   19  C   UNL     1       8.352  25.239  57.569  1.00  0.00     0.036 A 
ENDBRANCH  14  15
ENDBRANCH  10  14
ENDBRANCH   7   9
ENDBRANCH   5   7
BRANCH   1  20
HETATM   20  C   UNL     1       7.293  32.576  62.217  1.00  0.00    -0.005 A 
HETATM   21  C   UNL     1       6.394  33.638  62.028  1.00  0.00     0.050 A 
HETATM   22  C   UNL     1       6.087  34.535  63.057  1.00  0.00     0.069 A 
HETATM   23  C   UNL     1       6.665  34.361  64.311  1.00  0.00     0.037 A 
HETATM   24  C   UNL     1       7.555  33.305  64.523  1.00  0.00     0.004 A 
HETATM   25  C   UNL     1       7.869  32.422  63.485  1.00  0.00     0.014 A 
BRANCH  22  26
HETATM   26  O   UNL     1       5.209  35.524  62.706  1.00  0.00    -0.356 OA
HETATM   27  C   UNL     1       4.209  35.185  61.753  1.00  0.00     0.210 C 
ENDBRANCH  22  26
ENDBRANCH   1  20
TORSDOF 7
ENDMDL
MODEL 10
REMARK VINA RESULT:      -7.1      2.157      9.030
REMARK  7 active torsions:
REMARK  status: ('A' for Active; 'I' for Inactive)
REMARK    1  A    between atoms: O_2  and  C_3 
REMARK    2  A    between atoms: C_5  and  C_6 
REMARK    3  A    between atoms: C_10  and  N_11 
REMARK    4  A    between atoms: N_11  and  C_12 
REMARK    5  A    between atoms: C_12  and  S_13 
REMARK    6  A    between atoms: N_15  and  C_17 
REMARK    7  A    between atoms: C_17  and  C_18 
ROOT
HETATM    1  C   UNL     1       8.453  30.051  58.516  1.00  0.00     0.064 A 
HETATM    2  N   UNL     1       9.653  29.794  57.898  1.00  0.00    -0.276 N 
HETATM    3  H   UNL     1      10.582  30.039  58.224  1.00  0.00     0.189 HD
HETATM    4  N   UNL     1       9.547  29.146  56.720  1.00  0.00    -0.156 NA
HETATM    5  C   UNL     1       8.237  28.943  56.587  1.00  0.00     0.151 A 
HETATM    6  C   UNL     1       7.517  29.473  57.677  1.00  0.00     0.084 A 
ENDROOT
BRANCH   5   7
HETATM    7  N   UNL     1       7.633  28.335  55.550  1.00  0.00    -0.320 N 
HETATM    8  H   UNL     1       7.608  28.790  54.646  1.00  0.00     0.169 HD
BRANCH   7   9
HETATM    9  C   UNL     1       6.974  27.088  55.529  1.00  0.00     0.141 C 
HETATM   10  N   UNL     1       7.553  26.047  56.080  1.00  0.00    -0.365 N 
HETATM   11  H   UNL     1       8.472  26.245  56.490  1.00  0.00     0.162 HD
BRANCH   9  12
HETATM   12  S   UNL     1       5.428  27.046  54.773  1.00  0.00    -0.099 SA
HETATM   13  C   UNL     1       4.542  28.216  55.827  1.00  0.00     0.099 C 
ENDBRANCH   9  12
BRANCH  10  14
HETATM   14  C   UNL     1       6.995  24.703  56.167  1.00  0.00     0.186 C 
BRANCH  14  15
HETATM   15  C   UNL     1       7.531  23.843  55.077  1.00  0.00     0.070 A 
HETATM   16  O   UNL     1       6.834  23.797  53.902  1.00  0.00    -0.325 OA
HETATM   17  C   UNL     1       7.512  22.965  53.071  1.00  0.00     0.142 A 
HETATM   18  C   UNL     1       8.636  22.473  53.692  1.00  0.00     0.027 A 
HETATM   19  C   UNL     1       8.650  23.039  54.990  1.00  0.00     0.036 A 
ENDBRANCH  14  15
ENDBRANCH  10  14
ENDBRANCH   7   9
ENDBRANCH   5   7
BRANCH   1  20
HETATM   20  C   UNL     1       8.294  30.785  59.776  1.00  0.00    -0.005 A 
HETATM   21  C   UNL     1       7.233  31.690  59.933  1.00  0.00     0.050 A 
HETATM   22  C   UNL     1       7.074  32.445  61.101  1.00  0.00     0.069 A 
HETATM   23  C   UNL     1       7.977  32.281  62.147  1.00  0.00     0.037 A 
HETATM   24  C   UNL     1       9.036  31.380  62.015  1.00  0.00     0.004 A 
HETATM   25  C   UNL     1       9.196  30.641  60.838  1.00  0.00     0.014 A 
BRANCH  22  26
HETATM   26  O   UNL     1       6.001  33.293  61.089  1.00  0.00    -0.356 OA
HETATM   27  C   UNL     1       5.155  33.271  62.232  1.00  0.00     0.210 C 
ENDBRANCH  22  26
ENDBRANCH   1  20
TORSDOF 7
ENDMDL
