MODEL 1
REMARK VINA RESULT:      -8.7      0.000      0.000
REMARK  3 active torsions:
REMARK  status: ('A' for Active; 'I' for Inactive)
REMARK    1  A    between atoms: C_4  and  C_5 
REMARK    2  A    between atoms: C_14  and  C_15 
REMARK       I    between atoms: C_15  and  N_16 
REMARK    3  A    between atoms: N_16  and  C_17 
ROOT
HETATM    1  C   UNL     1       6.495  27.592  54.946  1.00  0.00     0.222 C 
HETATM    2  N   UNL     1       5.406  28.564  54.949  1.00  0.00    -0.090 N 
HETATM    3  C   UNL     1       4.332  28.522  55.790  1.00  0.00     0.735 A 
HETATM    4  N   UNL     1       3.539  29.522  55.493  1.00  0.00     0.030 NA
HETATM    5  N   UNL     1       4.130  30.161  54.418  1.00  0.00     0.033 NA
HETATM    6  N   UNL     1       5.259  29.559  54.059  1.00  0.00     0.012 NA
HETATM    7  N   UNL     1       4.226  27.510  56.677  1.00  0.00    -0.191 N 
HETATM    8  C   UNL     1       5.079  26.409  56.668  1.00  0.00     0.037 C 
HETATM    9  C   UNL     1       4.632  25.240  57.510  1.00  0.00     0.070 C 
HETATM   10  C   UNL     1       6.177  26.418  55.870  1.00  0.00     0.064 C 
HETATM   11  H   UNL     1       3.372  27.440  57.225  1.00  0.00     0.184 HD
ENDROOT
BRANCH  10  12
HETATM   12  C   UNL     1       7.111  25.270  55.699  1.00  0.00     0.256 C 
HETATM   13  N   UNL     1       6.598  24.234  54.953  1.00  0.00    -0.323 N 
HETATM   14  H   UNL     1       5.635  24.315  54.650  1.00  0.00     0.169 HD
HETATM   15  O   UNL     1       8.204  25.326  56.249  1.00  0.00    -0.267 OA
BRANCH  13  16
HETATM   16  C   UNL     1       7.284  23.082  54.510  1.00  0.00     0.035 A 
HETATM   17  C   UNL     1       7.691  22.874  53.192  1.00  0.00     0.029 A 
HETATM   18  C   UNL     1       8.335  21.687  52.825  1.00  0.00     0.002 A 
HETATM   19  C   UNL     1       8.572  20.696  53.773  1.00  0.00     0.000 A 
HETATM   20  C   UNL     1       8.173  20.893  55.092  1.00  0.00     0.002 A 
HETATM   21  C   UNL     1       7.538  22.083  55.460  1.00  0.00     0.029 A 
ENDBRANCH  13  16
ENDBRANCH  10  12
BRANCH   1  22
HETATM   22  C   UNL     1       7.778  28.297  55.277  1.00  0.00     0.083 A 
HETATM   23  O   UNL     1       7.952  28.706  56.569  1.00  0.00    -0.317 OA
HETATM   24  C   UNL     1       9.139  29.369  56.625  1.00  0.00     0.049 A 
HETATM   25  C   UNL     1       9.499  29.971  57.924  1.00  0.00     0.076 C 
HETATM   26  C   UNL     1       9.752  29.348  55.391  1.00  0.00     0.035 A 
HETATM   27  C   UNL     1       8.880  28.651  54.522  1.00  0.00     0.038 A 
ENDBRANCH   1  22
TORSDOF 3
ENDMDL
MODEL 2
REMARK VINA RESULT:      -8.6      3.472      5.166
REMARK  3 active torsions:
REMARK  status: ('A' for Active; 'I' for Inactive)
REMARK    1  A    between atoms: C_4  and  C_5 
REMARK    2  A    between atoms: C_14  and  C_15 
REMARK       I    between atoms: C_15  and  N_16 
REMARK    3  A    between atoms: N_16  and  C_17 
ROOT
HETATM    1  C   UNL     1       7.407  29.721  58.357  1.00  0.00     0.222 C 
HETATM    2  N   UNL     1       7.863  30.919  59.057  1.00  0.00    -0.090 N 
HETATM    3  C   UNL     1       9.065  31.532  58.843  1.00  0.00     0.735 A 
HETATM    4  N   UNL     1       9.157  32.549  59.663  1.00  0.00     0.030 NA
HETATM    5  N   UNL     1       8.000  32.527  60.420  1.00  0.00     0.033 NA
HETATM    6  N   UNL     1       7.216  31.510  60.075  1.00  0.00     0.012 NA
HETATM    7  N   UNL     1       9.925  31.005  57.946  1.00  0.00    -0.191 N 
HETATM    8  C   UNL     1       9.718  29.767  57.342  1.00  0.00     0.037 C 
HETATM    9  C   UNL     1      10.911  29.195  56.618  1.00  0.00     0.070 C 
HETATM   10  C   UNL     1       8.527  29.134  57.501  1.00  0.00     0.064 C 
HETATM   11  H   UNL     1      10.852  31.416  57.873  1.00  0.00     0.184 HD
ENDROOT
BRANCH  10  12
HETATM   12  C   UNL     1       8.217  27.771  56.988  1.00  0.00     0.256 C 
HETATM   13  N   UNL     1       7.690  27.755  55.717  1.00  0.00    -0.323 N 
HETATM   14  H   UNL     1       7.507  28.650  55.280  1.00  0.00     0.169 HD
HETATM   15  O   UNL     1       8.411  26.815  57.728  1.00  0.00    -0.267 OA
BRANCH  13  16
HETATM   16  C   UNL     1       7.425  26.620  54.919  1.00  0.00     0.035 A 
HETATM   17  C   UNL     1       6.894  25.427  55.411  1.00  0.00     0.029 A 
HETATM   18  C   UNL     1       6.695  24.333  54.561  1.00  0.00     0.002 A 
HETATM   19  C   UNL     1       7.030  24.422  53.213  1.00  0.00     0.000 A 
HETATM   20  C   UNL     1       7.557  25.608  52.710  1.00  0.00     0.002 A 
HETATM   21  C   UNL     1       7.748  26.703  53.558  1.00  0.00     0.029 A 
ENDBRANCH  13  16
ENDBRANCH  10  12
BRANCH   1  22
HETATM   22  C   UNL     1       6.161  30.051  57.589  1.00  0.00     0.083 A 
HETATM   23  O   UNL     1       6.177  31.189  56.831  1.00  0.00    -0.317 OA
HETATM   24  C   UNL     1       4.939  31.323  56.281  1.00  0.00     0.049 A 
HETATM   25  C   UNL     1       4.702  32.537  55.475  1.00  0.00     0.076 C 
HETATM   26  C   UNL     1       4.145  30.255  56.639  1.00  0.00     0.035 A 
HETATM   27  C   UNL     1       4.933  29.431  57.476  1.00  0.00     0.038 A 
ENDBRANCH   1  22
TORSDOF 3
ENDMDL
MODEL 3
REMARK VINA RESULT:      -8.5      2.286      3.603
REMARK  3 active torsions:
REMARK  status: ('A' for Active; 'I' for Inactive)
REMARK    1  A    between atoms: C_4  and  C_5 
REMARK    2  A    between atoms: C_14  and  C_15 
REMARK       I    between atoms: C_15  and  N_16 
REMARK    3  A    between atoms: N_16  and  C_17 
ROOT
HETATM    1  C   UNL     1       5.273  26.827  54.878  1.00  0.00     0.222 C 
HETATM    2  N   UNL     1       5.036  28.255  55.070  1.00  0.00    -0.090 N 
HETATM    3  C   UNL     1       5.931  29.120  55.632  1.00  0.00     0.735 A 
HETATM    4  N   UNL     1       5.378  30.307  55.679  1.00  0.00     0.030 NA
HETATM    5  N   UNL     1       4.102  30.147  55.170  1.00  0.00     0.033 NA
HETATM    6  N   UNL     1       3.875  28.884  54.825  1.00  0.00     0.012 NA
HETATM    7  N   UNL     1       7.117  28.650  56.073  1.00  0.00    -0.191 N 
HETATM    8  C   UNL     1       7.412  27.291  56.135  1.00  0.00     0.037 C 
HETATM    9  C   UNL     1       8.640  26.933  56.935  1.00  0.00     0.070 C 
HETATM   10  C   UNL     1       6.567  26.394  55.563  1.00  0.00     0.064 C 
HETATM   11  H   UNL     1       7.728  29.288  56.578  1.00  0.00     0.184 HD
ENDROOT
BRANCH  10  12
HETATM   12  C   UNL     1       6.720  24.915  55.642  1.00  0.00     0.256 C 
HETATM   13  N   UNL     1       7.514  24.379  54.655  1.00  0.00    -0.323 N 
HETATM   14  H   UNL     1       7.862  25.011  53.946  1.00  0.00     0.169 HD
HETATM   15  O   UNL     1       6.117  24.317  56.524  1.00  0.00    -0.267 OA
BRANCH  13  16
HETATM   16  C   UNL     1       7.950  23.040  54.548  1.00  0.00     0.035 A 
HETATM   17  C   UNL     1       8.667  22.370  55.540  1.00  0.00     0.029 A 
HETATM   18  C   UNL     1       9.096  21.052  55.341  1.00  0.00     0.002 A 
HETATM   19  C   UNL     1       8.816  20.396  54.145  1.00  0.00     0.000 A 
HETATM   20  C   UNL     1       8.099  21.053  53.149  1.00  0.00     0.002 A 
HETATM   21  C   UNL     1       7.663  22.366  53.352  1.00  0.00     0.029 A 
ENDBRANCH  13  16
ENDBRANCH  10  12
BRANCH   1  22
HETATM   22  C   UNL     1       5.228  26.520  53.410  1.00  0.00     0.083 A 
HETATM   23  O   UNL     1       5.512  27.542  52.548  1.00  0.00    -0.317 OA
HETATM   24  C   UNL     1       5.351  27.061  51.286  1.00  0.00     0.049 A 
HETATM   25  C   UNL     1       5.533  28.025  50.182  1.00  0.00     0.076 C 
HETATM   26  C   UNL     1       5.014  25.725  51.328  1.00  0.00     0.035 A 
HETATM   27  C   UNL     1       4.942  25.373  52.696  1.00  0.00     0.038 A 
ENDBRANCH   1  22
TORSDOF 3
ENDMDL
MODEL 4
REMARK VINA RESULT:      -8.3      3.911      5.063
REMARK  3 active torsions:
REMARK  status: ('A' for Active; 'I' for Inactive)
REMARK    1  A    between atoms: C_4  and  C_5 
REMARK    2  A    between atoms: C_14  and  C_15 
REMARK       I    between atoms: C_15  and  N_16 
REMARK    3  A    between atoms: N_16  and  C_17 
ROOT
HETATM    1  C   UNL     1       5.661  28.234  51.222  1.00  0.00     0.222 C 
HETATM    2  N   UNL     1       5.521  29.311  50.246  1.00  0.00    -0.090 N 
HETATM    3  C   UNL     1       4.809  29.217  49.085  1.00  0.00     0.735 A 
HETATM    4  N   UNL     1       4.927  30.351  48.439  1.00  0.00     0.030 NA
HETATM    5  N   UNL     1       5.765  31.135  49.211  1.00  0.00     0.033 NA
HETATM    6  N   UNL     1       6.159  30.491  50.305  1.00  0.00     0.012 NA
HETATM    7  N   UNL     1       4.200  28.053  48.776  1.00  0.00    -0.191 N 
HETATM    8  C   UNL     1       4.397  26.883  49.505  1.00  0.00     0.037 C 
HETATM    9  C   UNL     1       3.897  25.621  48.847  1.00  0.00     0.070 C 
HETATM   10  C   UNL     1       5.072  26.932  50.682  1.00  0.00     0.064 C 
HETATM   11  H   UNL     1       3.759  27.970  47.863  1.00  0.00     0.184 HD
ENDROOT
BRANCH  10  12
HETATM   12  C   UNL     1       5.430  25.744  51.505  1.00  0.00     0.256 C 
HETATM   13  N   UNL     1       6.734  25.735  51.943  1.00  0.00    -0.323 N 
HETATM   14  H   UNL     1       7.334  26.484  51.624  1.00  0.00     0.169 HD
HETATM   15  O   UNL     1       4.576  24.885  51.684  1.00  0.00    -0.267 OA
BRANCH  13  16
HETATM   16  C   UNL     1       7.323  24.821  52.844  1.00  0.00     0.035 A 
HETATM   17  C   UNL     1       7.803  23.563  52.477  1.00  0.00     0.029 A 
HETATM   18  C   UNL     1       8.341  22.699  53.438  1.00  0.00     0.002 A 
HETATM   19  C   UNL     1       8.397  23.084  54.775  1.00  0.00     0.000 A 
HETATM   20  C   UNL     1       7.924  24.337  55.152  1.00  0.00     0.002 A 
HETATM   21  C   UNL     1       7.395  25.203  54.190  1.00  0.00     0.029 A 
ENDBRANCH  13  16
ENDBRANCH  10  12
BRANCH   1  22
HETATM   22  C   UNL     1       5.063  28.678  52.526  1.00  0.00     0.083 A 
HETATM   23  O   UNL     1       5.738  28.346  53.667  1.00  0.00    -0.317 OA
HETATM   24  C   UNL     1       4.992  28.787  54.717  1.00  0.00     0.049 A 
HETATM   25  C   UNL     1       5.498  28.468  56.067  1.00  0.00     0.076 C 
HETATM   26  C   UNL     1       3.870  29.441  54.259  1.00  0.00     0.035 A 
HETATM   27  C   UNL     1       3.917  29.378  52.847  1.00  0.00     0.038 A 
ENDBRANCH   1  22
TORSDOF 3
ENDMDL
MODEL 5
REMARK VINA RESULT:      -8.2      3.381      5.576
REMARK  3 active torsions:
REMARK  status: ('A' for Active; 'I' for Inactive)
REMARK    1  A    between atoms: C_4  and  C_5 
REMARK    2  A    between atoms: C_14  and  C_15 
REMARK       I    between atoms: C_15  and  N_16 
REMARK    3  A    between atoms: N_16  and  C_17 
ROOT
HETATM    1  C   UNL     1       7.105  28.181  55.471  1.00  0.00     0.222 C 
HETATM    2  N   UNL     1       7.767  28.590  56.707  1.00  0.00    -0.090 N 
HETATM    3  C   UNL     1       7.134  29.166  57.771  1.00  0.00     0.735 A 
HETATM    4  N   UNL     1       8.032  29.433  58.686  1.00  0.00     0.030 NA
HETATM    5  N   UNL     1       9.245  29.047  58.145  1.00  0.00     0.033 NA
HETATM    6  N   UNL     1       9.093  28.558  56.918  1.00  0.00     0.012 NA
HETATM    7  N   UNL     1       5.808  29.410  57.699  1.00  0.00    -0.191 N 
HETATM    8  C   UNL     1       5.077  29.254  56.524  1.00  0.00     0.037 C 
HETATM    9  C   UNL     1       3.696  29.861  56.537  1.00  0.00     0.070 C 
HETATM   10  C   UNL     1       5.654  28.659  55.448  1.00  0.00     0.064 C 
HETATM   11  H   UNL     1       5.374  29.928  58.458  1.00  0.00     0.184 HD
ENDROOT
BRANCH  10  12
HETATM   12  C   UNL     1       5.015  28.519  54.111  1.00  0.00     0.256 C 
HETATM   13  N   UNL     1       5.862  28.759  53.054  1.00  0.00    -0.323 N 
HETATM   14  H   UNL     1       6.802  29.062  53.275  1.00  0.00     0.169 HD
HETATM   15  O   UNL     1       3.821  28.249  54.065  1.00  0.00    -0.267 OA
BRANCH  13  16
HETATM   16  C   UNL     1       5.585  28.574  51.682  1.00  0.00     0.035 A 
HETATM   17  C   UNL     1       5.474  29.616  50.760  1.00  0.00     0.029 A 
HETATM   18  C   UNL     1       5.160  29.352  49.422  1.00  0.00     0.002 A 
HETATM   19  C   UNL     1       4.948  28.044  48.996  1.00  0.00     0.000 A 
HETATM   20  C   UNL     1       5.059  26.995  49.906  1.00  0.00     0.002 A 
HETATM   21  C   UNL     1       5.382  27.259  51.240  1.00  0.00     0.029 A 
ENDBRANCH  13  16
ENDBRANCH  10  12
BRANCH   1  22
HETATM   22  C   UNL     1       7.261  26.698  55.304  1.00  0.00     0.083 A 
HETATM   23  O   UNL     1       7.592  26.240  54.059  1.00  0.00    -0.317 OA
HETATM   24  C   UNL     1       7.616  24.881  54.124  1.00  0.00     0.049 A 
HETATM   25  C   UNL     1       7.880  24.164  52.860  1.00  0.00     0.076 C 
HETATM   26  C   UNL     1       7.353  24.464  55.410  1.00  0.00     0.035 A 
HETATM   27  C   UNL     1       7.131  25.633  56.174  1.00  0.00     0.038 A 
ENDBRANCH   1  22
TORSDOF 3
ENDMDL
MODEL 6
REMARK VINA RESULT:      -8.0      8.973     10.840
REMARK  3 active torsions:
REMARK  status: ('A' for Active; 'I' for Inactive)
REMARK    1  A    between atoms: C_4  and  C_5 
REMARK    2  A    between atoms: C_14  and  C_15 
REMARK       I    between atoms: C_15  and  N_16 
REMARK    3  A    between atoms: N_16  and  C_17 
ROOT
HETATM    1  C   UNL     1       3.114  35.141  60.332  1.00  0.00     0.222 C 
HETATM    2  N   UNL     1       1.660  35.073  60.220  1.00  0.00    -0.090 N 
HETATM    3  C   UNL     1       0.809  34.895  61.273  1.00  0.00     0.735 A 
HETATM    4  N   UNL     1      -0.415  34.847  60.807  1.00  0.00     0.030 NA
HETATM    5  N   UNL     1      -0.297  34.959  59.433  1.00  0.00     0.033 NA
HETATM    6  N   UNL     1       0.976  35.065  59.064  1.00  0.00     0.012 NA
HETATM    7  N   UNL     1       1.316  34.743  62.514  1.00  0.00    -0.191 N 
HETATM    8  C   UNL     1       2.679  34.594  62.757  1.00  0.00     0.037 C 
HETATM    9  C   UNL     1       3.040  34.127  64.146  1.00  0.00     0.070 C 
HETATM   10  C   UNL     1       3.567  34.792  61.749  1.00  0.00     0.064 C 
HETATM   11  H   UNL     1       0.675  34.512  63.269  1.00  0.00     0.184 HD
ENDROOT
BRANCH  10  12
HETATM   12  C   UNL     1       5.035  34.572  61.855  1.00  0.00     0.256 C 
HETATM   13  N   UNL     1       5.436  33.293  61.545  1.00  0.00    -0.323 N 
HETATM   14  H   UNL     1       4.711  32.617  61.339  1.00  0.00     0.169 HD
HETATM   15  O   UNL     1       5.734  35.503  62.234  1.00  0.00    -0.267 OA
BRANCH  13  16
HETATM   16  C   UNL     1       6.762  32.822  61.425  1.00  0.00     0.035 A 
HETATM   17  C   UNL     1       7.416  32.632  60.207  1.00  0.00     0.029 A 
HETATM   18  C   UNL     1       8.720  32.126  60.171  1.00  0.00     0.002 A 
HETATM   19  C   UNL     1       9.379  31.800  61.353  1.00  0.00     0.000 A 
HETATM   20  C   UNL     1       8.738  31.987  62.574  1.00  0.00     0.002 A 
HETATM   21  C   UNL     1       7.439  32.502  62.610  1.00  0.00     0.029 A 
ENDBRANCH  13  16
ENDBRANCH  10  12
BRANCH   1  22
HETATM   22  C   UNL     1       3.576  36.489  59.860  1.00  0.00     0.083 A 
HETATM   23  O   UNL     1       4.202  36.545  58.646  1.00  0.00    -0.317 OA
HETATM   24  C   UNL     1       4.587  37.836  58.452  1.00  0.00     0.049 A 
HETATM   25  C   UNL     1       5.357  38.118  57.224  1.00  0.00     0.076 C 
HETATM   26  C   UNL     1       4.171  38.618  59.507  1.00  0.00     0.035 A 
HETATM   27  C   UNL     1       3.513  37.753  60.412  1.00  0.00     0.038 A 
ENDBRANCH   1  22
TORSDOF 3
ENDMDL
MODEL 7
REMARK VINA RESULT:      -8.0      2.676      4.197
REMARK  3 active torsions:
REMARK  status: ('A' for Active; 'I' for Inactive)
REMARK    1  A    between atoms: C_4  and  C_5 
REMARK    2  A    between atoms: C_14  and  C_15 
REMARK       I    between atoms: C_15  and  N_16 
REMARK    3  A    between atoms: N_16  and  C_17 
ROOT
HETATM    1  C   UNL     1       4.357  29.055  56.295  1.00  0.00     0.222 C 
HETATM    2  N   UNL     1       4.154  30.225  57.145  1.00  0.00    -0.090 N 
HETATM    3  C   UNL     1       5.095  30.743  57.988  1.00  0.00     0.735 A 
HETATM    4  N   UNL     1       4.564  31.762  58.617  1.00  0.00     0.030 NA
HETATM    5  N   UNL     1       3.256  31.837  58.173  1.00  0.00     0.033 NA
HETATM    6  N   UNL     1       2.989  30.876  57.294  1.00  0.00     0.012 NA
HETATM    7  N   UNL     1       6.299  30.141  58.084  1.00  0.00    -0.191 N 
HETATM    8  C   UNL     1       6.577  28.914  57.487  1.00  0.00     0.037 C 
HETATM    9  C   UNL     1       7.848  28.245  57.949  1.00  0.00     0.070 C 
HETATM   10  C   UNL     1       5.685  28.374  56.617  1.00  0.00     0.064 C 
HETATM   11  H   UNL     1       6.950  30.480  58.788  1.00  0.00     0.184 HD
ENDROOT
BRANCH  10  12
HETATM   12  C   UNL     1       5.821  27.031  55.988  1.00  0.00     0.256 C 
HETATM   13  N   UNL     1       6.713  26.988  54.942  1.00  0.00    -0.323 N 
HETATM   14  H   UNL     1       7.139  27.861  54.660  1.00  0.00     0.169 HD
HETATM   15  O   UNL     1       5.123  26.119  56.413  1.00  0.00    -0.267 OA
BRANCH  13  16
HETATM   16  C   UNL     1       7.151  25.841  54.244  1.00  0.00     0.035 A 
HETATM   17  C   UNL     1       7.576  24.664  54.863  1.00  0.00     0.029 A 
HETATM   18  C   UNL     1       8.031  23.583  54.099  1.00  0.00     0.002 A 
HETATM   19  C   UNL     1       8.071  23.672  52.711  1.00  0.00     0.000 A 
HETATM   20  C   UNL     1       7.647  24.840  52.081  1.00  0.00     0.002 A 
HETATM   21  C   UNL     1       7.184  25.916  52.845  1.00  0.00     0.029 A 
ENDBRANCH  13  16
ENDBRANCH  10  12
BRANCH   1  22
HETATM   22  C   UNL     1       4.215  29.467  54.858  1.00  0.00     0.083 A 
HETATM   23  O   UNL     1       4.161  28.470  53.925  1.00  0.00    -0.317 OA
HETATM   24  C   UNL     1       4.098  29.066  52.703  1.00  0.00     0.049 A 
HETATM   25  C   UNL     1       4.108  28.170  51.530  1.00  0.00     0.076 C 
HETATM   26  C   UNL     1       4.063  30.436  52.846  1.00  0.00     0.035 A 
HETATM   27  C   UNL     1       4.131  30.696  54.235  1.00  0.00     0.038 A 
ENDBRANCH   1  22
TORSDOF 3
ENDMDL
MODEL 8
REMARK VINA RESULT:      -7.9      6.222      8.466
REMARK  3 active torsions:
REMARK  status: ('A' for Active; 'I' for Inactive)
REMARK    1  A    between atoms: C_4  and  C_5 
REMARK    2  A    between atoms: C_14  and  C_15 
REMARK       I    between atoms: C_15  and  N_16 
REMARK    3  A    between atoms: N_16  and  C_17 
ROOT
HETATM    1  C   UNL     1       5.446  32.401  61.243  1.00  0.00     0.222 C 
HETATM    2  N   UNL     1       5.390  32.677  62.676  1.00  0.00    -0.090 N 
HETATM    3  C   UNL     1       6.478  32.930  63.460  1.00  0.00     0.735 A 
HETATM    4  N   UNL     1       6.066  33.097  64.692  1.00  0.00     0.030 NA
HETATM    5  N   UNL     1       4.697  32.900  64.659  1.00  0.00     0.033 NA
HETATM    6  N   UNL     1       4.280  32.610  63.431  1.00  0.00     0.012 NA
HETATM    7  N   UNL     1       7.710  32.908  62.908  1.00  0.00    -0.191 N 
HETATM    8  C   UNL     1       7.943  32.475  61.605  1.00  0.00     0.037 C 
HETATM    9  C   UNL     1       9.389  32.219  61.259  1.00  0.00     0.070 C 
HETATM   10  C   UNL     1       6.892  32.240  60.778  1.00  0.00     0.064 C 
HETATM   11  H   UNL     1       8.513  32.999  63.524  1.00  0.00     0.184 HD
ENDROOT
BRANCH  10  12
HETATM   12  C   UNL     1       7.003  31.686  59.400  1.00  0.00     0.256 C 
HETATM   13  N   UNL     1       7.307  30.345  59.356  1.00  0.00    -0.323 N 
HETATM   14  H   UNL     1       7.485  29.881  60.238  1.00  0.00     0.169 HD
HETATM   15  O   UNL     1       6.859  32.451  58.455  1.00  0.00    -0.267 OA
BRANCH  13  16
HETATM   16  C   UNL     1       7.344  29.518  58.212  1.00  0.00     0.035 A 
HETATM   17  C   UNL     1       6.213  29.116  57.501  1.00  0.00     0.029 A 
HETATM   18  C   UNL     1       6.332  28.264  56.397  1.00  0.00     0.002 A 
HETATM   19  C   UNL     1       7.583  27.801  55.999  1.00  0.00     0.000 A 
HETATM   20  C   UNL     1       8.720  28.197  56.699  1.00  0.00     0.002 A 
HETATM   21  C   UNL     1       8.601  29.057  57.796  1.00  0.00     0.029 A 
ENDBRANCH  13  16
ENDBRANCH  10  12
BRANCH   1  22
HETATM   22  C   UNL     1       4.686  33.469  60.512  1.00  0.00     0.083 A 
HETATM   23  O   UNL     1       4.919  34.765  60.878  1.00  0.00    -0.317 OA
HETATM   24  C   UNL     1       4.087  35.547  60.139  1.00  0.00     0.049 A 
HETATM   25  C   UNL     1       4.115  36.996  60.425  1.00  0.00     0.076 C 
HETATM   26  C   UNL     1       3.356  34.770  59.267  1.00  0.00     0.035 A 
HETATM   27  C   UNL     1       3.746  33.431  59.501  1.00  0.00     0.038 A 
ENDBRANCH   1  22
TORSDOF 3
ENDMDL
MODEL 9
REMARK VINA RESULT:      -7.9      4.253      6.182
REMARK  3 active torsions:
REMARK  status: ('A' for Active; 'I' for Inactive)
REMARK    1  A    between atoms: C_4  and  C_5 
REMARK    2  A    between atoms: C_14  and  C_15 
REMARK       I    between atoms: C_15  and  N_16 
REMARK    3  A    between atoms: N_16  and  C_17 
ROOT
HETATM    1  C   UNL     1       6.429  28.128  53.680  1.00  0.00     0.222 C 
HETATM    2  N   UNL     1       6.632  28.513  55.073  1.00  0.00    -0.090 N 
HETATM    3  C   UNL     1       5.786  29.311  55.789  1.00  0.00     0.735 A 
HETATM    4  N   UNL     1       6.292  29.476  56.985  1.00  0.00     0.030 NA
HETATM    5  N   UNL     1       7.495  28.794  56.980  1.00  0.00     0.033 NA
HETATM    6  N   UNL     1       7.725  28.227  55.800  1.00  0.00     0.012 NA
HETATM    7  N   UNL     1       4.688  29.816  55.187  1.00  0.00    -0.191 N 
HETATM    8  C   UNL     1       4.457  29.698  53.819  1.00  0.00     0.037 C 
HETATM    9  C   UNL     1       3.361  30.578  53.271  1.00  0.00     0.070 C 
HETATM   10  C   UNL     1       5.254  28.891  53.071  1.00  0.00     0.064 C 
HETATM   11  H   UNL     1       4.124  30.487  55.704  1.00  0.00     0.184 HD
ENDROOT
BRANCH  10  12
HETATM   12  C   UNL     1       5.171  28.754  51.591  1.00  0.00     0.256 C 
HETATM   13  N   UNL     1       4.231  27.845  51.163  1.00  0.00    -0.323 N 
HETATM   14  H   UNL     1       3.738  27.320  51.873  1.00  0.00     0.169 HD
HETATM   15  O   UNL     1       5.946  29.408  50.905  1.00  0.00    -0.267 OA
BRANCH  13  16
HETATM   16  C   UNL     1       3.831  27.598  49.831  1.00  0.00     0.035 A 
HETATM   17  C   UNL     1       2.765  28.244  49.203  1.00  0.00     0.029 A 
HETATM   18  C   UNL     1       2.408  27.916  47.890  1.00  0.00     0.002 A 
HETATM   19  C   UNL     1       3.111  26.934  47.197  1.00  0.00     0.000 A 
HETATM   20  C   UNL     1       4.178  26.285  47.811  1.00  0.00     0.002 A 
HETATM   21  C   UNL     1       4.540  26.621  49.120  1.00  0.00     0.029 A 
ENDBRANCH  13  16
ENDBRANCH  10  12
BRANCH   1  22
HETATM   22  C   UNL     1       6.291  26.635  53.602  1.00  0.00     0.083 A 
HETATM   23  O   UNL     1       7.387  25.927  53.197  1.00  0.00    -0.317 OA
HETATM   24  C   UNL     1       7.020  24.617  53.138  1.00  0.00     0.049 A 
HETATM   25  C   UNL     1       8.037  23.667  52.645  1.00  0.00     0.076 C 
HETATM   26  C   UNL     1       5.713  24.473  53.550  1.00  0.00     0.035 A 
HETATM   27  C   UNL     1       5.244  25.772  53.856  1.00  0.00     0.038 A 
ENDBRANCH   1  22
TORSDOF 3
ENDMDL
MODEL 10
REMARK VINA RESULT:      -7.8      2.889      4.758
REMARK  3 active torsions:
REMARK  status: ('A' for Active; 'I' for Inactive)
REMARK    1  A    between atoms: C_4  and  C_5 
REMARK    2  A    between atoms: C_14  and  C_15 
REMARK       I    between atoms: C_15  and  N_16 
REMARK    3  A    between atoms: N_16  and  C_17 
ROOT
HETATM    1  C   UNL     1       5.115  29.805  57.282  1.00  0.00     0.222 C 
HETATM    2  N   UNL     1       4.551  30.827  58.159  1.00  0.00    -0.090 N 
HETATM    3  C   UNL     1       5.288  31.735  58.865  1.00  0.00     0.735 A 
HETATM    4  N   UNL     1       4.465  32.472  59.570  1.00  0.00     0.030 NA
HETATM    5  N   UNL     1       3.201  31.969  59.315  1.00  0.00     0.033 NA
HETATM    6  N   UNL     1       3.251  30.939  58.475  1.00  0.00     0.012 NA
HETATM    7  N   UNL     1       6.635  31.697  58.786  1.00  0.00    -0.191 N 
HETATM    8  C   UNL     1       7.323  30.669  58.148  1.00  0.00     0.037 C 
HETATM    9  C   UNL     1       8.806  30.617  58.422  1.00  0.00     0.070 C 
HETATM   10  C   UNL     1       6.636  29.760  57.409  1.00  0.00     0.064 C 
HETATM   11  H   UNL     1       7.168  32.314  59.394  1.00  0.00     0.184 HD
ENDROOT
BRANCH  10  12
HETATM   12  C   UNL     1       7.241  28.565  56.758  1.00  0.00     0.256 C 
HETATM   13  N   UNL     1       6.964  27.377  57.395  1.00  0.00    -0.323 N 
HETATM   14  H   UNL     1       6.441  27.427  58.260  1.00  0.00     0.169 HD
HETATM   15  O   UNL     1       7.942  28.736  55.769  1.00  0.00    -0.267 OA
BRANCH  13  16
HETATM   16  C   UNL     1       7.280  26.076  56.945  1.00  0.00     0.035 A 
HETATM   17  C   UNL     1       6.491  25.342  56.060  1.00  0.00     0.029 A 
HETATM   18  C   UNL     1       6.855  24.042  55.691  1.00  0.00     0.002 A 
HETATM   19  C   UNL     1       8.010  23.464  56.210  1.00  0.00     0.000 A 
HETATM   20  C   UNL     1       8.808  24.187  57.092  1.00  0.00     0.002 A 
HETATM   21  C   UNL     1       8.448  25.490  57.452  1.00  0.00     0.029 A 
ENDBRANCH  13  16
ENDBRANCH  10  12
BRANCH   1  22
HETATM   22  C   UNL     1       4.627  30.043  55.882  1.00  0.00     0.083 A 
HETATM   23  O   UNL     1       4.211  28.952  55.172  1.00  0.00    -0.317 OA
HETATM   24  C   UNL     1       3.878  29.387  53.926  1.00  0.00     0.049 A 
HETATM   25  C   UNL     1       3.468  28.355  52.953  1.00  0.00     0.076 C 
HETATM   26  C   UNL     1       4.029  30.755  53.846  1.00  0.00     0.035 A 
HETATM   27  C   UNL     1       4.505  31.180  55.108  1.00  0.00     0.038 A 
ENDBRANCH   1  22
TORSDOF 3
ENDMDL
