MODEL 1
REMARK VINA RESULT:     -10.0      0.000      0.000
REMARK  8 active torsions:
REMARK  status: ('A' for Active; 'I' for Inactive)
REMARK    1  A    between atoms: C_5  and  O_6 
REMARK    2  A    between atoms: O_6  and  C_7 
REMARK    3  A    between atoms: C_7  and  C_8 
REMARK    4  A    between atoms: C_12  and  S_13 
REMARK    5  A    between atoms: S_13  and  C_14 
REMARK    6  A    between atoms: C_14  and  C_15 
REMARK       I    between atoms: C_15  and  N_16 
REMARK    7  A    between atoms: N_16  and  C_17 
REMARK    8  A    between atoms: C_20  and  C_21 
REMARK       I    between atoms: C_21  and  N_22 
ROOT
HETATM    1  S   UNL     1       7.386  30.136  57.477  1.00  0.00    -0.081 SA
ENDROOT
BRANCH   1   2
HETATM    2  C   UNL     1       7.336  28.419  57.426  1.00  0.00     0.185 A 
HETATM    3  N   UNL     1       6.192  27.729  57.186  1.00  0.00    -0.254 N 
HETATM    4  N   UNL     1       6.430  26.405  57.151  1.00  0.00    -0.155 NA
HETATM    5  H   UNL     1       5.253  28.081  57.038  1.00  0.00     0.191 HD
HETATM    6  C   UNL     1       7.761  26.367  57.339  1.00  0.00     0.172 A 
HETATM    7  N   UNL     1       8.344  27.597  57.542  1.00  0.00    -0.204 NA
BRANCH   6   8
HETATM    8  C   UNL     1       8.564  25.104  57.330  1.00  0.00     0.258 C 
BRANCH   8   9
HETATM    9  O   UNL     1       7.718  23.955  57.203  1.00  0.00    -0.344 OA
BRANCH   9  10
HETATM   10  C   UNL     1       7.848  23.209  56.065  1.00  0.00     0.069 A 
HETATM   11  C   UNL     1       8.132  21.860  56.285  1.00  0.00     0.037 A 
HETATM   12  C   UNL     1       8.281  20.978  55.212  1.00  0.00     0.009 A 
HETATM   13  C   UNL     1       8.151  21.437  53.898  1.00  0.00    -0.062 A 
HETATM   14  C   UNL     1       8.271  20.490  52.742  1.00  0.00     0.048 C 
HETATM   15  C   UNL     1       7.850  22.786  53.681  1.00  0.00     0.009 A 
HETATM   16  C   UNL     1       7.704  23.669  54.757  1.00  0.00     0.037 A 
ENDBRANCH   9  10
ENDBRANCH   8   9
ENDBRANCH   6   8
ENDBRANCH   1   2
BRANCH   1  17
HETATM   17  C   UNL     1       8.584  30.403  58.820  1.00  0.00     0.185 C 
BRANCH  17  18
HETATM   18  C   UNL     1       8.209  31.440  59.876  1.00  0.00     0.231 C 
HETATM   19  N   UNL     1       7.639  30.951  61.032  1.00  0.00    -0.327 N 
HETATM   20  H   UNL     1       7.424  29.961  61.022  1.00  0.00     0.169 HD
HETATM   21  O   UNL     1       8.480  32.623  59.663  1.00  0.00    -0.272 OA
BRANCH  19  22
HETATM   22  C   UNL     1       7.169  31.673  62.145  1.00  0.00     0.034 A 
HETATM   23  C   UNL     1       5.819  31.902  62.418  1.00  0.00     0.030 A 
HETATM   24  C   UNL     1       5.431  32.616  63.560  1.00  0.00     0.019 A 
HETATM   25  C   UNL     1       6.397  33.106  64.445  1.00  0.00     0.032 A 
HETATM   26  C   UNL     1       7.750  32.897  64.166  1.00  0.00     0.019 A 
HETATM   27  C   UNL     1       8.132  32.181  63.026  1.00  0.00     0.030 A 
BRANCH  25  28
HETATM   28  C   UNL     1       6.037  33.864  65.673  1.00  0.00     0.249 C 
HETATM   29  N   UNL     1       7.057  34.409  66.403  1.00  0.00    -0.366 N 
HETATM   30  H   UNL     1       7.993  34.509  66.038  1.00  0.00     0.159 HD
HETATM   31  H   UNL     1       6.786  35.013  67.168  1.00  0.00     0.159 HD
HETATM   32  O   UNL     1       4.870  34.029  66.008  1.00  0.00    -0.268 OA
ENDBRANCH  25  28
ENDBRANCH  19  22
ENDBRANCH  17  18
ENDBRANCH   1  17
TORSDOF 8
ENDMDL
MODEL 2
REMARK VINA RESULT:      -9.9      3.115     11.442
REMARK  8 active torsions:
REMARK  status: ('A' for Active; 'I' for Inactive)
REMARK    1  A    between atoms: C_5  and  O_6 
REMARK    2  A    between atoms: O_6  and  C_7 
REMARK    3  A    between atoms: C_7  and  C_8 
REMARK    4  A    between atoms: C_12  and  S_13 
REMARK    5  A    between atoms: S_13  and  C_14 
REMARK    6  A    between atoms: C_14  and  C_15 
REMARK       I    between atoms: C_15  and  N_16 
REMARK    7  A    between atoms: N_16  and  C_17 
REMARK    8  A    between atoms: C_20  and  C_21 
REMARK       I    between atoms: C_21  and  N_22 
ROOT
HETATM    1  S   UNL     1       4.749  28.350  56.030  1.00  0.00    -0.081 SA
ENDROOT
BRANCH   1   2
HETATM    2  C   UNL     1       6.142  28.669  56.983  1.00  0.00     0.185 A 
HETATM    3  N   UNL     1       6.926  27.681  57.484  1.00  0.00    -0.254 N 
HETATM    4  N   UNL     1       7.975  28.194  58.152  1.00  0.00    -0.155 NA
HETATM    5  H   UNL     1       6.813  26.677  57.410  1.00  0.00     0.191 HD
HETATM    6  C   UNL     1       7.784  29.514  57.978  1.00  0.00     0.172 A 
HETATM    7  N   UNL     1       6.640  29.838  57.284  1.00  0.00    -0.204 NA
BRANCH   6   8
HETATM    8  C   UNL     1       8.724  30.563  58.486  1.00  0.00     0.258 C 
BRANCH   8   9
HETATM    9  O   UNL     1       8.032  31.787  58.760  1.00  0.00    -0.344 OA
BRANCH   9  10
HETATM   10  C   UNL     1       7.826  32.104  60.074  1.00  0.00     0.069 A 
HETATM   11  C   UNL     1       8.913  31.846  60.911  1.00  0.00     0.037 A 
HETATM   12  C   UNL     1       8.847  32.132  62.277  1.00  0.00     0.009 A 
HETATM   13  C   UNL     1       7.684  32.678  62.826  1.00  0.00    -0.062 A 
HETATM   14  C   UNL     1       7.616  33.024  64.284  1.00  0.00     0.048 C 
HETATM   15  C   UNL     1       6.602  32.952  61.983  1.00  0.00     0.009 A 
HETATM   16  C   UNL     1       6.669  32.662  60.615  1.00  0.00     0.037 A 
ENDBRANCH   9  10
ENDBRANCH   8   9
ENDBRANCH   6   8
ENDBRANCH   1   2
BRANCH   1  17
HETATM   17  C   UNL     1       5.513  27.973  54.423  1.00  0.00     0.185 C 
BRANCH  17  18
HETATM   18  C   UNL     1       5.660  26.497  54.063  1.00  0.00     0.231 C 
HETATM   19  N   UNL     1       6.798  25.870  54.527  1.00  0.00    -0.327 N 
HETATM   20  H   UNL     1       7.477  26.478  54.968  1.00  0.00     0.169 HD
HETATM   21  O   UNL     1       4.751  25.948  53.439  1.00  0.00    -0.272 OA
BRANCH  19  22
HETATM   22  C   UNL     1       7.206  24.539  54.318  1.00  0.00     0.034 A 
HETATM   23  C   UNL     1       7.527  24.004  53.069  1.00  0.00     0.030 A 
HETATM   24  C   UNL     1       7.944  22.671  52.949  1.00  0.00     0.019 A 
HETATM   25  C   UNL     1       8.048  21.860  54.083  1.00  0.00     0.032 A 
HETATM   26  C   UNL     1       7.708  22.385  55.333  1.00  0.00     0.019 A 
HETATM   27  C   UNL     1       7.294  23.717  55.449  1.00  0.00     0.030 A 
BRANCH  25  28
HETATM   28  C   UNL     1       8.490  20.442  54.009  1.00  0.00     0.249 C 
HETATM   29  N   UNL     1       8.812  19.817  55.181  1.00  0.00    -0.366 N 
HETATM   30  H   UNL     1       8.556  20.190  56.084  1.00  0.00     0.159 HD
HETATM   31  H   UNL     1       9.002  18.825  55.120  1.00  0.00     0.159 HD
HETATM   32  O   UNL     1       8.536  19.839  52.944  1.00  0.00    -0.268 OA
ENDBRANCH  25  28
ENDBRANCH  19  22
ENDBRANCH  17  18
ENDBRANCH   1  17
TORSDOF 8
ENDMDL
MODEL 3
REMARK VINA RESULT:      -9.7      1.778      2.110
REMARK  8 active torsions:
REMARK  status: ('A' for Active; 'I' for Inactive)
REMARK    1  A    between atoms: C_5  and  O_6 
REMARK    2  A    between atoms: O_6  and  C_7 
REMARK    3  A    between atoms: C_7  and  C_8 
REMARK    4  A    between atoms: C_12  and  S_13 
REMARK    5  A    between atoms: S_13  and  C_14 
REMARK    6  A    between atoms: C_14  and  C_15 
REMARK       I    between atoms: C_15  and  N_16 
REMARK    7  A    between atoms: N_16  and  C_17 
REMARK    8  A    between atoms: C_20  and  C_21 
REMARK       I    between atoms: C_21  and  N_22 
ROOT
HETATM    1  S   UNL     1       7.361  28.955  57.811  1.00  0.00    -0.081 SA
ENDROOT
BRANCH   1   2
HETATM    2  C   UNL     1       7.544  28.460  56.176  1.00  0.00     0.185 A 
HETATM    3  N   UNL     1       8.358  29.108  55.304  1.00  0.00    -0.254 N 
HETATM    4  N   UNL     1       8.360  28.495  54.106  1.00  0.00    -0.155 NA
HETATM    5  H   UNL     1       8.922  29.936  55.452  1.00  0.00     0.191 HD
HETATM    6  C   UNL     1       7.549  27.448  54.338  1.00  0.00     0.172 A 
HETATM    7  N   UNL     1       7.005  27.418  55.603  1.00  0.00    -0.204 NA
BRANCH   6   8
HETATM    8  C   UNL     1       7.248  26.390  53.323  1.00  0.00     0.258 C 
BRANCH   8   9
HETATM    9  O   UNL     1       6.441  25.350  53.886  1.00  0.00    -0.344 OA
BRANCH   9  10
HETATM   10  C   UNL     1       6.989  24.098  53.943  1.00  0.00     0.069 A 
HETATM   11  C   UNL     1       7.116  23.578  55.232  1.00  0.00     0.037 A 
HETATM   12  C   UNL     1       7.650  22.303  55.438  1.00  0.00     0.009 A 
HETATM   13  C   UNL     1       8.071  21.532  54.352  1.00  0.00    -0.062 A 
HETATM   14  C   UNL     1       8.610  20.148  54.560  1.00  0.00     0.048 C 
HETATM   15  C   UNL     1       7.927  22.049  53.060  1.00  0.00     0.009 A 
HETATM   16  C   UNL     1       7.395  23.327  52.855  1.00  0.00     0.037 A 
ENDBRANCH   9  10
ENDBRANCH   8   9
ENDBRANCH   6   8
ENDBRANCH   1   2
BRANCH   1  17
HETATM   17  C   UNL     1       8.751  30.117  57.974  1.00  0.00     0.185 C 
BRANCH  17  18
HETATM   18  C   UNL     1       8.617  31.201  59.041  1.00  0.00     0.231 C 
HETATM   19  N   UNL     1       7.799  30.903  60.110  1.00  0.00    -0.327 N 
HETATM   20  H   UNL     1       7.280  30.037  60.028  1.00  0.00     0.169 HD
HETATM   21  O   UNL     1       9.274  32.236  58.916  1.00  0.00    -0.272 OA
BRANCH  19  22
HETATM   22  C   UNL     1       7.467  31.719  61.208  1.00  0.00     0.034 A 
HETATM   23  C   UNL     1       6.295  32.473  61.299  1.00  0.00     0.030 A 
HETATM   24  C   UNL     1       6.029  33.246  62.437  1.00  0.00     0.019 A 
HETATM   25  C   UNL     1       6.938  33.270  63.500  1.00  0.00     0.032 A 
HETATM   26  C   UNL     1       8.122  32.534  63.405  1.00  0.00     0.019 A 
HETATM   27  C   UNL     1       8.381  31.761  62.268  1.00  0.00     0.030 A 
BRANCH  25  28
HETATM   28  C   UNL     1       6.700  34.070  64.731  1.00  0.00     0.249 C 
HETATM   29  N   UNL     1       6.184  35.327  64.579  1.00  0.00    -0.366 N 
HETATM   30  H   UNL     1       5.759  35.640  63.718  1.00  0.00     0.159 HD
HETATM   31  H   UNL     1       5.926  35.809  65.431  1.00  0.00     0.159 HD
HETATM   32  O   UNL     1       6.925  33.615  65.846  1.00  0.00    -0.268 OA
ENDBRANCH  25  28
ENDBRANCH  19  22
ENDBRANCH  17  18
ENDBRANCH   1  17
TORSDOF 8
ENDMDL
MODEL 4
REMARK VINA RESULT:      -9.3      3.588     11.221
REMARK  8 active torsions:
REMARK  status: ('A' for Active; 'I' for Inactive)
REMARK    1  A    between atoms: C_5  and  O_6 
REMARK    2  A    between atoms: O_6  and  C_7 
REMARK    3  A    between atoms: C_7  and  C_8 
REMARK    4  A    between atoms: C_12  and  S_13 
REMARK    5  A    between atoms: S_13  and  C_14 
REMARK    6  A    between atoms: C_14  and  C_15 
REMARK       I    between atoms: C_15  and  N_16 
REMARK    7  A    between atoms: N_16  and  C_17 
REMARK    8  A    between atoms: C_20  and  C_21 
REMARK       I    between atoms: C_21  and  N_22 
ROOT
HETATM    1  S   UNL     1       4.017  28.335  53.860  1.00  0.00    -0.081 SA
ENDROOT
BRANCH   1   2
HETATM    2  C   UNL     1       4.718  28.762  55.369  1.00  0.00     0.185 A 
HETATM    3  N   UNL     1       3.971  29.049  56.466  1.00  0.00    -0.254 N 
HETATM    4  N   UNL     1       4.758  29.304  57.527  1.00  0.00    -0.155 NA
HETATM    5  H   UNL     1       2.963  29.084  56.560  1.00  0.00     0.191 HD
HETATM    6  C   UNL     1       5.982  29.111  57.006  1.00  0.00     0.172 A 
HETATM    7  N   UNL     1       5.989  28.804  55.664  1.00  0.00    -0.204 NA
BRANCH   6   8
HETATM    8  C   UNL     1       7.248  29.214  57.799  1.00  0.00     0.258 C 
BRANCH   8   9
HETATM    9  O   UNL     1       7.615  30.582  58.010  1.00  0.00    -0.344 OA
BRANCH   9  10
HETATM   10  C   UNL     1       7.818  30.980  59.302  1.00  0.00     0.069 A 
HETATM   11  C   UNL     1       6.917  31.942  59.762  1.00  0.00     0.037 A 
HETATM   12  C   UNL     1       7.000  32.433  61.067  1.00  0.00     0.009 A 
HETATM   13  C   UNL     1       7.994  31.968  61.933  1.00  0.00    -0.062 A 
HETATM   14  C   UNL     1       8.068  32.460  63.347  1.00  0.00     0.048 C 
HETATM   15  C   UNL     1       8.885  30.991  61.475  1.00  0.00     0.009 A 
HETATM   16  C   UNL     1       8.803  30.503  60.166  1.00  0.00     0.037 A 
ENDBRANCH   9  10
ENDBRANCH   8   9
ENDBRANCH   6   8
ENDBRANCH   1   2
BRANCH   1  17
HETATM   17  C   UNL     1       5.446  27.586  53.019  1.00  0.00     0.185 C 
BRANCH  17  18
HETATM   18  C   UNL     1       5.637  26.082  53.201  1.00  0.00     0.231 C 
HETATM   19  N   UNL     1       6.812  25.689  53.806  1.00  0.00    -0.327 N 
HETATM   20  H   UNL     1       7.483  26.431  53.971  1.00  0.00     0.169 HD
HETATM   21  O   UNL     1       4.729  25.325  52.855  1.00  0.00    -0.272 OA
BRANCH  19  22
HETATM   22  C   UNL     1       7.264  24.382  54.066  1.00  0.00     0.034 A 
HETATM   23  C   UNL     1       7.087  23.717  55.280  1.00  0.00     0.030 A 
HETATM   24  C   UNL     1       7.551  22.405  55.452  1.00  0.00     0.019 A 
HETATM   25  C   UNL     1       8.198  21.745  54.403  1.00  0.00     0.032 A 
HETATM   26  C   UNL     1       8.397  22.413  53.192  1.00  0.00     0.019 A 
HETATM   27  C   UNL     1       7.929  23.721  53.025  1.00  0.00     0.030 A 
BRANCH  25  28
HETATM   28  C   UNL     1       8.705  20.353  54.533  1.00  0.00     0.249 C 
HETATM   29  N   UNL     1       8.978  19.893  55.791  1.00  0.00    -0.366 N 
HETATM   30  H   UNL     1       8.650  20.360  56.624  1.00  0.00     0.159 HD
HETATM   31  H   UNL     1       9.214  18.911  55.866  1.00  0.00     0.159 HD
HETATM   32  O   UNL     1       8.843  19.625  53.557  1.00  0.00    -0.268 OA
ENDBRANCH  25  28
ENDBRANCH  19  22
ENDBRANCH  17  18
ENDBRANCH   1  17
TORSDOF 8
ENDMDL
MODEL 5
REMARK VINA RESULT:      -9.3      2.324     11.895
REMARK  8 active torsions:
REMARK  status: ('A' for Active; 'I' for Inactive)
REMARK    1  A    between atoms: C_5  and  O_6 
REMARK    2  A    between atoms: O_6  and  C_7 
REMARK    3  A    between atoms: C_7  and  C_8 
REMARK    4  A    between atoms: C_12  and  S_13 
REMARK    5  A    between atoms: S_13  and  C_14 
REMARK    6  A    between atoms: C_14  and  C_15 
REMARK       I    between atoms: C_15  and  N_16 
REMARK    7  A    between atoms: N_16  and  C_17 
REMARK    8  A    between atoms: C_20  and  C_21 
REMARK       I    between atoms: C_21  and  N_22 
ROOT
HETATM    1  S   UNL     1       8.121  28.418  57.166  1.00  0.00    -0.081 SA
ENDROOT
BRANCH   1   2
HETATM    2  C   UNL     1       7.922  29.698  58.295  1.00  0.00     0.185 A 
HETATM    3  N   UNL     1       6.830  30.504  58.299  1.00  0.00    -0.254 N 
HETATM    4  N   UNL     1       6.895  31.392  59.307  1.00  0.00    -0.155 NA
HETATM    5  H   UNL     1       6.033  30.503  57.673  1.00  0.00     0.191 HD
HETATM    6  C   UNL     1       8.046  31.035  59.906  1.00  0.00     0.172 A 
HETATM    7  N   UNL     1       8.718  30.008  59.282  1.00  0.00    -0.204 NA
BRANCH   6   8
HETATM    8  C   UNL     1       8.572  31.685  61.148  1.00  0.00     0.258 C 
BRANCH   8   9
HETATM    9  O   UNL     1       7.974  31.118  62.319  1.00  0.00    -0.344 OA
BRANCH   9  10
HETATM   10  C   UNL     1       7.213  31.949  63.093  1.00  0.00     0.069 A 
HETATM   11  C   UNL     1       7.944  32.784  63.941  1.00  0.00     0.037 A 
HETATM   12  C   UNL     1       7.295  33.692  64.781  1.00  0.00     0.009 A 
HETATM   13  C   UNL     1       5.900  33.773  64.788  1.00  0.00    -0.062 A 
HETATM   14  C   UNL     1       5.197  34.772  65.659  1.00  0.00     0.048 C 
HETATM   15  C   UNL     1       5.171  32.948  63.926  1.00  0.00     0.009 A 
HETATM   16  C   UNL     1       5.822  32.036  63.087  1.00  0.00     0.037 A 
ENDBRANCH   9  10
ENDBRANCH   8   9
ENDBRANCH   6   8
ENDBRANCH   1   2
BRANCH   1  17
HETATM   17  C   UNL     1       6.494  27.610  57.275  1.00  0.00     0.185 C 
BRANCH  17  18
HETATM   18  C   UNL     1       6.389  26.200  56.700  1.00  0.00     0.231 C 
HETATM   19  N   UNL     1       7.577  25.603  56.334  1.00  0.00    -0.327 N 
HETATM   20  H   UNL     1       8.393  26.202  56.381  1.00  0.00     0.169 HD
HETATM   21  O   UNL     1       5.280  25.665  56.646  1.00  0.00    -0.272 OA
BRANCH  19  22
HETATM   22  C   UNL     1       7.774  24.338  55.751  1.00  0.00     0.034 A 
HETATM   23  C   UNL     1       7.497  24.038  54.416  1.00  0.00     0.030 A 
HETATM   24  C   UNL     1       7.740  22.755  53.906  1.00  0.00     0.019 A 
HETATM   25  C   UNL     1       8.267  21.757  54.732  1.00  0.00     0.032 A 
HETATM   26  C   UNL     1       8.526  22.046  56.074  1.00  0.00     0.019 A 
HETATM   27  C   UNL     1       8.285  23.329  56.578  1.00  0.00     0.030 A 
BRANCH  25  28
HETATM   28  C   UNL     1       8.546  20.382  54.238  1.00  0.00     0.249 C 
HETATM   29  N   UNL     1       9.072  19.485  55.126  1.00  0.00    -0.366 N 
HETATM   30  H   UNL     1       9.068  19.642  56.124  1.00  0.00     0.159 HD
HETATM   31  H   UNL     1       9.149  18.530  54.802  1.00  0.00     0.159 HD
HETATM   32  O   UNL     1       8.287  20.047  53.089  1.00  0.00    -0.268 OA
ENDBRANCH  25  28
ENDBRANCH  19  22
ENDBRANCH  17  18
ENDBRANCH   1  17
TORSDOF 8
ENDMDL
MODEL 6
REMARK VINA RESULT:      -9.1      6.428     10.773
REMARK  8 active torsions:
REMARK  status: ('A' for Active; 'I' for Inactive)
REMARK    1  A    between atoms: C_5  and  O_6 
REMARK    2  A    between atoms: O_6  and  C_7 
REMARK    3  A    between atoms: C_7  and  C_8 
REMARK    4  A    between atoms: C_12  and  S_13 
REMARK    5  A    between atoms: S_13  and  C_14 
REMARK    6  A    between atoms: C_14  and  C_15 
REMARK       I    between atoms: C_15  and  N_16 
REMARK    7  A    between atoms: N_16  and  C_17 
REMARK    8  A    between atoms: C_20  and  C_21 
REMARK       I    between atoms: C_21  and  N_22 
ROOT
HETATM    1  S   UNL     1       4.354  28.442  55.682  1.00  0.00    -0.081 SA
ENDROOT
BRANCH   1   2
HETATM    2  C   UNL     1       4.810  28.101  54.061  1.00  0.00     0.185 A 
HETATM    3  N   UNL     1       5.655  28.896  53.358  1.00  0.00    -0.254 N 
HETATM    4  N   UNL     1       5.887  28.386  52.135  1.00  0.00    -0.155 NA
HETATM    5  H   UNL     1       6.098  29.763  53.638  1.00  0.00     0.191 HD
HETATM    6  C   UNL     1       5.174  27.246  52.180  1.00  0.00     0.172 A 
HETATM    7  N   UNL     1       4.473  27.059  53.350  1.00  0.00    -0.204 NA
BRANCH   6   8
HETATM    8  C   UNL     1       5.133  26.247  51.066  1.00  0.00     0.258 C 
BRANCH   8   9
HETATM    9  O   UNL     1       5.239  26.892  49.792  1.00  0.00    -0.344 OA
BRANCH   9  10
HETATM   10  C   UNL     1       4.122  26.900  49.003  1.00  0.00     0.069 A 
HETATM   11  C   UNL     1       3.262  27.978  49.226  1.00  0.00     0.037 A 
HETATM   12  C   UNL     1       2.087  28.119  48.484  1.00  0.00     0.009 A 
HETATM   13  C   UNL     1       1.752  27.177  47.508  1.00  0.00    -0.062 A 
HETATM   14  C   UNL     1       0.513  27.341  46.680  1.00  0.00     0.048 C 
HETATM   15  C   UNL     1       2.624  26.108  47.275  1.00  0.00     0.009 A 
HETATM   16  C   UNL     1       3.799  25.966  48.021  1.00  0.00     0.037 A 
ENDBRANCH   9  10
ENDBRANCH   8   9
ENDBRANCH   6   8
ENDBRANCH   1   2
BRANCH   1  17
HETATM   17  C   UNL     1       5.660  27.564  56.595  1.00  0.00     0.185 C 
BRANCH  17  18
HETATM   18  C   UNL     1       5.820  26.074  56.301  1.00  0.00     0.231 C 
HETATM   19  N   UNL     1       6.871  25.728  55.478  1.00  0.00    -0.327 N 
HETATM   20  H   UNL     1       7.367  26.506  55.060  1.00  0.00     0.169 HD
HETATM   21  O   UNL     1       5.052  25.279  56.846  1.00  0.00    -0.272 OA
BRANCH  19  22
HETATM   22  C   UNL     1       7.230  24.448  55.015  1.00  0.00     0.034 A 
HETATM   23  C   UNL     1       7.124  24.037  53.685  1.00  0.00     0.030 A 
HETATM   24  C   UNL     1       7.522  22.748  53.302  1.00  0.00     0.019 A 
HETATM   25  C   UNL     1       8.034  21.858  54.251  1.00  0.00     0.032 A 
HETATM   26  C   UNL     1       8.123  22.258  55.587  1.00  0.00     0.019 A 
HETATM   27  C   UNL     1       7.727  23.546  55.964  1.00  0.00     0.030 A 
BRANCH  25  28
HETATM   28  C   UNL     1       8.475  20.483  53.894  1.00  0.00     0.249 C 
HETATM   29  N   UNL     1       8.986  19.703  54.893  1.00  0.00    -0.366 N 
HETATM   30  H   UNL     1       8.873  19.928  55.871  1.00  0.00     0.159 HD
HETATM   31  H   UNL     1       9.174  18.737  54.654  1.00  0.00     0.159 HD
HETATM   32  O   UNL     1       8.356  20.046  52.756  1.00  0.00    -0.268 OA
ENDBRANCH  25  28
ENDBRANCH  19  22
ENDBRANCH  17  18
ENDBRANCH   1  17
TORSDOF 8
ENDMDL
MODEL 7
REMARK VINA RESULT:      -9.1      3.209     11.510
REMARK  8 active torsions:
REMARK  status: ('A' for Active; 'I' for Inactive)
REMARK    1  A    between atoms: C_5  and  O_6 
REMARK    2  A    between atoms: O_6  and  C_7 
REMARK    3  A    between atoms: C_7  and  C_8 
REMARK    4  A    between atoms: C_12  and  S_13 
REMARK    5  A    between atoms: S_13  and  C_14 
REMARK    6  A    between atoms: C_14  and  C_15 
REMARK       I    between atoms: C_15  and  N_16 
REMARK    7  A    between atoms: N_16  and  C_17 
REMARK    8  A    between atoms: C_20  and  C_21 
REMARK       I    between atoms: C_21  and  N_22 
ROOT
HETATM    1  S   UNL     1       4.506  28.735  54.361  1.00  0.00    -0.081 SA
ENDROOT
BRANCH   1   2
HETATM    2  C   UNL     1       4.989  29.482  55.830  1.00  0.00     0.185 A 
HETATM    3  N   UNL     1       4.161  29.592  56.900  1.00  0.00    -0.254 N 
HETATM    4  N   UNL     1       4.793  30.171  57.937  1.00  0.00    -0.155 NA
HETATM    5  H   UNL     1       3.194  29.302  56.992  1.00  0.00     0.191 HD
HETATM    6  C   UNL     1       6.027  30.351  57.433  1.00  0.00     0.172 A 
HETATM    7  N   UNL     1       6.169  29.961  56.121  1.00  0.00    -0.204 NA
BRANCH   6   8
HETATM    8  C   UNL     1       7.168  30.923  58.215  1.00  0.00     0.258 C 
BRANCH   8   9
HETATM    9  O   UNL     1       6.809  32.177  58.808  1.00  0.00    -0.344 OA
BRANCH   9  10
HETATM   10  C   UNL     1       7.107  32.348  60.131  1.00  0.00     0.069 A 
HETATM   11  C   UNL     1       6.119  33.002  60.868  1.00  0.00     0.037 A 
HETATM   12  C   UNL     1       6.284  33.235  62.236  1.00  0.00     0.009 A 
HETATM   13  C   UNL     1       7.450  32.819  62.885  1.00  0.00    -0.062 A 
HETATM   14  C   UNL     1       7.620  33.030  64.360  1.00  0.00     0.048 C 
HETATM   15  C   UNL     1       8.432  32.148  62.148  1.00  0.00     0.009 A 
HETATM   16  C   UNL     1       8.265  31.919  60.777  1.00  0.00     0.037 A 
ENDBRANCH   9  10
ENDBRANCH   8   9
ENDBRANCH   6   8
ENDBRANCH   1   2
BRANCH   1  17
HETATM   17  C   UNL     1       6.052  27.912  53.871  1.00  0.00     0.185 C 
BRANCH  17  18
HETATM   18  C   UNL     1       6.195  26.439  54.247  1.00  0.00     0.231 C 
HETATM   19  N   UNL     1       7.333  25.805  53.796  1.00  0.00    -0.327 N 
HETATM   20  H   UNL     1       7.910  26.350  53.166  1.00  0.00     0.169 HD
HETATM   21  O   UNL     1       5.331  25.926  54.960  1.00  0.00    -0.272 OA
BRANCH  19  22
HETATM   22  C   UNL     1       7.703  24.457  53.960  1.00  0.00     0.034 A 
HETATM   23  C   UNL     1       7.725  23.518  52.927  1.00  0.00     0.030 A 
HETATM   24  C   UNL     1       8.125  22.197  53.171  1.00  0.00     0.019 A 
HETATM   25  C   UNL     1       8.511  21.803  54.456  1.00  0.00     0.032 A 
HETATM   26  C   UNL     1       8.471  22.735  55.498  1.00  0.00     0.019 A 
HETATM   27  C   UNL     1       8.074  24.053  55.249  1.00  0.00     0.030 A 
BRANCH  25  28
HETATM   28  C   UNL     1       8.948  20.416  54.765  1.00  0.00     0.249 C 
HETATM   29  N   UNL     1       9.377  20.155  56.036  1.00  0.00    -0.366 N 
HETATM   30  H   UNL     1       9.204  20.783  56.808  1.00  0.00     0.159 HD
HETATM   31  H   UNL     1       9.563  19.184  56.255  1.00  0.00     0.159 HD
HETATM   32  O   UNL     1       8.898  19.525  53.926  1.00  0.00    -0.268 OA
ENDBRANCH  25  28
ENDBRANCH  19  22
ENDBRANCH  17  18
ENDBRANCH   1  17
TORSDOF 8
ENDMDL
MODEL 8
REMARK VINA RESULT:      -8.8      6.077      9.666
REMARK  8 active torsions:
REMARK  status: ('A' for Active; 'I' for Inactive)
REMARK    1  A    between atoms: C_5  and  O_6 
REMARK    2  A    between atoms: O_6  and  C_7 
REMARK    3  A    between atoms: C_7  and  C_8 
REMARK    4  A    between atoms: C_12  and  S_13 
REMARK    5  A    between atoms: S_13  and  C_14 
REMARK    6  A    between atoms: C_14  and  C_15 
REMARK       I    between atoms: C_15  and  N_16 
REMARK    7  A    between atoms: N_16  and  C_17 
REMARK    8  A    between atoms: C_20  and  C_21 
REMARK       I    between atoms: C_21  and  N_22 
ROOT
HETATM    1  S   UNL     1       4.147  29.851  56.591  1.00  0.00    -0.081 SA
ENDROOT
BRANCH   1   2
HETATM    2  C   UNL     1       4.944  28.330  56.529  1.00  0.00     0.185 A 
HETATM    3  N   UNL     1       4.275  27.151  56.601  1.00  0.00    -0.254 N 
HETATM    4  N   UNL     1       5.121  26.112  56.483  1.00  0.00    -0.155 NA
HETATM    5  H   UNL     1       3.282  26.987  56.722  1.00  0.00     0.191 HD
HETATM    6  C   UNL     1       6.295  26.742  56.298  1.00  0.00     0.172 A 
HETATM    7  N   UNL     1       6.220  28.115  56.352  1.00  0.00    -0.204 NA
BRANCH   6   8
HETATM    8  C   UNL     1       7.589  26.031  56.050  1.00  0.00     0.258 C 
BRANCH   8   9
HETATM    9  O   UNL     1       7.507  24.658  56.450  1.00  0.00    -0.344 OA
BRANCH   9  10
HETATM   10  C   UNL     1       7.689  23.715  55.477  1.00  0.00     0.069 A 
HETATM   11  C   UNL     1       7.897  22.420  55.955  1.00  0.00     0.037 A 
HETATM   12  C   UNL     1       8.087  21.354  55.072  1.00  0.00     0.009 A 
HETATM   13  C   UNL     1       8.075  21.572  53.692  1.00  0.00    -0.062 A 
HETATM   14  C   UNL     1       8.239  20.428  52.736  1.00  0.00     0.048 C 
HETATM   15  C   UNL     1       7.849  22.867  53.214  1.00  0.00     0.009 A 
HETATM   16  C   UNL     1       7.662  23.934  54.100  1.00  0.00     0.037 A 
ENDBRANCH   9  10
ENDBRANCH   8   9
ENDBRANCH   6   8
ENDBRANCH   1   2
BRANCH   1  17
HETATM   17  C   UNL     1       4.768  30.624  55.066  1.00  0.00     0.185 C 
BRANCH  17  18
HETATM   18  C   UNL     1       4.364  29.964  53.749  1.00  0.00     0.231 C 
HETATM   19  N   UNL     1       5.397  29.521  52.950  1.00  0.00    -0.327 N 
HETATM   20  H   UNL     1       6.326  29.776  53.264  1.00  0.00     0.169 HD
HETATM   21  O   UNL     1       3.165  29.820  53.504  1.00  0.00    -0.272 OA
BRANCH  19  22
HETATM   22  C   UNL     1       5.320  28.916  51.682  1.00  0.00     0.034 A 
HETATM   23  C   UNL     1       5.134  27.548  51.475  1.00  0.00     0.030 A 
HETATM   24  C   UNL     1       5.049  27.025  50.177  1.00  0.00     0.019 A 
HETATM   25  C   UNL     1       5.147  27.873  49.069  1.00  0.00     0.032 A 
HETATM   26  C   UNL     1       5.354  29.241  49.271  1.00  0.00     0.019 A 
HETATM   27  C   UNL     1       5.435  29.757  50.568  1.00  0.00     0.030 A 
BRANCH  25  28
HETATM   28  C   UNL     1       5.058  27.370  47.673  1.00  0.00     0.249 C 
HETATM   29  N   UNL     1       6.223  27.246  46.969  1.00  0.00    -0.366 N 
HETATM   30  H   UNL     1       7.130  27.265  47.412  1.00  0.00     0.159 HD
HETATM   31  H   UNL     1       6.153  26.798  46.064  1.00  0.00     0.159 HD
HETATM   32  O   UNL     1       3.987  27.043  47.175  1.00  0.00    -0.268 OA
ENDBRANCH  25  28
ENDBRANCH  19  22
ENDBRANCH  17  18
ENDBRANCH   1  17
TORSDOF 8
ENDMDL
MODEL 9
REMARK VINA RESULT:      -8.7      7.316     11.183
REMARK  8 active torsions:
REMARK  status: ('A' for Active; 'I' for Inactive)
REMARK    1  A    between atoms: C_5  and  O_6 
REMARK    2  A    between atoms: O_6  and  C_7 
REMARK    3  A    between atoms: C_7  and  C_8 
REMARK    4  A    between atoms: C_12  and  S_13 
REMARK    5  A    between atoms: S_13  and  C_14 
REMARK    6  A    between atoms: C_14  and  C_15 
REMARK       I    between atoms: C_15  and  N_16 
REMARK    7  A    between atoms: N_16  and  C_17 
REMARK    8  A    between atoms: C_20  and  C_21 
REMARK       I    between atoms: C_21  and  N_22 
ROOT
HETATM    1  S   UNL     1       4.356  27.782  53.416  1.00  0.00    -0.081 SA
ENDROOT
BRANCH   1   2
HETATM    2  C   UNL     1       4.630  28.875  52.120  1.00  0.00     0.185 A 
HETATM    3  N   UNL     1       5.866  29.341  51.807  1.00  0.00    -0.254 N 
HETATM    4  N   UNL     1       5.817  30.142  50.727  1.00  0.00    -0.155 NA
HETATM    5  H   UNL     1       6.752  29.160  52.265  1.00  0.00     0.191 HD
HETATM    6  C   UNL     1       4.511  30.081  50.408  1.00  0.00     0.172 A 
HETATM    7  N   UNL     1       3.748  29.329  51.271  1.00  0.00    -0.204 NA
BRANCH   6   8
HETATM    8  C   UNL     1       3.915  30.766  49.218  1.00  0.00     0.258 C 
BRANCH   8   9
HETATM    9  O   UNL     1       4.238  30.072  48.008  1.00  0.00    -0.344 OA
BRANCH   9  10
HETATM   10  C   UNL     1       4.026  28.721  47.990  1.00  0.00     0.069 A 
HETATM   11  C   UNL     1       2.682  28.344  48.009  1.00  0.00     0.037 A 
HETATM   12  C   UNL     1       2.317  26.996  47.984  1.00  0.00     0.009 A 
HETATM   13  C   UNL     1       3.299  26.002  47.943  1.00  0.00    -0.062 A 
HETATM   14  C   UNL     1       2.917  24.553  47.876  1.00  0.00     0.048 C 
HETATM   15  C   UNL     1       4.645  26.382  47.906  1.00  0.00     0.009 A 
HETATM   16  C   UNL     1       5.008  27.733  47.936  1.00  0.00     0.037 A 
ENDBRANCH   9  10
ENDBRANCH   8   9
ENDBRANCH   6   8
ENDBRANCH   1   2
BRANCH   1  17
HETATM   17  C   UNL     1       5.868  28.029  54.398  1.00  0.00     0.185 C 
BRANCH  17  18
HETATM   18  C   UNL     1       6.694  26.783  54.710  1.00  0.00     0.231 C 
HETATM   19  N   UNL     1       6.322  25.629  54.054  1.00  0.00    -0.327 N 
HETATM   20  H   UNL     1       5.468  25.695  53.513  1.00  0.00     0.169 HD
HETATM   21  O   UNL     1       7.657  26.889  55.472  1.00  0.00    -0.272 OA
BRANCH  19  22
HETATM   22  C   UNL     1       6.876  24.341  54.176  1.00  0.00     0.034 A 
HETATM   23  C   UNL     1       7.057  23.675  55.390  1.00  0.00     0.030 A 
HETATM   24  C   UNL     1       7.600  22.383  55.423  1.00  0.00     0.019 A 
HETATM   25  C   UNL     1       7.965  21.742  54.235  1.00  0.00     0.032 A 
HETATM   26  C   UNL     1       7.805  22.412  53.019  1.00  0.00     0.019 A 
HETATM   27  C   UNL     1       7.261  23.700  52.991  1.00  0.00     0.030 A 
BRANCH  25  28
HETATM   28  C   UNL     1       8.540  20.371  54.217  1.00  0.00     0.249 C 
HETATM   29  N   UNL     1       8.850  19.798  55.419  1.00  0.00    -0.366 N 
HETATM   30  H   UNL     1       8.508  20.159  56.298  1.00  0.00     0.159 HD
HETATM   31  H   UNL     1       9.133  18.826  55.390  1.00  0.00     0.159 HD
HETATM   32  O   UNL     1       8.703  19.757  53.169  1.00  0.00    -0.268 OA
ENDBRANCH  25  28
ENDBRANCH  19  22
ENDBRANCH  17  18
ENDBRANCH   1  17
TORSDOF 8
ENDMDL
MODEL 10
REMARK VINA RESULT:      -8.6      2.151     11.969
REMARK  8 active torsions:
REMARK  status: ('A' for Active; 'I' for Inactive)
REMARK    1  A    between atoms: C_5  and  O_6 
REMARK    2  A    between atoms: O_6  and  C_7 
REMARK    3  A    between atoms: C_7  and  C_8 
REMARK    4  A    between atoms: C_12  and  S_13 
REMARK    5  A    between atoms: S_13  and  C_14 
REMARK    6  A    between atoms: C_14  and  C_15 
REMARK       I    between atoms: C_15  and  N_16 
REMARK    7  A    between atoms: N_16  and  C_17 
REMARK    8  A    between atoms: C_20  and  C_21 
REMARK       I    between atoms: C_21  and  N_22 
ROOT
HETATM    1  S   UNL     1       9.240  30.910  59.017  1.00  0.00    -0.081 SA
ENDROOT
BRANCH   1   2
HETATM    2  C   UNL     1       8.402  30.981  60.515  1.00  0.00     0.185 A 
HETATM    3  N   UNL     1       8.946  30.537  61.677  1.00  0.00    -0.254 N 
HETATM    4  N   UNL     1       8.108  30.749  62.709  1.00  0.00    -0.155 NA
HETATM    5  H   UNL     1       9.847  30.102  61.835  1.00  0.00     0.191 HD
HETATM    6  C   UNL     1       7.083  31.369  62.099  1.00  0.00     0.172 A 
HETATM    7  N   UNL     1       7.224  31.500  60.736  1.00  0.00    -0.204 NA
BRANCH   6   8
HETATM    8  C   UNL     1       5.877  31.885  62.821  1.00  0.00     0.258 C 
BRANCH   8   9
HETATM    9  O   UNL     1       6.029  33.269  63.156  1.00  0.00    -0.344 OA
BRANCH   9  10
HETATM   10  C   UNL     1       6.011  33.594  64.484  1.00  0.00     0.069 A 
HETATM   11  C   UNL     1       4.733  33.714  65.034  1.00  0.00     0.037 A 
HETATM   12  C   UNL     1       4.563  34.031  66.384  1.00  0.00     0.009 A 
HETATM   13  C   UNL     1       5.676  34.239  67.204  1.00  0.00    -0.062 A 
HETATM   14  C   UNL     1       5.505  34.542  68.663  1.00  0.00     0.048 C 
HETATM   15  C   UNL     1       6.955  34.101  66.654  1.00  0.00     0.009 A 
HETATM   16  C   UNL     1       7.123  33.786  65.301  1.00  0.00     0.037 A 
ENDBRANCH   9  10
ENDBRANCH   8   9
ENDBRANCH   6   8
ENDBRANCH   1   2
BRANCH   1  17
HETATM   17  C   UNL     1       8.060  29.959  58.011  1.00  0.00     0.185 C 
BRANCH  17  18
HETATM   18  C   UNL     1       8.586  28.678  57.366  1.00  0.00     0.231 C 
HETATM   19  N   UNL     1       7.677  27.650  57.230  1.00  0.00    -0.327 N 
HETATM   20  H   UNL     1       6.779  27.806  57.672  1.00  0.00     0.169 HD
HETATM   21  O   UNL     1       9.750  28.654  56.964  1.00  0.00    -0.272 OA
BRANCH  19  22
HETATM   22  C   UNL     1       7.892  26.360  56.710  1.00  0.00     0.034 A 
HETATM   23  C   UNL     1       8.541  25.334  57.401  1.00  0.00     0.030 A 
HETATM   24  C   UNL     1       8.698  24.069  56.818  1.00  0.00     0.019 A 
HETATM   25  C   UNL     1       8.202  23.817  55.535  1.00  0.00     0.032 A 
HETATM   26  C   UNL     1       7.570  24.847  54.833  1.00  0.00     0.019 A 
HETATM   27  C   UNL     1       7.413  26.107  55.419  1.00  0.00     0.030 A 
BRANCH  25  28
HETATM   28  C   UNL     1       8.338  22.491  54.876  1.00  0.00     0.249 C 
HETATM   29  N   UNL     1       9.169  21.576  55.460  1.00  0.00    -0.366 N 
HETATM   30  H   UNL     1       9.506  21.674  56.407  1.00  0.00     0.159 HD
HETATM   31  H   UNL     1       9.161  20.646  55.060  1.00  0.00     0.159 HD
HETATM   32  O   UNL     1       7.708  22.209  53.864  1.00  0.00    -0.268 OA
ENDBRANCH  25  28
ENDBRANCH  19  22
ENDBRANCH  17  18
ENDBRANCH   1  17
TORSDOF 8
ENDMDL
