MODEL 1
REMARK VINA RESULT:      -8.9      0.000      0.000
REMARK  4 active torsions:
REMARK  status: ('A' for Active; 'I' for Inactive)
REMARK    1  A    between atoms: N_2  and  C_3 
REMARK    2  A    between atoms: C_9  and  N_10 
REMARK       I    between atoms: N_10  and  C_11 
REMARK    3  A    between atoms: C_11  and  C_12 
REMARK    4  A    between atoms: C_12  and  C_13 
ROOT
HETATM    1  N   UNL     1       7.546  27.564  55.046  1.00  0.00    -0.327 N 
HETATM    2  C   UNL     1       6.716  26.482  54.804  1.00  0.00     0.227 C 
HETATM    3  O   UNL     1       5.760  26.132  55.495  1.00  0.00    -0.273 OA
HETATM    4  H   UNL     1       8.341  27.698  54.430  1.00  0.00     0.169 HD
ENDROOT
BRANCH   1   5
HETATM    5  C   UNL     1       7.428  28.523  56.079  1.00  0.00     0.037 A 
HETATM    6  C   UNL     1       8.225  28.517  57.233  1.00  0.00     0.069 A 
HETATM    7  C   UNL     1       7.951  29.509  58.171  1.00  0.00     0.110 A 
HETATM    8  O   UNL     1       8.563  29.699  59.374  1.00  0.00    -0.276 OA
HETATM    9  C   UNL     1       6.977  30.480  58.038  1.00  0.00     0.095 A 
HETATM   10  C   UNL     1       7.912  30.782  59.917  1.00  0.00     0.249 A 
HETATM   11  N   UNL     1       6.968  31.283  59.145  1.00  0.00    -0.206 NA
HETATM   12  C   UNL     1       6.195  30.496  56.881  1.00  0.00     0.037 A 
HETATM   13  C   UNL     1       6.431  29.504  55.913  1.00  0.00     0.032 A 
BRANCH  10  14
HETATM   14  N   UNL     1       8.287  31.181  61.155  1.00  0.00    -0.354 N 
HETATM   15  C   UNL     1       7.280  31.729  62.048  1.00  0.00     0.152 C 
HETATM   16  C   UNL     1       9.371  30.435  61.775  1.00  0.00     0.152 C 
ENDBRANCH  10  14
ENDBRANCH   1   5
BRANCH   2  17
HETATM   17  C   UNL     1       7.098  25.728  53.541  1.00  0.00     0.161 C 
BRANCH  17  18
HETATM   18  C   UNL     1       7.462  24.312  53.786  1.00  0.00     0.035 A 
HETATM   19  N   UNL     1       7.400  23.688  55.028  1.00  0.00    -0.344 N 
HETATM   20  H   UNL     1       7.088  24.170  55.879  1.00  0.00     0.167 HD
HETATM   21  C   UNL     1       7.795  22.424  54.954  1.00  0.00     0.111 A 
HETATM   22  N   UNL     1       8.110  22.181  53.668  1.00  0.00    -0.317 N 
HETATM   23  C   UNL     1       7.920  21.375  55.993  1.00  0.00     0.049 A 
HETATM   24  C   UNL     1       7.908  23.330  52.923  1.00  0.00     0.123 A 
HETATM   25  C   UNL     1       8.559  20.949  53.234  1.00  0.00     0.098 A 
HETATM   26  C   UNL     1       8.682  19.977  54.158  1.00  0.00     0.018 A 
HETATM   27  C   UNL     1       8.361  20.176  55.570  1.00  0.00     0.005 A 
ENDBRANCH  17  18
ENDBRANCH   2  17
TORSDOF 4
ENDMDL
MODEL 2
REMARK VINA RESULT:      -8.6      1.384      9.193
REMARK  4 active torsions:
REMARK  status: ('A' for Active; 'I' for Inactive)
REMARK    1  A    between atoms: N_2  and  C_3 
REMARK    2  A    between atoms: C_9  and  N_10 
REMARK       I    between atoms: N_10  and  C_11 
REMARK    3  A    between atoms: C_11  and  C_12 
REMARK    4  A    between atoms: C_12  and  C_13 
ROOT
HETATM    1  N   UNL     1       6.350  27.910  55.670  1.00  0.00    -0.327 N 
HETATM    2  C   UNL     1       7.169  28.919  56.150  1.00  0.00     0.227 C 
HETATM    3  O   UNL     1       8.399  28.913  56.155  1.00  0.00    -0.273 OA
HETATM    4  H   UNL     1       5.347  28.016  55.791  1.00  0.00     0.169 HD
ENDROOT
BRANCH   1   5
HETATM    5  C   UNL     1       6.746  26.715  55.027  1.00  0.00     0.037 A 
HETATM    6  C   UNL     1       6.589  25.443  55.597  1.00  0.00     0.069 A 
HETATM    7  C   UNL     1       7.071  24.372  54.847  1.00  0.00     0.110 A 
HETATM    8  O   UNL     1       7.059  23.053  55.189  1.00  0.00    -0.276 OA
HETATM    9  C   UNL     1       7.668  24.478  53.606  1.00  0.00     0.095 A 
HETATM   10  C   UNL     1       7.668  22.424  54.129  1.00  0.00     0.249 A 
HETATM   11  N   UNL     1       8.034  23.238  53.159  1.00  0.00    -0.206 NA
HETATM   12  C   UNL     1       7.809  25.743  53.031  1.00  0.00     0.037 A 
HETATM   13  C   UNL     1       7.347  26.853  53.760  1.00  0.00     0.032 A 
BRANCH  10  14
HETATM   14  N   UNL     1       7.837  21.083  54.211  1.00  0.00    -0.354 N 
HETATM   15  C   UNL     1       8.533  20.400  53.134  1.00  0.00     0.152 C 
HETATM   16  C   UNL     1       8.005  20.532  55.547  1.00  0.00     0.152 C 
ENDBRANCH  10  14
ENDBRANCH   1   5
BRANCH   2  17
HETATM   17  C   UNL     1       6.380  30.100  56.690  1.00  0.00     0.161 C 
BRANCH  17  18
HETATM   18  C   UNL     1       6.884  30.600  57.992  1.00  0.00     0.035 A 
HETATM   19  N   UNL     1       7.963  30.053  58.680  1.00  0.00    -0.344 N 
HETATM   20  H   UNL     1       8.501  29.253  58.328  1.00  0.00     0.167 HD
HETATM   21  C   UNL     1       8.183  30.693  59.820  1.00  0.00     0.111 A 
HETATM   22  N   UNL     1       7.271  31.680  59.904  1.00  0.00    -0.317 N 
HETATM   23  C   UNL     1       9.189  30.476  60.887  1.00  0.00     0.049 A 
HETATM   24  C   UNL     1       6.459  31.648  58.785  1.00  0.00     0.123 A 
HETATM   25  C   UNL     1       7.217  32.550  60.976  1.00  0.00     0.098 A 
HETATM   26  C   UNL     1       8.120  32.375  61.959  1.00  0.00     0.018 A 
HETATM   27  C   UNL     1       9.133  31.322  61.932  1.00  0.00     0.005 A 
ENDBRANCH  17  18
ENDBRANCH   2  17
TORSDOF 4
ENDMDL
MODEL 3
REMARK VINA RESULT:      -8.6      5.736      8.688
REMARK  4 active torsions:
REMARK  status: ('A' for Active; 'I' for Inactive)
REMARK    1  A    between atoms: N_2  and  C_3 
REMARK    2  A    between atoms: C_9  and  N_10 
REMARK       I    between atoms: N_10  and  C_11 
REMARK    3  A    between atoms: C_11  and  C_12 
REMARK    4  A    between atoms: C_12  and  C_13 
ROOT
HETATM    1  N   UNL     1       6.113  26.552  50.955  1.00  0.00    -0.327 N 
HETATM    2  C   UNL     1       6.219  25.429  51.758  1.00  0.00     0.227 C 
HETATM    3  O   UNL     1       5.284  24.806  52.260  1.00  0.00    -0.273 OA
HETATM    4  H   UNL     1       6.972  27.009  50.664  1.00  0.00     0.169 HD
ENDROOT
BRANCH   1   5
HETATM    5  C   UNL     1       4.928  27.166  50.488  1.00  0.00     0.037 A 
HETATM    6  C   UNL     1       4.343  26.873  49.247  1.00  0.00     0.069 A 
HETATM    7  C   UNL     1       3.199  27.599  48.923  1.00  0.00     0.110 A 
HETATM    8  O   UNL     1       2.467  27.517  47.777  1.00  0.00    -0.276 OA
HETATM    9  C   UNL     1       2.611  28.555  49.729  1.00  0.00     0.095 A 
HETATM   10  C   UNL     1       1.470  28.448  47.946  1.00  0.00     0.249 A 
HETATM   11  N   UNL     1       1.514  29.080  49.102  1.00  0.00    -0.206 NA
HETATM   12  C   UNL     1       3.184  28.834  50.971  1.00  0.00     0.037 A 
HETATM   13  C   UNL     1       4.348  28.133  51.333  1.00  0.00     0.032 A 
BRANCH  10  14
HETATM   14  N   UNL     1       0.597  28.622  46.925  1.00  0.00    -0.354 N 
HETATM   15  C   UNL     1       0.638  29.865  46.174  1.00  0.00     0.152 C 
HETATM   16  C   UNL     1       0.218  27.427  46.187  1.00  0.00     0.152 C 
ENDBRANCH  10  14
ENDBRANCH   1   5
BRANCH   2  17
HETATM   17  C   UNL     1       7.661  25.001  51.973  1.00  0.00     0.161 C 
BRANCH  17  18
HETATM   18  C   UNL     1       7.828  24.020  53.071  1.00  0.00     0.035 A 
HETATM   19  N   UNL     1       7.720  22.641  52.917  1.00  0.00    -0.344 N 
HETATM   20  H   UNL     1       7.517  22.195  52.015  1.00  0.00     0.167 HD
HETATM   21  C   UNL     1       7.906  22.010  54.069  1.00  0.00     0.111 A 
HETATM   22  N   UNL     1       8.155  22.950  55.000  1.00  0.00    -0.317 N 
HETATM   23  C   UNL     1       7.873  20.569  54.412  1.00  0.00     0.049 A 
HETATM   24  C   UNL     1       8.118  24.200  54.410  1.00  0.00     0.123 A 
HETATM   25  C   UNL     1       8.400  22.636  56.323  1.00  0.00     0.098 A 
HETATM   26  C   UNL     1       8.376  21.333  56.663  1.00  0.00     0.018 A 
HETATM   27  C   UNL     1       8.108  20.265  55.702  1.00  0.00     0.005 A 
ENDBRANCH  17  18
ENDBRANCH   2  17
TORSDOF 4
ENDMDL
MODEL 4
REMARK VINA RESULT:      -8.4      5.422     12.970
REMARK  4 active torsions:
REMARK  status: ('A' for Active; 'I' for Inactive)
REMARK    1  A    between atoms: N_2  and  C_3 
REMARK    2  A    between atoms: C_9  and  N_10 
REMARK       I    between atoms: N_10  and  C_11 
REMARK    3  A    between atoms: C_11  and  C_12 
REMARK    4  A    between atoms: C_12  and  C_13 
ROOT
HETATM    1  N   UNL     1       6.467  33.820  63.626  1.00  0.00    -0.327 N 
HETATM    2  C   UNL     1       5.362  33.581  64.427  1.00  0.00     0.227 C 
HETATM    3  O   UNL     1       4.664  32.568  64.416  1.00  0.00    -0.273 OA
HETATM    4  H   UNL     1       6.911  34.730  63.691  1.00  0.00     0.169 HD
ENDROOT
BRANCH   1   5
HETATM    5  C   UNL     1       7.060  32.936  62.695  1.00  0.00     0.037 A 
HETATM    6  C   UNL     1       6.518  32.670  61.429  1.00  0.00     0.069 A 
HETATM    7  C   UNL     1       7.207  31.742  60.651  1.00  0.00     0.110 A 
HETATM    8  O   UNL     1       6.874  31.298  59.407  1.00  0.00    -0.276 OA
HETATM    9  C   UNL     1       8.365  31.092  61.031  1.00  0.00     0.095 A 
HETATM   10  C   UNL     1       7.853  30.384  59.100  1.00  0.00     0.249 A 
HETATM   11  N   UNL     1       8.768  30.241  60.039  1.00  0.00    -0.206 NA
HETATM   12  C   UNL     1       8.914  31.370  62.285  1.00  0.00     0.037 A 
HETATM   13  C   UNL     1       8.244  32.293  63.108  1.00  0.00     0.032 A 
BRANCH  10  14
HETATM   14  N   UNL     1       7.755  29.736  57.915  1.00  0.00    -0.354 N 
HETATM   15  C   UNL     1       6.703  30.125  56.991  1.00  0.00     0.152 C 
HETATM   16  C   UNL     1       9.000  29.272  57.326  1.00  0.00     0.152 C 
ENDBRANCH  10  14
ENDBRANCH   1   5
BRANCH   2  17
HETATM   17  C   UNL     1       5.075  34.730  65.378  1.00  0.00     0.161 C 
BRANCH  17  18
HETATM   18  C   UNL     1       5.578  34.498  66.753  1.00  0.00     0.035 A 
HETATM   19  N   UNL     1       6.856  34.832  67.189  1.00  0.00    -0.344 N 
HETATM   20  H   UNL     1       7.555  35.275  66.582  1.00  0.00     0.167 HD
HETATM   21  C   UNL     1       7.035  34.501  68.461  1.00  0.00     0.111 A 
HETATM   22  N   UNL     1       5.882  33.958  68.896  1.00  0.00    -0.317 N 
HETATM   23  C   UNL     1       8.211  34.636  69.352  1.00  0.00     0.049 A 
HETATM   24  C   UNL     1       4.963  33.950  67.862  1.00  0.00     0.123 A 
HETATM   25  C   UNL     1       5.718  33.502  70.189  1.00  0.00     0.098 A 
HETATM   26  C   UNL     1       6.771  33.613  71.021  1.00  0.00     0.018 A 
HETATM   27  C   UNL     1       8.052  34.188  70.611  1.00  0.00     0.005 A 
ENDBRANCH  17  18
ENDBRANCH   2  17
TORSDOF 4
ENDMDL
MODEL 5
REMARK VINA RESULT:      -8.4      3.564     10.250
REMARK  4 active torsions:
REMARK  status: ('A' for Active; 'I' for Inactive)
REMARK    1  A    between atoms: N_2  and  C_3 
REMARK    2  A    between atoms: C_9  and  N_10 
REMARK       I    between atoms: N_10  and  C_11 
REMARK    3  A    between atoms: C_11  and  C_12 
REMARK    4  A    between atoms: C_12  and  C_13 
ROOT
HETATM    1  N   UNL     1       9.255  30.369  59.626  1.00  0.00    -0.327 N 
HETATM    2  C   UNL     1       9.243  31.669  60.103  1.00  0.00     0.227 C 
HETATM    3  O   UNL     1       9.054  32.685  59.435  1.00  0.00    -0.273 OA
HETATM    4  H   UNL     1       9.492  29.627  60.277  1.00  0.00     0.169 HD
ENDROOT
BRANCH   1   5
HETATM    5  C   UNL     1       8.985  29.935  58.307  1.00  0.00     0.037 A 
HETATM    6  C   UNL     1       7.731  29.465  57.889  1.00  0.00     0.069 A 
HETATM    7  C   UNL     1       7.647  29.038  56.566  1.00  0.00     0.110 A 
HETATM    8  O   UNL     1       6.557  28.521  55.934  1.00  0.00    -0.276 OA
HETATM    9  C   UNL     1       8.688  29.057  55.658  1.00  0.00     0.095 A 
HETATM   10  C   UNL     1       7.004  28.240  54.665  1.00  0.00     0.249 A 
HETATM   11  N   UNL     1       8.266  28.557  54.457  1.00  0.00    -0.206 NA
HETATM   12  C   UNL     1       9.932  29.541  56.069  1.00  0.00     0.037 A 
HETATM   13  C   UNL     1      10.064  29.972  57.402  1.00  0.00     0.032 A 
BRANCH  10  14
HETATM   14  N   UNL     1       6.129  27.665  53.806  1.00  0.00    -0.354 N 
HETATM   15  C   UNL     1       5.562  26.371  54.149  1.00  0.00     0.152 C 
HETATM   16  C   UNL     1       5.279  28.567  53.046  1.00  0.00     0.152 C 
ENDBRANCH  10  14
ENDBRANCH   1   5
BRANCH   2  17
HETATM   17  C   UNL     1       9.484  31.740  61.601  1.00  0.00     0.161 C 
BRANCH  17  18
HETATM   18  C   UNL     1       8.303  32.204  62.367  1.00  0.00     0.035 A 
HETATM   19  N   UNL     1       8.363  32.785  63.630  1.00  0.00    -0.344 N 
HETATM   20  H   UNL     1       9.246  32.942  64.130  1.00  0.00     0.167 HD
HETATM   21  C   UNL     1       7.154  33.092  64.079  1.00  0.00     0.111 A 
HETATM   22  N   UNL     1       6.274  32.737  63.124  1.00  0.00    -0.317 N 
HETATM   23  C   UNL     1       6.709  33.701  65.355  1.00  0.00     0.049 A 
HETATM   24  C   UNL     1       6.958  32.191  62.053  1.00  0.00     0.123 A 
HETATM   25  C   UNL     1       4.912  32.921  63.265  1.00  0.00     0.098 A 
HETATM   26  C   UNL     1       4.480  33.473  64.415  1.00  0.00     0.018 A 
HETATM   27  C   UNL     1       5.381  33.876  65.493  1.00  0.00     0.005 A 
ENDBRANCH  17  18
ENDBRANCH   2  17
TORSDOF 4
ENDMDL
MODEL 6
REMARK VINA RESULT:      -8.3      1.422      2.087
REMARK  4 active torsions:
REMARK  status: ('A' for Active; 'I' for Inactive)
REMARK    1  A    between atoms: N_2  and  C_3 
REMARK    2  A    between atoms: C_9  and  N_10 
REMARK       I    between atoms: N_10  and  C_11 
REMARK    3  A    between atoms: C_11  and  C_12 
REMARK    4  A    between atoms: C_12  and  C_13 
ROOT
HETATM    1  N   UNL     1       8.477  28.124  55.443  1.00  0.00    -0.327 N 
HETATM    2  C   UNL     1       7.227  27.626  55.114  1.00  0.00     0.227 C 
HETATM    3  O   UNL     1       6.185  27.807  55.745  1.00  0.00    -0.273 OA
HETATM    4  H   UNL     1       9.265  27.839  54.870  1.00  0.00     0.169 HD
ENDROOT
BRANCH   1   5
HETATM    5  C   UNL     1       8.803  28.989  56.513  1.00  0.00     0.037 A 
HETATM    6  C   UNL     1       7.976  29.186  57.628  1.00  0.00     0.069 A 
HETATM    7  C   UNL     1       8.428  30.105  58.571  1.00  0.00     0.110 A 
HETATM    8  O   UNL     1       7.800  30.487  59.719  1.00  0.00    -0.276 OA
HETATM    9  C   UNL     1       9.614  30.809  58.489  1.00  0.00     0.095 A 
HETATM   10  C   UNL     1       8.643  31.422  60.271  1.00  0.00     0.249 A 
HETATM   11  N   UNL     1       9.742  31.633  59.573  1.00  0.00    -0.206 NA
HETATM   12  C   UNL     1      10.446  30.600  57.387  1.00  0.00     0.037 A 
HETATM   13  C   UNL     1      10.021  29.689  56.403  1.00  0.00     0.032 A 
BRANCH  10  14
HETATM   14  N   UNL     1       8.249  32.018  61.421  1.00  0.00    -0.354 N 
HETATM   15  C   UNL     1       7.170  32.990  61.370  1.00  0.00     0.152 C 
HETATM   16  C   UNL     1       8.348  31.218  62.632  1.00  0.00     0.152 C 
ENDBRANCH  10  14
ENDBRANCH   1   5
BRANCH   2  17
HETATM   17  C   UNL     1       7.246  26.804  53.837  1.00  0.00     0.161 C 
BRANCH  17  18
HETATM   18  C   UNL     1       7.414  25.351  54.073  1.00  0.00     0.035 A 
HETATM   19  N   UNL     1       7.614  24.409  53.068  1.00  0.00    -0.344 N 
HETATM   20  H   UNL     1       7.665  24.657  52.074  1.00  0.00     0.167 HD
HETATM   21  C   UNL     1       7.721  23.185  53.567  1.00  0.00     0.111 A 
HETATM   22  N   UNL     1       7.610  23.291  54.905  1.00  0.00    -0.317 N 
HETATM   23  C   UNL     1       7.920  21.873  52.908  1.00  0.00     0.049 A 
HETATM   24  C   UNL     1       7.425  24.619  55.245  1.00  0.00     0.123 A 
HETATM   25  C   UNL     1       7.680  22.196  55.744  1.00  0.00     0.098 A 
HETATM   26  C   UNL     1       7.861  20.990  55.171  1.00  0.00     0.018 A 
HETATM   27  C   UNL     1       7.984  20.806  53.726  1.00  0.00     0.005 A 
ENDBRANCH  17  18
ENDBRANCH   2  17
TORSDOF 4
ENDMDL
MODEL 7
REMARK VINA RESULT:      -8.2      4.221      7.780
REMARK  4 active torsions:
REMARK  status: ('A' for Active; 'I' for Inactive)
REMARK    1  A    between atoms: N_2  and  C_3 
REMARK    2  A    between atoms: C_9  and  N_10 
REMARK       I    between atoms: N_10  and  C_11 
REMARK    3  A    between atoms: C_11  and  C_12 
REMARK    4  A    between atoms: C_12  and  C_13 
ROOT
HETATM    1  N   UNL     1       6.895  26.755  53.555  1.00  0.00    -0.327 N 
HETATM    2  C   UNL     1       6.490  26.536  54.861  1.00  0.00     0.227 C 
HETATM    3  O   UNL     1       5.352  26.692  55.303  1.00  0.00    -0.273 OA
HETATM    4  H   UNL     1       7.882  26.653  53.342  1.00  0.00     0.169 HD
ENDROOT
BRANCH   1   5
HETATM    5  C   UNL     1       6.087  27.126  52.455  1.00  0.00     0.037 A 
HETATM    6  C   UNL     1       5.592  26.210  51.516  1.00  0.00     0.069 A 
HETATM    7  C   UNL     1       4.846  26.748  50.470  1.00  0.00     0.110 A 
HETATM    8  O   UNL     1       4.282  26.076  49.427  1.00  0.00    -0.276 OA
HETATM    9  C   UNL     1       4.560  28.090  50.308  1.00  0.00     0.095 A 
HETATM   10  C   UNL     1       3.687  27.059  48.674  1.00  0.00     0.249 A 
HETATM   11  N   UNL     1       3.820  28.273  49.172  1.00  0.00    -0.206 NA
HETATM   12  C   UNL     1       5.038  29.000  51.252  1.00  0.00     0.037 A 
HETATM   13  C   UNL     1       5.807  28.500  52.319  1.00  0.00     0.032 A 
BRANCH  10  14
HETATM   14  N   UNL     1       3.071  26.683  47.528  1.00  0.00    -0.354 N 
HETATM   15  C   UNL     1       2.925  25.265  47.247  1.00  0.00     0.152 C 
HETATM   16  C   UNL     1       2.013  27.555  47.044  1.00  0.00     0.152 C 
ENDBRANCH  10  14
ENDBRANCH   1   5
BRANCH   2  17
HETATM   17  C   UNL     1       7.624  26.052  55.748  1.00  0.00     0.161 C 
BRANCH  17  18
HETATM   18  C   UNL     1       7.847  24.588  55.674  1.00  0.00     0.035 A 
HETATM   19  N   UNL     1       7.926  23.864  54.489  1.00  0.00    -0.344 N 
HETATM   20  H   UNL     1       7.838  24.298  53.563  1.00  0.00     0.167 HD
HETATM   21  C   UNL     1       8.119  22.573  54.723  1.00  0.00     0.111 A 
HETATM   22  N   UNL     1       8.188  22.418  56.059  1.00  0.00    -0.317 N 
HETATM   23  C   UNL     1       8.250  21.419  53.802  1.00  0.00     0.049 A 
HETATM   24  C   UNL     1       8.028  23.649  56.670  1.00  0.00     0.123 A 
HETATM   25  C   UNL     1       8.389  21.187  56.653  1.00  0.00     0.098 A 
HETATM   26  C   UNL     1       8.511  20.121  55.839  1.00  0.00     0.018 A 
HETATM   27  C   UNL     1       8.442  20.220  54.383  1.00  0.00     0.005 A 
ENDBRANCH  17  18
ENDBRANCH   2  17
TORSDOF 4
ENDMDL
MODEL 8
REMARK VINA RESULT:      -8.2      4.653      8.770
REMARK  4 active torsions:
REMARK  status: ('A' for Active; 'I' for Inactive)
REMARK    1  A    between atoms: N_2  and  C_3 
REMARK    2  A    between atoms: C_9  and  N_10 
REMARK       I    between atoms: N_10  and  C_11 
REMARK    3  A    between atoms: C_11  and  C_12 
REMARK    4  A    between atoms: C_12  and  C_13 
ROOT
HETATM    1  N   UNL     1       4.573  26.952  53.886  1.00  0.00    -0.327 N 
HETATM    2  C   UNL     1       4.965  28.051  53.140  1.00  0.00     0.227 C 
HETATM    3  O   UNL     1       6.118  28.333  52.815  1.00  0.00    -0.273 OA
HETATM    4  H   UNL     1       3.593  26.877  54.141  1.00  0.00     0.169 HD
ENDROOT
BRANCH   1   5
HETATM    5  C   UNL     1       5.391  25.900  54.362  1.00  0.00     0.037 A 
HETATM    6  C   UNL     1       5.924  24.901  53.534  1.00  0.00     0.069 A 
HETATM    7  C   UNL     1       6.675  23.916  54.171  1.00  0.00     0.110 A 
HETATM    8  O   UNL     1       7.272  22.834  53.597  1.00  0.00    -0.276 OA
HETATM    9  C   UNL     1       6.933  23.866  55.527  1.00  0.00     0.095 A 
HETATM   10  C   UNL     1       7.858  22.172  54.650  1.00  0.00     0.249 A 
HETATM   11  N   UNL     1       7.688  22.763  55.816  1.00  0.00    -0.206 NA
HETATM   12  C   UNL     1       6.417  24.871  56.348  1.00  0.00     0.037 A 
HETATM   13  C   UNL     1       5.642  25.879  55.748  1.00  0.00     0.032 A 
BRANCH  10  14
HETATM   14  N   UNL     1       8.501  21.012  54.380  1.00  0.00    -0.354 N 
HETATM   15  C   UNL     1       8.638  20.026  55.439  1.00  0.00     0.152 C 
HETATM   16  C   UNL     1       8.370  20.498  53.026  1.00  0.00     0.152 C 
ENDBRANCH  10  14
ENDBRANCH   1   5
BRANCH   2  17
HETATM   17  C   UNL     1       3.790  28.920  52.725  1.00  0.00     0.161 C 
BRANCH  17  18
HETATM   18  C   UNL     1       3.309  28.644  51.349  1.00  0.00     0.035 A 
HETATM   19  N   UNL     1       3.879  27.710  50.490  1.00  0.00    -0.344 N 
HETATM   20  H   UNL     1       4.685  27.131  50.751  1.00  0.00     0.167 HD
HETATM   21  C   UNL     1       3.253  27.683  49.321  1.00  0.00     0.111 A 
HETATM   22  N   UNL     1       2.251  28.581  49.387  1.00  0.00    -0.317 N 
HETATM   23  C   UNL     1       3.495  26.882  48.098  1.00  0.00     0.049 A 
HETATM   24  C   UNL     1       2.260  29.185  50.632  1.00  0.00     0.123 A 
HETATM   25  C   UNL     1       1.389  28.809  48.332  1.00  0.00     0.098 A 
HETATM   26  C   UNL     1       1.587  28.094  47.208  1.00  0.00     0.018 A 
HETATM   27  C   UNL     1       2.657  27.108  47.070  1.00  0.00     0.005 A 
ENDBRANCH  17  18
ENDBRANCH   2  17
TORSDOF 4
ENDMDL
MODEL 9
REMARK VINA RESULT:      -7.9      6.647     10.681
REMARK  4 active torsions:
REMARK  status: ('A' for Active; 'I' for Inactive)
REMARK    1  A    between atoms: N_2  and  C_3 
REMARK    2  A    between atoms: C_9  and  N_10 
REMARK       I    between atoms: N_10  and  C_11 
REMARK    3  A    between atoms: C_11  and  C_12 
REMARK    4  A    between atoms: C_12  and  C_13 
ROOT
HETATM    1  N   UNL     1       5.241  33.908  63.740  1.00  0.00    -0.327 N 
HETATM    2  C   UNL     1       5.037  32.742  63.021  1.00  0.00     0.227 C 
HETATM    3  O   UNL     1       4.915  31.611  63.492  1.00  0.00    -0.273 OA
HETATM    4  H   UNL     1       5.394  34.765  63.219  1.00  0.00     0.169 HD
ENDROOT
BRANCH   1   5
HETATM    5  C   UNL     1       5.278  34.055  65.147  1.00  0.00     0.037 A 
HETATM    6  C   UNL     1       6.463  34.025  65.896  1.00  0.00     0.069 A 
HETATM    7  C   UNL     1       6.318  34.143  67.276  1.00  0.00     0.110 A 
HETATM    8  O   UNL     1       7.305  34.119  68.215  1.00  0.00    -0.276 OA
HETATM    9  C   UNL     1       5.114  34.297  67.937  1.00  0.00     0.095 A 
HETATM   10  C   UNL     1       6.638  34.248  69.410  1.00  0.00     0.249 A 
HETATM   11  N   UNL     1       5.331  34.369  69.286  1.00  0.00    -0.206 NA
HETATM   12  C   UNL     1       3.936  34.344  67.189  1.00  0.00     0.037 A 
HETATM   13  C   UNL     1       4.036  34.215  65.793  1.00  0.00     0.032 A 
BRANCH  10  14
HETATM   14  N   UNL     1       7.376  34.212  70.545  1.00  0.00    -0.354 N 
HETATM   15  C   UNL     1       8.720  34.764  70.522  1.00  0.00     0.152 C 
HETATM   16  C   UNL     1       6.645  34.331  71.797  1.00  0.00     0.152 C 
ENDBRANCH  10  14
ENDBRANCH   1   5
BRANCH   2  17
HETATM   17  C   UNL     1       4.962  32.987  61.524  1.00  0.00     0.161 C 
BRANCH  17  18
HETATM   18  C   UNL     1       6.127  32.452  60.779  1.00  0.00     0.035 A 
HETATM   19  N   UNL     1       6.043  31.496  59.772  1.00  0.00    -0.344 N 
HETATM   20  H   UNL     1       5.154  31.088  59.462  1.00  0.00     0.167 HD
HETATM   21  C   UNL     1       7.242  31.197  59.289  1.00  0.00     0.111 A 
HETATM   22  N   UNL     1       8.137  31.954  59.951  1.00  0.00    -0.317 N 
HETATM   23  C   UNL     1       7.664  30.241  58.238  1.00  0.00     0.049 A 
HETATM   24  C   UNL     1       7.474  32.743  60.874  1.00  0.00     0.123 A 
HETATM   25  C   UNL     1       9.493  31.896  59.694  1.00  0.00     0.098 A 
HETATM   26  C   UNL     1       9.904  31.035  58.743  1.00  0.00     0.018 A 
HETATM   27  C   UNL     1       8.985  30.183  57.991  1.00  0.00     0.005 A 
ENDBRANCH  17  18
ENDBRANCH   2  17
TORSDOF 4
ENDMDL
MODEL 10
REMARK VINA RESULT:      -7.8      4.883     12.287
REMARK  4 active torsions:
REMARK  status: ('A' for Active; 'I' for Inactive)
REMARK    1  A    between atoms: N_2  and  C_3 
REMARK    2  A    between atoms: C_9  and  N_10 
REMARK       I    between atoms: N_10  and  C_11 
REMARK    3  A    between atoms: C_11  and  C_12 
REMARK    4  A    between atoms: C_12  and  C_13 
ROOT
HETATM    1  N   UNL     1       6.478  33.105  62.906  1.00  0.00    -0.327 N 
HETATM    2  C   UNL     1       5.371  32.684  63.623  1.00  0.00     0.227 C 
HETATM    3  O   UNL     1       4.821  31.586  63.531  1.00  0.00    -0.273 OA
HETATM    4  H   UNL     1       6.787  34.063  63.032  1.00  0.00     0.169 HD
ENDROOT
BRANCH   1   5
HETATM    5  C   UNL     1       7.243  32.352  61.985  1.00  0.00     0.037 A 
HETATM    6  C   UNL     1       6.865  32.151  60.649  1.00  0.00     0.069 A 
HETATM    7  C   UNL     1       7.712  31.349  59.888  1.00  0.00     0.110 A 
HETATM    8  O   UNL     1       7.554  30.986  58.584  1.00  0.00    -0.276 OA
HETATM    9  C   UNL     1       8.875  30.762  60.348  1.00  0.00     0.095 A 
HETATM   10  C   UNL     1       8.637  30.180  58.324  1.00  0.00     0.249 A 
HETATM   11  N   UNL     1       9.455  30.032  59.347  1.00  0.00    -0.206 NA
HETATM   12  C   UNL     1       9.260  30.977  61.673  1.00  0.00     0.037 A 
HETATM   13  C   UNL     1       8.427  31.771  62.481  1.00  0.00     0.032 A 
BRANCH  10  14
HETATM   14  N   UNL     1       8.723  29.629  57.090  1.00  0.00    -0.354 N 
HETATM   15  C   UNL     1       9.986  29.711  56.375  1.00  0.00     0.152 C 
HETATM   16  C   UNL     1       7.917  28.441  56.854  1.00  0.00     0.152 C 
ENDBRANCH  10  14
ENDBRANCH   1   5
BRANCH   2  17
HETATM   17  C   UNL     1       4.870  33.740  64.594  1.00  0.00     0.161 C 
BRANCH  17  18
HETATM   18  C   UNL     1       4.838  35.105  64.016  1.00  0.00     0.035 A 
HETATM   19  N   UNL     1       5.751  36.109  64.322  1.00  0.00    -0.344 N 
HETATM   20  H   UNL     1       6.529  35.975  64.977  1.00  0.00     0.167 HD
HETATM   21  C   UNL     1       5.475  37.229  63.666  1.00  0.00     0.111 A 
HETATM   22  N   UNL     1       4.390  36.987  62.907  1.00  0.00    -0.317 N 
HETATM   23  C   UNL     1       6.135  38.556  63.673  1.00  0.00     0.049 A 
HETATM   24  C   UNL     1       3.980  35.680  63.099  1.00  0.00     0.123 A 
HETATM   25  C   UNL     1       3.830  37.947  62.086  1.00  0.00     0.098 A 
HETATM   26  C   UNL     1       4.410  39.162  62.073  1.00  0.00     0.018 A 
HETATM   27  C   UNL     1       5.586  39.491  62.876  1.00  0.00     0.005 A 
ENDBRANCH  17  18
ENDBRANCH   2  17
TORSDOF 4
ENDMDL
