MODEL 1
REMARK VINA RESULT:      -9.8      0.000      0.000
REMARK  6 active torsions:
REMARK  status: ('A' for Active; 'I' for Inactive)
REMARK    1  A    between atoms: C_4  and  C_5 
REMARK    2  A    between atoms: C_5  and  N_6 
REMARK    3  A    between atoms: C_5  and  C_25 
REMARK    4  A    between atoms: N_10  and  C_11 
REMARK    5  A    between atoms: C_15  and  C_16 
REMARK       I    between atoms: C_25  and  N_26 
REMARK    6  A    between atoms: N_26  and  C_27 
ROOT
HETATM    1  N   UNL     1       6.712  26.493  54.715  1.00  0.00    -0.051 N 
HETATM    2  H   UNL     1       5.792  26.129  55.028  1.00  0.00     0.281 HD
HETATM    3  C   UNL     1       7.660  26.197  55.865  1.00  0.00     0.256 C 
HETATM    4  C   UNL     1       7.141  26.874  57.153  1.00  0.00     0.152 C 
HETATM    5  N   UNL     1       6.889  28.319  56.966  1.00  0.00    -0.363 N 
HETATM    6  C   UNL     1       6.172  28.736  55.737  1.00  0.00     0.152 C 
HETATM    7  C   UNL     1       6.589  27.970  54.452  1.00  0.00     0.256 C 
ENDROOT
BRANCH   1   8
HETATM    8  C   UNL     1       6.955  25.626  53.439  1.00  0.00     0.312 C 
BRANCH   8   9
HETATM    9  C   UNL     1       7.283  24.178  53.739  1.00  0.00    -0.018 A 
HETATM   10  C   UNL     1       7.084  23.614  55.013  1.00  0.00     0.010 A 
HETATM   11  C   UNL     1       7.435  22.287  55.265  1.00  0.00     0.001 A 
HETATM   12  C   UNL     1       7.986  21.506  54.255  1.00  0.00     0.000 A 
HETATM   13  C   UNL     1       8.184  22.045  52.987  1.00  0.00     0.001 A 
HETATM   14  C   UNL     1       7.837  23.371  52.729  1.00  0.00     0.010 A 
ENDBRANCH   8   9
BRANCH   8  15
HETATM   15  C   UNL     1       5.769  25.858  52.470  1.00  0.00     0.259 C 
HETATM   16  N   UNL     1       6.058  26.523  51.305  1.00  0.00    -0.304 N 
HETATM   17  H   UNL     1       6.993  26.817  51.048  1.00  0.00     0.171 HD
HETATM   18  O   UNL     1       4.664  25.474  52.868  1.00  0.00    -0.270 OA
BRANCH  16  19
HETATM   19  C   UNL     1       5.084  26.797  50.384  1.00  0.00     0.172 A 
HETATM   20  S   UNL     1       4.477  28.389  50.454  1.00  0.00    -0.062 SA
HETATM   21  C   UNL     1       3.415  28.013  49.159  1.00  0.00     0.072 A 
HETATM   22  C   UNL     1       3.610  26.703  48.770  1.00  0.00     0.126 A 
HETATM   23  N   UNL     1       4.576  26.009  49.476  1.00  0.00    -0.236 NA
ENDBRANCH  16  19
ENDBRANCH   8  15
ENDBRANCH   1   8
BRANCH   5  24
HETATM   24  C   UNL     1       7.672  29.208  57.670  1.00  0.00     0.125 A 
HETATM   25  N   UNL     1       7.169  29.615  58.853  1.00  0.00    -0.350 N 
HETATM   26  H   UNL     1       6.246  29.258  59.101  1.00  0.00     0.166 HD
HETATM   27  C   UNL     1       7.785  30.472  59.684  1.00  0.00     0.106 A 
HETATM   28  C   UNL     1       9.029  30.993  59.352  1.00  0.00     0.065 A 
HETATM   29  C   UNL     1       9.597  30.621  58.131  1.00  0.00     0.045 A 
HETATM   30  C   UNL     1       8.927  29.728  57.291  1.00  0.00     0.078 A 
HETATM   31 CL   UNL     1       9.721  29.248  55.841  1.00  0.00    -0.080 Cl
BRANCH  28  32
HETATM   32  C   UNL     1       9.705  31.961  60.289  1.00  0.00     0.418 C 
HETATM   33  F   UNL     1      10.943  32.296  59.844  1.00  0.00    -0.166 F 
HETATM   34  F   UNL     1       9.014  33.115  60.436  1.00  0.00    -0.166 F 
HETATM   35  F   UNL     1       9.865  31.425  61.521  1.00  0.00    -0.166 F 
ENDBRANCH  28  32
ENDBRANCH   5  24
TORSDOF 6
ENDMDL
MODEL 2
REMARK VINA RESULT:      -9.6      5.814      9.451
REMARK  6 active torsions:
REMARK  status: ('A' for Active; 'I' for Inactive)
REMARK    1  A    between atoms: C_4  and  C_5 
REMARK    2  A    between atoms: C_5  and  N_6 
REMARK    3  A    between atoms: C_5  and  C_25 
REMARK    4  A    between atoms: N_10  and  C_11 
REMARK    5  A    between atoms: C_15  and  C_16 
REMARK       I    between atoms: C_25  and  N_26 
REMARK    6  A    between atoms: N_26  and  C_27 
ROOT
HETATM    1  N   UNL     1       6.948  28.124  56.936  1.00  0.00    -0.051 N 
HETATM    2  H   UNL     1       6.481  28.020  57.857  1.00  0.00     0.281 HD
HETATM    3  C   UNL     1       6.032  27.416  55.953  1.00  0.00     0.256 C 
HETATM    4  C   UNL     1       5.847  25.944  56.382  1.00  0.00     0.152 C 
HETATM    5  N   UNL     1       7.138  25.249  56.575  1.00  0.00    -0.363 N 
HETATM    6  C   UNL     1       8.197  25.966  57.326  1.00  0.00     0.152 C 
HETATM    7  C   UNL     1       8.308  27.481  57.003  1.00  0.00     0.256 C 
ENDROOT
BRANCH   1   8
HETATM    8  C   UNL     1       6.974  29.679  56.791  1.00  0.00     0.312 C 
BRANCH   8   9
HETATM    9  C   UNL     1       5.599  30.303  56.674  1.00  0.00    -0.018 A 
HETATM   10  C   UNL     1       4.578  30.044  57.607  1.00  0.00     0.010 A 
HETATM   11  C   UNL     1       3.310  30.604  57.446  1.00  0.00     0.001 A 
HETATM   12  C   UNL     1       3.043  31.429  56.359  1.00  0.00     0.000 A 
HETATM   13  C   UNL     1       4.042  31.701  55.429  1.00  0.00     0.001 A 
HETATM   14  C   UNL     1       5.311  31.143  55.583  1.00  0.00     0.010 A 
ENDBRANCH   8   9
BRANCH   8  15
HETATM   15  C   UNL     1       7.876  30.250  57.913  1.00  0.00     0.259 C 
HETATM   16  N   UNL     1       7.352  30.227  59.182  1.00  0.00    -0.304 N 
HETATM   17  H   UNL     1       6.450  29.824  59.406  1.00  0.00     0.171 HD
HETATM   18  O   UNL     1       8.956  30.727  57.548  1.00  0.00    -0.270 OA
BRANCH  16  19
HETATM   19  C   UNL     1       8.054  30.721  60.247  1.00  0.00     0.172 A 
HETATM   20  S   UNL     1       7.385  32.129  60.939  1.00  0.00    -0.062 SA
HETATM   21  C   UNL     1       8.672  32.152  62.074  1.00  0.00     0.072 A 
HETATM   22  C   UNL     1       9.510  31.080  61.841  1.00  0.00     0.126 A 
HETATM   23  N   UNL     1       9.147  30.257  60.790  1.00  0.00    -0.236 NA
ENDBRANCH  16  19
ENDBRANCH   8  15
ENDBRANCH   1   8
BRANCH   5  24
HETATM   24  C   UNL     1       7.449  24.213  55.722  1.00  0.00     0.125 A 
HETATM   25  N   UNL     1       7.427  22.981  56.271  1.00  0.00    -0.350 N 
HETATM   26  H   UNL     1       7.219  22.932  57.268  1.00  0.00     0.166 HD
HETATM   27  C   UNL     1       7.694  21.848  55.602  1.00  0.00     0.106 A 
HETATM   28  C   UNL     1       8.009  21.894  54.249  1.00  0.00     0.065 A 
HETATM   29  C   UNL     1       8.062  23.144  53.625  1.00  0.00     0.045 A 
HETATM   30  C   UNL     1       7.778  24.301  54.353  1.00  0.00     0.078 A 
HETATM   31 CL   UNL     1       7.781  25.799  53.504  1.00  0.00    -0.080 Cl
BRANCH  28  32
HETATM   32  C   UNL     1       8.316  20.616  53.512  1.00  0.00     0.418 C 
HETATM   33  F   UNL     1       8.613  19.609  54.372  1.00  0.00    -0.166 F 
HETATM   34  F   UNL     1       7.283  20.191  52.749  1.00  0.00    -0.166 F 
HETATM   35  F   UNL     1       9.387  20.761  52.698  1.00  0.00    -0.166 F 
ENDBRANCH  28  32
ENDBRANCH   5  24
TORSDOF 6
ENDMDL
MODEL 3
REMARK VINA RESULT:      -9.4      4.686      7.790
REMARK  6 active torsions:
REMARK  status: ('A' for Active; 'I' for Inactive)
REMARK    1  A    between atoms: C_4  and  C_5 
REMARK    2  A    between atoms: C_5  and  N_6 
REMARK    3  A    between atoms: C_5  and  C_25 
REMARK    4  A    between atoms: N_10  and  C_11 
REMARK    5  A    between atoms: C_15  and  C_16 
REMARK       I    between atoms: C_25  and  N_26 
REMARK    6  A    between atoms: N_26  and  C_27 
ROOT
HETATM    1  N   UNL     1       6.539  24.333  53.933  1.00  0.00    -0.051 N 
HETATM    2  H   UNL     1       6.549  23.401  53.476  1.00  0.00     0.281 HD
HETATM    3  C   UNL     1       5.129  24.856  53.720  1.00  0.00     0.256 C 
HETATM    4  C   UNL     1       4.818  24.913  52.208  1.00  0.00     0.152 C 
HETATM    5  N   UNL     1       5.838  25.672  51.453  1.00  0.00    -0.363 N 
HETATM    6  C   UNL     1       7.262  25.403  51.765  1.00  0.00     0.152 C 
HETATM    7  C   UNL     1       7.570  25.211  53.275  1.00  0.00     0.256 C 
ENDROOT
BRANCH   1   8
HETATM    8  C   UNL     1       6.867  23.944  55.409  1.00  0.00     0.312 C 
BRANCH   8   9
HETATM    9  C   UNL     1       7.534  22.590  55.548  1.00  0.00    -0.018 A 
HETATM   10  C   UNL     1       7.952  22.088  56.795  1.00  0.00     0.010 A 
HETATM   11  C   UNL     1       8.601  20.855  56.882  1.00  0.00     0.001 A 
HETATM   12  C   UNL     1       8.839  20.108  55.733  1.00  0.00     0.000 A 
HETATM   13  C   UNL     1       8.428  20.586  54.493  1.00  0.00     0.001 A 
HETATM   14  C   UNL     1       7.781  21.819  54.399  1.00  0.00     0.010 A 
ENDBRANCH   8   9
BRANCH   8  15
HETATM   15  C   UNL     1       7.619  25.130  56.062  1.00  0.00     0.259 C 
HETATM   16  N   UNL     1       6.909  26.297  56.195  1.00  0.00    -0.304 N 
HETATM   17  H   UNL     1       5.935  26.392  55.932  1.00  0.00     0.171 HD
HETATM   18  O   UNL     1       8.805  24.929  56.344  1.00  0.00    -0.270 OA
BRANCH  16  19
HETATM   19  C   UNL     1       7.478  27.415  56.742  1.00  0.00     0.172 A 
HETATM   20  S   UNL     1       8.045  28.547  55.600  1.00  0.00    -0.062 SA
HETATM   21  C   UNL     1       8.571  29.548  56.892  1.00  0.00     0.072 A 
HETATM   22  C   UNL     1       8.268  28.943  58.095  1.00  0.00     0.126 A 
HETATM   23  N   UNL     1       7.634  27.716  58.003  1.00  0.00    -0.236 NA
ENDBRANCH  16  19
ENDBRANCH   8  15
ENDBRANCH   1   8
BRANCH   5  24
HETATM   24  C   UNL     1       5.452  26.848  50.848  1.00  0.00     0.125 A 
HETATM   25  N   UNL     1       5.258  26.779  49.515  1.00  0.00    -0.350 N 
HETATM   26  H   UNL     1       5.447  25.879  49.074  1.00  0.00     0.166 HD
HETATM   27  C   UNL     1       4.875  27.815  48.750  1.00  0.00     0.106 A 
HETATM   28  C   UNL     1       4.640  29.058  49.325  1.00  0.00     0.065 A 
HETATM   29  C   UNL     1       4.838  29.197  50.702  1.00  0.00     0.045 A 
HETATM   30  C   UNL     1       5.238  28.098  51.466  1.00  0.00     0.078 A 
HETATM   31 CL   UNL     1       5.383  28.319  53.166  1.00  0.00    -0.080 Cl
BRANCH  28  32
HETATM   32  C   UNL     1       4.220  30.214  48.454  1.00  0.00     0.418 C 
HETATM   33  F   UNL     1       3.501  29.790  47.385  1.00  0.00    -0.166 F 
HETATM   34  F   UNL     1       3.453  31.113  49.113  1.00  0.00    -0.166 F 
HETATM   35  F   UNL     1       5.292  30.878  47.964  1.00  0.00    -0.166 F 
ENDBRANCH  28  32
ENDBRANCH   5  24
TORSDOF 6
ENDMDL
MODEL 4
REMARK VINA RESULT:      -9.3      2.482      3.019
REMARK  6 active torsions:
REMARK  status: ('A' for Active; 'I' for Inactive)
REMARK    1  A    between atoms: C_4  and  C_5 
REMARK    2  A    between atoms: C_5  and  N_6 
REMARK    3  A    between atoms: C_5  and  C_25 
REMARK    4  A    between atoms: N_10  and  C_11 
REMARK    5  A    between atoms: C_15  and  C_16 
REMARK       I    between atoms: C_25  and  N_26 
REMARK    6  A    between atoms: N_26  and  C_27 
ROOT
HETATM    1  N   UNL     1       6.922  26.329  54.807  1.00  0.00    -0.051 N 
HETATM    2  H   UNL     1       7.412  25.766  55.529  1.00  0.00     0.281 HD
HETATM    3  C   UNL     1       7.682  27.643  54.756  1.00  0.00     0.256 C 
HETATM    4  C   UNL     1       7.674  28.302  56.153  1.00  0.00     0.152 C 
HETATM    5  N   UNL     1       6.308  28.443  56.700  1.00  0.00    -0.363 N 
HETATM    6  C   UNL     1       5.398  27.279  56.580  1.00  0.00     0.152 C 
HETATM    7  C   UNL     1       5.489  26.522  55.227  1.00  0.00     0.256 C 
ENDROOT
BRANCH   1   8
HETATM    8  C   UNL     1       7.111  25.425  53.548  1.00  0.00     0.312 C 
BRANCH   8   9
HETATM    9  C   UNL     1       7.375  23.969  53.876  1.00  0.00    -0.018 A 
HETATM   10  C   UNL     1       7.329  23.480  55.195  1.00  0.00     0.010 A 
HETATM   11  C   UNL     1       7.617  22.142  55.467  1.00  0.00     0.001 A 
HETATM   12  C   UNL     1       7.952  21.275  54.432  1.00  0.00     0.000 A 
HETATM   13  C   UNL     1       7.997  21.740  53.121  1.00  0.00     0.001 A 
HETATM   14  C   UNL     1       7.712  23.077  52.844  1.00  0.00     0.010 A 
ENDBRANCH   8   9
BRANCH   8  15
HETATM   15  C   UNL     1       5.927  25.690  52.585  1.00  0.00     0.259 C 
HETATM   16  N   UNL     1       6.128  26.652  51.628  1.00  0.00    -0.304 N 
HETATM   17  H   UNL     1       7.005  27.144  51.506  1.00  0.00     0.171 HD
HETATM   18  O   UNL     1       4.894  25.051  52.812  1.00  0.00    -0.270 OA
BRANCH  16  19
HETATM   19  C   UNL     1       5.144  26.981  50.736  1.00  0.00     0.172 A 
HETATM   20  S   UNL     1       4.331  28.437  51.088  1.00  0.00    -0.062 SA
HETATM   21  C   UNL     1       3.352  28.197  49.698  1.00  0.00     0.072 A 
HETATM   22  C   UNL     1       3.726  27.027  49.069  1.00  0.00     0.126 A 
HETATM   23  N   UNL     1       4.762  26.332  49.669  1.00  0.00    -0.236 NA
ENDBRANCH  16  19
ENDBRANCH   8  15
ENDBRANCH   1   8
BRANCH   5  24
HETATM   24  C   UNL     1       5.813  29.716  56.886  1.00  0.00     0.125 A 
HETATM   25  N   UNL     1       6.088  30.277  58.081  1.00  0.00    -0.350 N 
HETATM   26  H   UNL     1       6.603  29.700  58.747  1.00  0.00     0.166 HD
HETATM   27  C   UNL     1       5.700  31.509  58.448  1.00  0.00     0.106 A 
HETATM   28  C   UNL     1       4.973  32.302  57.567  1.00  0.00     0.065 A 
HETATM   29  C   UNL     1       4.644  31.771  56.317  1.00  0.00     0.045 A 
HETATM   30  C   UNL     1       5.065  30.484  55.971  1.00  0.00     0.078 A 
HETATM   31 CL   UNL     1       4.696  29.923  54.386  1.00  0.00    -0.080 Cl
BRANCH  28  32
HETATM   32  C   UNL     1       4.534  33.679  57.994  1.00  0.00     0.418 C 
HETATM   33  F   UNL     1       4.923  33.949  59.266  1.00  0.00    -0.166 F 
HETATM   34  F   UNL     1       5.045  34.656  57.210  1.00  0.00    -0.166 F 
HETATM   35  F   UNL     1       3.187  33.799  57.965  1.00  0.00    -0.166 F 
ENDBRANCH  28  32
ENDBRANCH   5  24
TORSDOF 6
ENDMDL
MODEL 5
REMARK VINA RESULT:      -9.2      5.729      9.058
REMARK  6 active torsions:
REMARK  status: ('A' for Active; 'I' for Inactive)
REMARK    1  A    between atoms: C_4  and  C_5 
REMARK    2  A    between atoms: C_5  and  N_6 
REMARK    3  A    between atoms: C_5  and  C_25 
REMARK    4  A    between atoms: N_10  and  C_11 
REMARK    5  A    between atoms: C_15  and  C_16 
REMARK       I    between atoms: C_25  and  N_26 
REMARK    6  A    between atoms: N_26  and  C_27 
ROOT
HETATM    1  N   UNL     1       5.653  26.333  52.962  1.00  0.00    -0.051 N 
HETATM    2  H   UNL     1       6.668  26.496  52.821  1.00  0.00     0.281 HD
HETATM    3  C   UNL     1       5.218  25.517  51.757  1.00  0.00     0.256 C 
HETATM    4  C   UNL     1       5.539  26.292  50.461  1.00  0.00     0.152 C 
HETATM    5  N   UNL     1       4.974  27.659  50.469  1.00  0.00    -0.363 N 
HETATM    6  C   UNL     1       5.138  28.461  51.706  1.00  0.00     0.152 C 
HETATM    7  C   UNL     1       4.949  27.663  53.025  1.00  0.00     0.256 C 
ENDROOT
BRANCH   1   8
HETATM    8  C   UNL     1       5.663  25.543  54.309  1.00  0.00     0.312 C 
BRANCH   8   9
HETATM    9  C   UNL     1       6.637  24.382  54.327  1.00  0.00    -0.018 A 
HETATM   10  C   UNL     1       7.358  23.993  53.182  1.00  0.00     0.010 A 
HETATM   11  C   UNL     1       8.216  22.893  53.223  1.00  0.00     0.001 A 
HETATM   12  C   UNL     1       8.368  22.168  54.401  1.00  0.00     0.000 A 
HETATM   13  C   UNL     1       7.667  22.542  55.544  1.00  0.00     0.001 A 
HETATM   14  C   UNL     1       6.807  23.640  55.508  1.00  0.00     0.010 A 
ENDBRANCH   8   9
BRANCH   8  15
HETATM   15  C   UNL     1       5.818  26.564  55.463  1.00  0.00     0.259 C 
HETATM   16  N   UNL     1       7.028  27.206  55.546  1.00  0.00    -0.304 N 
HETATM   17  H   UNL     1       7.778  27.073  54.877  1.00  0.00     0.171 HD
HETATM   18  O   UNL     1       4.857  26.657  56.234  1.00  0.00    -0.270 OA
BRANCH  16  19
HETATM   19  C   UNL     1       7.282  28.116  56.536  1.00  0.00     0.172 A 
HETATM   20  S   UNL     1       6.637  29.668  56.249  1.00  0.00    -0.062 SA
HETATM   21  C   UNL     1       7.300  30.191  57.743  1.00  0.00     0.072 A 
HETATM   22  C   UNL     1       7.957  29.139  58.349  1.00  0.00     0.126 A 
HETATM   23  N   UNL     1       7.940  27.945  57.651  1.00  0.00    -0.236 NA
ENDBRANCH  16  19
ENDBRANCH   8  15
ENDBRANCH   1   8
BRANCH   5  24
HETATM   24  C   UNL     1       3.988  27.957  49.554  1.00  0.00     0.125 A 
HETATM   25  N   UNL     1       2.771  28.215  50.075  1.00  0.00    -0.350 N 
HETATM   26  H   UNL     1       2.682  28.131  51.087  1.00  0.00     0.166 HD
HETATM   27  C   UNL     1       1.686  28.531  49.347  1.00  0.00     0.106 A 
HETATM   28  C   UNL     1       1.777  28.622  47.963  1.00  0.00     0.065 A 
HETATM   29  C   UNL     1       3.009  28.352  47.363  1.00  0.00     0.045 A 
HETATM   30  C   UNL     1       4.115  28.025  48.151  1.00  0.00     0.078 A 
HETATM   31 CL   UNL     1       5.622  27.786  47.353  1.00  0.00    -0.080 Cl
BRANCH  28  32
HETATM   32  C   UNL     1       0.551  28.968  47.158  1.00  0.00     0.418 C 
HETATM   33  F   UNL     1       0.882  29.390  45.912  1.00  0.00    -0.166 F 
HETATM   34  F   UNL     1      -0.290  27.918  47.008  1.00  0.00    -0.166 F 
HETATM   35  F   UNL     1      -0.152  29.970  47.735  1.00  0.00    -0.166 F 
ENDBRANCH  28  32
ENDBRANCH   5  24
TORSDOF 6
ENDMDL
MODEL 6
REMARK VINA RESULT:      -9.2      2.297      4.533
REMARK  6 active torsions:
REMARK  status: ('A' for Active; 'I' for Inactive)
REMARK    1  A    between atoms: C_4  and  C_5 
REMARK    2  A    between atoms: C_5  and  N_6 
REMARK    3  A    between atoms: C_5  and  C_25 
REMARK    4  A    between atoms: N_10  and  C_11 
REMARK    5  A    between atoms: C_15  and  C_16 
REMARK       I    between atoms: C_25  and  N_26 
REMARK    6  A    between atoms: N_26  and  C_27 
ROOT
HETATM    1  N   UNL     1       5.194  27.519  54.830  1.00  0.00    -0.051 N 
HETATM    2  H   UNL     1       4.215  27.858  54.768  1.00  0.00     0.281 HD
HETATM    3  C   UNL     1       5.358  27.061  56.269  1.00  0.00     0.256 C 
HETATM    4  C   UNL     1       5.056  28.235  57.226  1.00  0.00     0.152 C 
HETATM    5  N   UNL     1       5.853  29.439  56.907  1.00  0.00    -0.363 N 
HETATM    6  C   UNL     1       5.955  29.835  55.482  1.00  0.00     0.152 C 
HETATM    7  C   UNL     1       6.126  28.652  54.491  1.00  0.00     0.256 C 
ENDROOT
BRANCH   1   8
HETATM    8  C   UNL     1       5.174  26.362  53.782  1.00  0.00     0.312 C 
BRANCH   8   9
HETATM    9  C   UNL     1       4.874  26.822  52.371  1.00  0.00    -0.018 A 
HETATM   10  C   UNL     1       4.200  28.029  52.105  1.00  0.00     0.010 A 
HETATM   11  C   UNL     1       3.903  28.404  50.794  1.00  0.00     0.001 A 
HETATM   12  C   UNL     1       4.273  27.585  49.732  1.00  0.00     0.000 A 
HETATM   13  C   UNL     1       4.945  26.390  49.976  1.00  0.00     0.001 A 
HETATM   14  C   UNL     1       5.242  26.010  51.284  1.00  0.00     0.010 A 
ENDBRANCH   8   9
BRANCH   8  15
HETATM   15  C   UNL     1       6.473  25.536  53.955  1.00  0.00     0.259 C 
HETATM   16  N   UNL     1       6.313  24.191  54.172  1.00  0.00    -0.304 N 
HETATM   17  H   UNL     1       5.410  23.731  54.179  1.00  0.00     0.171 HD
HETATM   18  O   UNL     1       7.528  26.180  53.940  1.00  0.00    -0.270 OA
BRANCH  16  19
HETATM   19  C   UNL     1       7.391  23.369  54.356  1.00  0.00     0.172 A 
HETATM   20  S   UNL     1       7.885  23.207  55.980  1.00  0.00    -0.062 SA
HETATM   21  C   UNL     1       9.143  22.159  55.465  1.00  0.00     0.072 A 
HETATM   22  C   UNL     1       9.085  22.008  54.094  1.00  0.00     0.126 A 
HETATM   23  N   UNL     1       8.071  22.704  53.461  1.00  0.00    -0.236 NA
ENDBRANCH  16  19
ENDBRANCH   8  15
ENDBRANCH   1   8
BRANCH   5  24
HETATM   24  C   UNL     1       6.782  29.863  57.831  1.00  0.00     0.125 A 
HETATM   25  N   UNL     1       6.366  30.832  58.671  1.00  0.00    -0.350 N 
HETATM   26  H   UNL     1       5.420  31.186  58.525  1.00  0.00     0.166 HD
HETATM   27  C   UNL     1       7.122  31.371  59.642  1.00  0.00     0.106 A 
HETATM   28  C   UNL     1       8.424  30.925  59.841  1.00  0.00     0.065 A 
HETATM   29  C   UNL     1       8.918  29.931  58.992  1.00  0.00     0.045 A 
HETATM   30  C   UNL     1       8.103  29.395  57.992  1.00  0.00     0.078 A 
HETATM   31 CL   UNL     1       8.748  28.118  57.036  1.00  0.00    -0.080 Cl
BRANCH  28  32
HETATM   32  C   UNL     1       9.265  31.544  60.928  1.00  0.00     0.418 C 
HETATM   33  F   UNL     1       8.523  32.354  61.725  1.00  0.00    -0.166 F 
HETATM   34  F   UNL     1       9.842  30.621  61.731  1.00  0.00    -0.166 F 
HETATM   35  F   UNL     1      10.255  32.307  60.410  1.00  0.00    -0.166 F 
ENDBRANCH  28  32
ENDBRANCH   5  24
TORSDOF 6
ENDMDL
MODEL 7
REMARK VINA RESULT:      -9.1      4.977      7.864
REMARK  6 active torsions:
REMARK  status: ('A' for Active; 'I' for Inactive)
REMARK    1  A    between atoms: C_4  and  C_5 
REMARK    2  A    between atoms: C_5  and  N_6 
REMARK    3  A    between atoms: C_5  and  C_25 
REMARK    4  A    between atoms: N_10  and  C_11 
REMARK    5  A    between atoms: C_15  and  C_16 
REMARK       I    between atoms: C_25  and  N_26 
REMARK    6  A    between atoms: N_26  and  C_27 
ROOT
HETATM    1  N   UNL     1       5.558  27.767  56.535  1.00  0.00    -0.051 N 
HETATM    2  H   UNL     1       6.002  28.012  57.440  1.00  0.00     0.281 HD
HETATM    3  C   UNL     1       5.019  26.360  56.733  1.00  0.00     0.256 C 
HETATM    4  C   UNL     1       6.174  25.412  57.124  1.00  0.00     0.152 C 
HETATM    5  N   UNL     1       7.299  25.472  56.165  1.00  0.00    -0.363 N 
HETATM    6  C   UNL     1       7.747  26.813  55.718  1.00  0.00     0.152 C 
HETATM    7  C   UNL     1       6.599  27.823  55.448  1.00  0.00     0.256 C 
ENDROOT
BRANCH   1   8
HETATM    8  C   UNL     1       4.458  28.871  56.436  1.00  0.00     0.312 C 
BRANCH   8   9
HETATM    9  C   UNL     1       4.682  30.040  57.373  1.00  0.00    -0.018 A 
HETATM   10  C   UNL     1       3.615  30.783  57.910  1.00  0.00     0.010 A 
HETATM   11  C   UNL     1       3.858  31.880  58.738  1.00  0.00     0.001 A 
HETATM   12  C   UNL     1       5.164  32.250  59.043  1.00  0.00     0.000 A 
HETATM   13  C   UNL     1       6.232  31.523  58.526  1.00  0.00     0.001 A 
HETATM   14  C   UNL     1       5.995  30.427  57.696  1.00  0.00     0.010 A 
ENDBRANCH   8   9
BRANCH   8  15
HETATM   15  C   UNL     1       4.280  29.236  54.941  1.00  0.00     0.259 C 
HETATM   16  N   UNL     1       3.821  28.235  54.123  1.00  0.00    -0.304 N 
HETATM   17  H   UNL     1       3.564  27.314  54.458  1.00  0.00     0.171 HD
HETATM   18  O   UNL     1       4.625  30.379  54.619  1.00  0.00    -0.270 OA
BRANCH  16  19
HETATM   19  C   UNL     1       3.643  28.440  52.782  1.00  0.00     0.172 A 
HETATM   20  S   UNL     1       4.902  27.837  51.803  1.00  0.00    -0.062 SA
HETATM   21  C   UNL     1       4.066  28.414  50.419  1.00  0.00     0.072 A 
HETATM   22  C   UNL     1       2.888  29.017  50.810  1.00  0.00     0.126 A 
HETATM   23  N   UNL     1       2.647  29.025  52.173  1.00  0.00    -0.236 NA
ENDBRANCH  16  19
ENDBRANCH   8  15
ENDBRANCH   1   8
BRANCH   5  24
HETATM   24  C   UNL     1       7.578  24.345  55.424  1.00  0.00     0.125 A 
HETATM   25  N   UNL     1       7.576  23.184  56.109  1.00  0.00    -0.350 N 
HETATM   26  H   UNL     1       7.404  23.248  57.112  1.00  0.00     0.166 HD
HETATM   27  C   UNL     1       7.818  21.980  55.563  1.00  0.00     0.106 A 
HETATM   28  C   UNL     1       8.083  21.872  54.203  1.00  0.00     0.065 A 
HETATM   29  C   UNL     1       8.113  23.043  53.440  1.00  0.00     0.045 A 
HETATM   30  C   UNL     1       7.857  24.277  54.043  1.00  0.00     0.078 A 
HETATM   31 CL   UNL     1       7.830  25.669  53.031  1.00  0.00    -0.080 Cl
BRANCH  28  32
HETATM   32  C   UNL     1       8.362  20.518  53.604  1.00  0.00     0.418 C 
HETATM   33  F   UNL     1       9.472  20.543  52.824  1.00  0.00    -0.166 F 
HETATM   34  F   UNL     1       8.560  19.563  54.541  1.00  0.00    -0.166 F 
HETATM   35  F   UNL     1       7.342  20.107  52.816  1.00  0.00    -0.166 F 
ENDBRANCH  28  32
ENDBRANCH   5  24
TORSDOF 6
ENDMDL
MODEL 8
REMARK VINA RESULT:      -9.0      5.444      7.808
REMARK  6 active torsions:
REMARK  status: ('A' for Active; 'I' for Inactive)
REMARK    1  A    between atoms: C_4  and  C_5 
REMARK    2  A    between atoms: C_5  and  N_6 
REMARK    3  A    between atoms: C_5  and  C_25 
REMARK    4  A    between atoms: N_10  and  C_11 
REMARK    5  A    between atoms: C_15  and  C_16 
REMARK       I    between atoms: C_25  and  N_26 
REMARK    6  A    between atoms: N_26  and  C_27 
ROOT
HETATM    1  N   UNL     1       5.315  27.189  51.706  1.00  0.00    -0.051 N 
HETATM    2  H   UNL     1       4.470  27.561  52.179  1.00  0.00     0.281 HD
HETATM    3  C   UNL     1       5.016  25.718  51.474  1.00  0.00     0.256 C 
HETATM    4  C   UNL     1       4.717  25.029  52.824  1.00  0.00     0.152 C 
HETATM    5  N   UNL     1       5.788  25.252  53.818  1.00  0.00    -0.363 N 
HETATM    6  C   UNL     1       6.323  26.629  53.951  1.00  0.00     0.152 C 
HETATM    7  C   UNL     1       6.505  27.386  52.608  1.00  0.00     0.256 C 
ENDROOT
BRANCH   1   8
HETATM    8  C   UNL     1       5.336  28.057  50.409  1.00  0.00     0.312 C 
BRANCH   8   9
HETATM    9  C   UNL     1       4.325  27.620  49.367  1.00  0.00    -0.018 A 
HETATM   10  C   UNL     1       2.977  28.022  49.419  1.00  0.00     0.010 A 
HETATM   11  C   UNL     1       2.064  27.568  48.467  1.00  0.00     0.001 A 
HETATM   12  C   UNL     1       2.480  26.713  47.451  1.00  0.00     0.000 A 
HETATM   13  C   UNL     1       3.810  26.310  47.381  1.00  0.00     0.001 A 
HETATM   14  C   UNL     1       4.727  26.759  48.332  1.00  0.00     0.010 A 
ENDBRANCH   8   9
BRANCH   8  15
HETATM   15  C   UNL     1       5.265  29.546  50.827  1.00  0.00     0.259 C 
HETATM   16  N   UNL     1       4.183  29.911  51.588  1.00  0.00    -0.304 N 
HETATM   17  H   UNL     1       3.481  29.256  51.910  1.00  0.00     0.171 HD
HETATM   18  O   UNL     1       6.159  30.275  50.383  1.00  0.00    -0.270 OA
BRANCH  16  19
HETATM   19  C   UNL     1       4.010  31.205  52.000  1.00  0.00     0.172 A 
HETATM   20  S   UNL     1       3.987  31.408  53.693  1.00  0.00    -0.062 SA
HETATM   21  C   UNL     1       3.749  33.092  53.461  1.00  0.00     0.072 A 
HETATM   22  C   UNL     1       3.712  33.370  52.110  1.00  0.00     0.126 A 
HETATM   23  N   UNL     1       3.867  32.280  51.273  1.00  0.00    -0.236 NA
ENDBRANCH  16  19
ENDBRANCH   8  15
ENDBRANCH   1   8
BRANCH   5  24
HETATM   24  C   UNL     1       6.518  24.162  54.240  1.00  0.00     0.125 A 
HETATM   25  N   UNL     1       6.935  23.330  53.264  1.00  0.00    -0.350 N 
HETATM   26  H   UNL     1       6.644  23.561  52.315  1.00  0.00     0.166 HD
HETATM   27  C   UNL     1       7.662  22.220  53.474  1.00  0.00     0.106 A 
HETATM   28  C   UNL     1       8.044  21.869  54.764  1.00  0.00     0.065 A 
HETATM   29  C   UNL     1       7.630  22.685  55.820  1.00  0.00     0.045 A 
HETATM   30  C   UNL     1       6.874  23.832  55.564  1.00  0.00     0.078 A 
HETATM   31 CL   UNL     1       6.468  24.835  56.902  1.00  0.00    -0.080 Cl
BRANCH  28  32
HETATM   32  C   UNL     1       8.851  20.616  54.986  1.00  0.00     0.418 C 
HETATM   33  F   UNL     1       9.148  20.005  53.812  1.00  0.00    -0.166 F 
HETATM   34  F   UNL     1      10.026  20.856  55.613  1.00  0.00    -0.166 F 
HETATM   35  F   UNL     1       8.170  19.717  55.733  1.00  0.00    -0.166 F 
ENDBRANCH  28  32
ENDBRANCH   5  24
TORSDOF 6
ENDMDL
MODEL 9
REMARK VINA RESULT:      -9.0      5.155      7.764
REMARK  6 active torsions:
REMARK  status: ('A' for Active; 'I' for Inactive)
REMARK    1  A    between atoms: C_4  and  C_5 
REMARK    2  A    between atoms: C_5  and  N_6 
REMARK    3  A    between atoms: C_5  and  C_25 
REMARK    4  A    between atoms: N_10  and  C_11 
REMARK    5  A    between atoms: C_15  and  C_16 
REMARK       I    between atoms: C_25  and  N_26 
REMARK    6  A    between atoms: N_26  and  C_27 
ROOT
HETATM    1  N   UNL     1       5.414  28.299  54.593  1.00  0.00    -0.051 N 
HETATM    2  H   UNL     1       5.949  28.939  55.211  1.00  0.00     0.281 HD
HETATM    3  C   UNL     1       5.068  27.108  55.471  1.00  0.00     0.256 C 
HETATM    4  C   UNL     1       6.364  26.479  56.027  1.00  0.00     0.152 C 
HETATM    5  N   UNL     1       7.333  26.150  54.959  1.00  0.00    -0.363 N 
HETATM    6  C   UNL     1       7.562  27.167  53.905  1.00  0.00     0.152 C 
HETATM    7  C   UNL     1       6.282  27.906  53.427  1.00  0.00     0.256 C 
ENDROOT
BRANCH   1   8
HETATM    8  C   UNL     1       4.195  29.200  54.218  1.00  0.00     0.312 C 
BRANCH   8   9
HETATM    9  C   UNL     1       4.116  30.484  55.018  1.00  0.00    -0.018 A 
HETATM   10  C   UNL     1       5.185  30.936  55.814  1.00  0.00     0.010 A 
HETATM   11  C   UNL     1       5.063  32.102  56.571  1.00  0.00     0.001 A 
HETATM   12  C   UNL     1       3.880  32.833  56.544  1.00  0.00     0.000 A 
HETATM   13  C   UNL     1       2.815  32.404  55.758  1.00  0.00     0.001 A 
HETATM   14  C   UNL     1       2.930  31.238  55.001  1.00  0.00     0.010 A 
ENDBRANCH   8   9
BRANCH   8  15
HETATM   15  C   UNL     1       4.181  29.369  52.678  1.00  0.00     0.259 C 
HETATM   16  N   UNL     1       3.594  28.356  51.962  1.00  0.00    -0.304 N 
HETATM   17  H   UNL     1       3.147  27.554  52.393  1.00  0.00     0.171 HD
HETATM   18  O   UNL     1       4.754  30.372  52.240  1.00  0.00    -0.270 OA
BRANCH  16  19
HETATM   19  C   UNL     1       3.540  28.392  50.596  1.00  0.00     0.172 A 
HETATM   20  S   UNL     1       4.813  27.566  49.819  1.00  0.00    -0.062 SA
HETATM   21  C   UNL     1       4.144  28.014  48.303  1.00  0.00     0.072 A 
HETATM   22  C   UNL     1       2.997  28.754  48.507  1.00  0.00     0.126 A 
HETATM   23  N   UNL     1       2.651  28.965  49.830  1.00  0.00    -0.236 NA
ENDBRANCH  16  19
ENDBRANCH   8  15
ENDBRANCH   1   8
BRANCH   5  24
HETATM   24  C   UNL     1       7.631  24.822  54.742  1.00  0.00     0.125 A 
HETATM   25  N   UNL     1       7.150  24.298  53.597  1.00  0.00    -0.350 N 
HETATM   26  H   UNL     1       6.584  24.917  53.016  1.00  0.00     0.166 HD
HETATM   27  C   UNL     1       7.340  23.027  53.206  1.00  0.00     0.106 A 
HETATM   28  C   UNL     1       8.084  22.158  53.996  1.00  0.00     0.065 A 
HETATM   29  C   UNL     1       8.598  22.639  55.204  1.00  0.00     0.045 A 
HETATM   30  C   UNL     1       8.379  23.967  55.578  1.00  0.00     0.078 A 
HETATM   31 CL   UNL     1       9.108  24.515  57.037  1.00  0.00    -0.080 Cl
BRANCH  28  32
HETATM   32  C   UNL     1       8.282  20.732  53.551  1.00  0.00     0.418 C 
HETATM   33  F   UNL     1       8.370  19.891  54.613  1.00  0.00    -0.166 F 
HETATM   34  F   UNL     1       7.270  20.282  52.774  1.00  0.00    -0.166 F 
HETATM   35  F   UNL     1       9.428  20.590  52.845  1.00  0.00    -0.166 F 
ENDBRANCH  28  32
ENDBRANCH   5  24
TORSDOF 6
ENDMDL
MODEL 10
REMARK VINA RESULT:      -8.9      5.268      7.620
REMARK  6 active torsions:
REMARK  status: ('A' for Active; 'I' for Inactive)
REMARK    1  A    between atoms: C_4  and  C_5 
REMARK    2  A    between atoms: C_5  and  N_6 
REMARK    3  A    between atoms: C_5  and  C_25 
REMARK    4  A    between atoms: N_10  and  C_11 
REMARK    5  A    between atoms: C_15  and  C_16 
REMARK       I    between atoms: C_25  and  N_26 
REMARK    6  A    between atoms: N_26  and  C_27 
ROOT
HETATM    1  N   UNL     1       5.766  27.884  53.150  1.00  0.00    -0.051 N 
HETATM    2  H   UNL     1       5.384  28.368  53.985  1.00  0.00     0.281 HD
HETATM    3  C   UNL     1       5.040  26.551  53.106  1.00  0.00     0.256 C 
HETATM    4  C   UNL     1       5.283  25.782  54.423  1.00  0.00     0.152 C 
HETATM    5  N   UNL     1       6.722  25.647  54.737  1.00  0.00    -0.363 N 
HETATM    6  C   UNL     1       7.574  26.851  54.577  1.00  0.00     0.152 C 
HETATM    7  C   UNL     1       7.252  27.710  53.324  1.00  0.00     0.256 C 
ENDROOT
BRANCH   1   8
HETATM    8  C   UNL     1       5.359  28.879  52.018  1.00  0.00     0.312 C 
BRANCH   8   9
HETATM    9  C   UNL     1       5.173  28.222  50.666  1.00  0.00    -0.018 A 
HETATM   10  C   UNL     1       4.744  26.888  50.535  1.00  0.00     0.010 A 
HETATM   11  C   UNL     1       4.622  26.301  49.275  1.00  0.00     0.001 A 
HETATM   12  C   UNL     1       4.925  27.032  48.131  1.00  0.00     0.000 A 
HETATM   13  C   UNL     1       5.345  28.354  48.241  1.00  0.00     0.001 A 
HETATM   14  C   UNL     1       5.471  28.946  49.498  1.00  0.00     0.010 A 
ENDBRANCH   8   9
BRANCH   8  15
HETATM   15  C   UNL     1       4.160  29.718  52.525  1.00  0.00     0.259 C 
HETATM   16  N   UNL     1       4.463  30.775  53.346  1.00  0.00    -0.304 N 
HETATM   17  H   UNL     1       5.411  31.042  53.585  1.00  0.00     0.171 HD
HETATM   18  O   UNL     1       3.040  29.316  52.191  1.00  0.00    -0.270 OA
BRANCH  16  19
HETATM   19  C   UNL     1       3.481  31.573  53.866  1.00  0.00     0.172 A 
HETATM   20  S   UNL     1       3.201  33.008  52.989  1.00  0.00    -0.062 SA
HETATM   21  C   UNL     1       1.988  33.436  54.125  1.00  0.00     0.072 A 
HETATM   22  C   UNL     1       1.886  32.447  55.083  1.00  0.00     0.126 A 
HETATM   23  N   UNL     1       2.746  31.374  54.926  1.00  0.00    -0.236 NA
ENDBRANCH  16  19
ENDBRANCH   8  15
ENDBRANCH   1   8
BRANCH   5  24
HETATM   24  C   UNL     1       7.270  24.383  54.734  1.00  0.00     0.125 A 
HETATM   25  N   UNL     1       7.266  23.746  55.923  1.00  0.00    -0.350 N 
HETATM   26  H   UNL     1       6.894  24.267  56.717  1.00  0.00     0.166 HD
HETATM   27  C   UNL     1       7.748  22.507  56.121  1.00  0.00     0.106 A 
HETATM   28  C   UNL     1       8.286  21.790  55.059  1.00  0.00     0.065 A 
HETATM   29  C   UNL     1       8.332  22.403  53.803  1.00  0.00     0.045 A 
HETATM   30  C   UNL     1       7.822  23.693  53.635  1.00  0.00     0.078 A 
HETATM   31 CL   UNL     1       7.834  24.355  52.047  1.00  0.00    -0.080 Cl
BRANCH  28  32
HETATM   32  C   UNL     1       8.832  20.406  55.296  1.00  0.00     0.418 C 
HETATM   33  F   UNL     1       7.970  19.654  56.026  1.00  0.00    -0.166 F 
HETATM   34  F   UNL     1       9.067  19.733  54.146  1.00  0.00    -0.166 F 
HETATM   35  F   UNL     1       9.995  20.446  55.986  1.00  0.00    -0.166 F 
ENDBRANCH  28  32
ENDBRANCH   5  24
TORSDOF 6
ENDMDL
