MODEL 1
REMARK VINA RESULT:     -10.3      0.000      0.000
REMARK  2 active torsions:
REMARK  status: ('A' for Active; 'I' for Inactive)
REMARK    1  A    between atoms: C_15  and  C_16 
REMARK    2  A    between atoms: C_19  and  O_20 
ROOT
HETATM    1  C   UNL     1       8.453  20.057  54.965  1.00  0.00     0.048 C 
HETATM    2  C   UNL     1       8.168  21.484  54.595  1.00  0.00    -0.061 A 
HETATM    3  C   UNL     1       8.113  22.484  55.583  1.00  0.00     0.021 A 
HETATM    4  C   UNL     1       7.883  23.826  55.212  1.00  0.00    -0.000 A 
HETATM    5  C   UNL     1       7.705  24.121  53.854  1.00  0.00     0.043 A 
HETATM    6  N   UNL     1       7.491  25.478  53.750  1.00  0.00    -0.353 N 
HETATM    7  H   UNL     1       7.313  25.981  52.889  1.00  0.00     0.166 HD
HETATM    8  C   UNL     1       7.614  26.049  54.978  1.00  0.00     0.066 A 
HETATM    9  C   UNL     1       7.782  25.057  55.922  1.00  0.00    -0.017 A 
HETATM   10  C   UNL     1       7.848  25.376  57.390  1.00  0.00     0.043 C 
HETATM   11  C   UNL     1       7.435  26.862  57.684  1.00  0.00     0.018 C 
HETATM   12  C   UNL     1       8.110  27.812  56.674  1.00  0.00     0.065 C 
HETATM   13  C   UNL     1       7.521  27.420  55.340  1.00  0.00     0.082 C 
HETATM   14  N   UNL     1       6.833  28.309  54.702  1.00  0.00    -0.203 NA
HETATM   15  C   UNL     1       7.855  29.321  56.570  1.00  0.00     0.121 C 
HETATM   16  N   UNL     1       6.847  29.421  55.488  1.00  0.00    -0.207 NA
HETATM   17  C   UNL     1       7.750  23.143  52.855  1.00  0.00     0.031 A 
HETATM   18  C   UNL     1       7.992  21.823  53.250  1.00  0.00     0.009 A 
HETATM   19  H   UNL     1       5.917  29.572  55.888  1.00  0.00     0.149 HD
ENDROOT
BRANCH  15  20
HETATM   20  C   UNL     1       7.598  30.229  57.752  1.00  0.00    -0.038 A 
HETATM   21  C   UNL     1       8.431  30.127  58.883  1.00  0.00     0.011 A 
HETATM   22  C   UNL     1       8.170  30.847  60.052  1.00  0.00     0.037 A 
HETATM   23  C   UNL     1       7.061  31.683  60.133  1.00  0.00     0.068 A 
HETATM   24  C   UNL     1       6.218  31.790  59.030  1.00  0.00     0.037 A 
HETATM   25  C   UNL     1       6.474  31.056  57.859  1.00  0.00     0.011 A 
BRANCH  23  26
HETATM   26  O   UNL     1       6.910  32.309  61.338  1.00  0.00    -0.356 OA
HETATM   27  C   UNL     1       7.423  31.641  62.484  1.00  0.00     0.210 C 
ENDBRANCH  23  26
ENDBRANCH  15  20
TORSDOF 2
ENDMDL
MODEL 2
REMARK VINA RESULT:      -9.7      2.207      2.988
REMARK  2 active torsions:
REMARK  status: ('A' for Active; 'I' for Inactive)
REMARK    1  A    between atoms: C_15  and  C_16 
REMARK    2  A    between atoms: C_19  and  O_20 
ROOT
HETATM    1  C   UNL     1       8.354  20.320  52.547  1.00  0.00     0.048 C 
HETATM    2  C   UNL     1       8.353  21.196  53.766  1.00  0.00    -0.061 A 
HETATM    3  C   UNL     1       7.943  22.540  53.683  1.00  0.00     0.021 A 
HETATM    4  C   UNL     1       7.911  23.338  54.847  1.00  0.00    -0.000 A 
HETATM    5  C   UNL     1       8.305  22.761  56.061  1.00  0.00     0.043 A 
HETATM    6  N   UNL     1       8.196  23.730  57.034  1.00  0.00    -0.353 N 
HETATM    7  H   UNL     1       8.428  23.610  58.012  1.00  0.00     0.166 HD
HETATM    8  C   UNL     1       7.670  24.859  56.488  1.00  0.00     0.066 A 
HETATM    9  C   UNL     1       7.549  24.687  55.125  1.00  0.00    -0.017 A 
HETATM   10  C   UNL     1       7.086  25.805  54.232  1.00  0.00     0.043 C 
HETATM   11  C   UNL     1       7.046  27.180  54.990  1.00  0.00     0.018 C 
HETATM   12  C   UNL     1       6.397  27.004  56.378  1.00  0.00     0.065 C 
HETATM   13  C   UNL     1       7.341  26.089  57.121  1.00  0.00     0.082 C 
HETATM   14  N   UNL     1       7.913  26.550  58.184  1.00  0.00    -0.203 NA
HETATM   15  C   UNL     1       6.289  28.094  57.451  1.00  0.00     0.121 C 
HETATM   16  N   UNL     1       7.454  27.824  58.327  1.00  0.00    -0.207 NA
HETATM   17  C   UNL     1       8.721  21.430  56.167  1.00  0.00     0.031 A 
HETATM   18  C   UNL     1       8.731  20.658  55.001  1.00  0.00     0.009 A 
HETATM   19  H   UNL     1       8.207  28.486  58.124  1.00  0.00     0.149 HD
ENDROOT
BRANCH  15  20
HETATM   20  C   UNL     1       6.049  29.559  57.161  1.00  0.00    -0.038 A 
HETATM   21  C   UNL     1       6.438  30.516  58.118  1.00  0.00     0.011 A 
HETATM   22  C   UNL     1       6.131  31.870  57.966  1.00  0.00     0.037 A 
HETATM   23  C   UNL     1       5.416  32.312  56.858  1.00  0.00     0.068 A 
HETATM   24  C   UNL     1       5.011  31.382  55.904  1.00  0.00     0.037 A 
HETATM   25  C   UNL     1       5.309  30.017  56.064  1.00  0.00     0.011 A 
BRANCH  23  26
HETATM   26  O   UNL     1       5.164  33.655  56.843  1.00  0.00    -0.356 OA
HETATM   27  C   UNL     1       4.629  34.226  58.030  1.00  0.00     0.210 C 
ENDBRANCH  23  26
ENDBRANCH  15  20
TORSDOF 2
ENDMDL
MODEL 3
REMARK VINA RESULT:      -9.5      3.124      8.613
REMARK  2 active torsions:
REMARK  status: ('A' for Active; 'I' for Inactive)
REMARK    1  A    between atoms: C_15  and  C_16 
REMARK    2  A    between atoms: C_19  and  O_20 
ROOT
HETATM    1  C   UNL     1       8.591  32.690  60.886  1.00  0.00     0.048 C 
HETATM    2  C   UNL     1       7.688  31.991  59.912  1.00  0.00    -0.061 A 
HETATM    3  C   UNL     1       8.085  30.787  59.301  1.00  0.00     0.021 A 
HETATM    4  C   UNL     1       7.207  30.124  58.418  1.00  0.00    -0.000 A 
HETATM    5  C   UNL     1       5.955  30.699  58.167  1.00  0.00     0.043 A 
HETATM    6  N   UNL     1       5.293  29.879  57.279  1.00  0.00    -0.353 N 
HETATM    7  H   UNL     1       4.370  30.047  56.899  1.00  0.00     0.166 HD
HETATM    8  C   UNL     1       6.050  28.776  57.035  1.00  0.00     0.066 A 
HETATM    9  C   UNL     1       7.272  28.920  57.659  1.00  0.00    -0.017 A 
HETATM   10  C   UNL     1       8.363  27.899  57.489  1.00  0.00     0.043 C 
HETATM   11  C   UNL     1       8.032  26.874  56.347  1.00  0.00     0.018 C 
HETATM   12  C   UNL     1       6.568  26.401  56.465  1.00  0.00     0.065 C 
HETATM   13  C   UNL     1       5.751  27.648  56.223  1.00  0.00     0.082 C 
HETATM   14  N   UNL     1       4.964  27.662  55.198  1.00  0.00    -0.203 NA
HETATM   15  C   UNL     1       5.847  25.492  55.463  1.00  0.00     0.121 C 
HETATM   16  N   UNL     1       5.121  26.450  54.596  1.00  0.00    -0.207 NA
HETATM   17  C   UNL     1       5.540  31.897  58.757  1.00  0.00     0.031 A 
HETATM   18  C   UNL     1       6.425  32.527  59.638  1.00  0.00     0.009 A 
HETATM   19  H   UNL     1       5.619  26.568  53.709  1.00  0.00     0.149 HD
ENDROOT
BRANCH  15  20
HETATM   20  C   UNL     1       6.501  24.348  54.721  1.00  0.00    -0.038 A 
HETATM   21  C   UNL     1       7.035  23.274  55.459  1.00  0.00     0.011 A 
HETATM   22  C   UNL     1       7.760  22.251  54.843  1.00  0.00     0.037 A 
HETATM   23  C   UNL     1       7.987  22.273  53.471  1.00  0.00     0.068 A 
HETATM   24  C   UNL     1       7.479  23.332  52.723  1.00  0.00     0.037 A 
HETATM   25  C   UNL     1       6.760  24.367  53.345  1.00  0.00     0.011 A 
BRANCH  23  26
HETATM   26  O   UNL     1       8.729  21.227  53.002  1.00  0.00    -0.356 OA
HETATM   27  C   UNL     1       8.764  20.049  53.798  1.00  0.00     0.210 C 
ENDBRANCH  23  26
ENDBRANCH  15  20
TORSDOF 2
ENDMDL
MODEL 4
REMARK VINA RESULT:      -9.2      5.203      7.264
REMARK  2 active torsions:
REMARK  status: ('A' for Active; 'I' for Inactive)
REMARK    1  A    between atoms: C_15  and  C_16 
REMARK    2  A    between atoms: C_19  and  O_20 
ROOT
HETATM    1  C   UNL     1       8.233  20.042  55.860  1.00  0.00     0.048 C 
HETATM    2  C   UNL     1       8.109  21.537  55.802  1.00  0.00    -0.061 A 
HETATM    3  C   UNL     1       7.569  22.168  54.666  1.00  0.00     0.021 A 
HETATM    4  C   UNL     1       7.424  23.572  54.644  1.00  0.00    -0.000 A 
HETATM    5  C   UNL     1       7.839  24.301  55.766  1.00  0.00     0.043 A 
HETATM    6  N   UNL     1       7.606  25.633  55.503  1.00  0.00    -0.353 N 
HETATM    7  H   UNL     1       7.822  26.403  56.124  1.00  0.00     0.166 HD
HETATM    8  C   UNL     1       6.985  25.753  54.298  1.00  0.00     0.066 A 
HETATM    9  C   UNL     1       6.920  24.511  53.700  1.00  0.00    -0.017 A 
HETATM   10  C   UNL     1       6.373  24.340  52.309  1.00  0.00     0.043 C 
HETATM   11  C   UNL     1       6.174  25.719  51.585  1.00  0.00     0.018 C 
HETATM   12  C   UNL     1       5.507  26.730  52.540  1.00  0.00     0.065 C 
HETATM   13  C   UNL     1       6.517  26.925  53.646  1.00  0.00     0.082 C 
HETATM   14  N   UNL     1       7.009  28.109  53.808  1.00  0.00    -0.203 NA
HETATM   15  C   UNL     1       5.260  28.212  52.231  1.00  0.00     0.121 C 
HETATM   16  N   UNL     1       6.420  28.887  52.858  1.00  0.00    -0.207 NA
HETATM   17  C   UNL     1       8.384  23.697  56.903  1.00  0.00     0.031 A 
HETATM   18  C   UNL     1       8.504  22.304  56.903  1.00  0.00     0.009 A 
HETATM   19  H   UNL     1       7.109  29.138  52.144  1.00  0.00     0.149 HD
ENDROOT
BRANCH  15  20
HETATM   20  C   UNL     1       4.883  28.750  50.869  1.00  0.00    -0.038 A 
HETATM   21  C   UNL     1       3.844  28.124  50.152  1.00  0.00     0.011 A 
HETATM   22  C   UNL     1       3.533  28.493  48.841  1.00  0.00     0.037 A 
HETATM   23  C   UNL     1       4.257  29.491  48.198  1.00  0.00     0.068 A 
HETATM   24  C   UNL     1       5.296  30.115  48.883  1.00  0.00     0.037 A 
HETATM   25  C   UNL     1       5.617  29.735  50.197  1.00  0.00     0.011 A 
BRANCH  23  26
HETATM   26  O   UNL     1       3.865  29.738  46.912  1.00  0.00    -0.356 OA
HETATM   27  C   UNL     1       2.469  29.704  46.644  1.00  0.00     0.210 C 
ENDBRANCH  23  26
ENDBRANCH  15  20
TORSDOF 2
ENDMDL
MODEL 5
REMARK VINA RESULT:      -9.2      5.385     11.390
REMARK  2 active torsions:
REMARK  status: ('A' for Active; 'I' for Inactive)
REMARK    1  A    between atoms: C_15  and  C_16 
REMARK    2  A    between atoms: C_19  and  O_20 
ROOT
HETATM    1  C   UNL     1       6.205  34.819  69.289  1.00  0.00     0.048 C 
HETATM    2  C   UNL     1       5.696  34.623  67.890  1.00  0.00    -0.061 A 
HETATM    3  C   UNL     1       6.539  34.117  66.884  1.00  0.00     0.021 A 
HETATM    4  C   UNL     1       6.032  33.904  65.584  1.00  0.00    -0.000 A 
HETATM    5  C   UNL     1       4.690  34.217  65.333  1.00  0.00     0.043 A 
HETATM    6  N   UNL     1       4.440  33.932  64.009  1.00  0.00    -0.353 N 
HETATM    7  H   UNL     1       3.557  34.073  63.533  1.00  0.00     0.166 HD
HETATM    8  C   UNL     1       5.548  33.376  63.450  1.00  0.00     0.066 A 
HETATM    9  C   UNL     1       6.579  33.408  64.366  1.00  0.00    -0.017 A 
HETATM   10  C   UNL     1       7.965  32.950  64.002  1.00  0.00     0.043 C 
HETATM   11  C   UNL     1       8.118  32.724  62.456  1.00  0.00     0.018 C 
HETATM   12  C   UNL     1       6.900  31.953  61.908  1.00  0.00     0.065 C 
HETATM   13  C   UNL     1       5.734  32.887  62.128  1.00  0.00     0.082 C 
HETATM   14  N   UNL     1       5.096  33.309  61.087  1.00  0.00    -0.203 NA
HETATM   15  C   UNL     1       6.636  31.650  60.427  1.00  0.00     0.121 C 
HETATM   16  N   UNL     1       5.716  32.737  60.017  1.00  0.00    -0.207 NA
HETATM   17  C   UNL     1       3.835  34.726  66.316  1.00  0.00     0.031 A 
HETATM   18  C   UNL     1       4.360  34.915  67.598  1.00  0.00     0.009 A 
HETATM   19  H   UNL     1       6.229  33.452  59.494  1.00  0.00     0.149 HD
ENDROOT
BRANCH  15  20
HETATM   20  C   UNL     1       7.712  31.324  59.416  1.00  0.00    -0.038 A 
HETATM   21  C   UNL     1       7.505  30.257  58.520  1.00  0.00     0.011 A 
HETATM   22  C   UNL     1       8.509  29.828  57.648  1.00  0.00     0.037 A 
HETATM   23  C   UNL     1       9.757  30.442  57.651  1.00  0.00     0.068 A 
HETATM   24  C   UNL     1       9.987  31.492  58.536  1.00  0.00     0.037 A 
HETATM   25  C   UNL     1       8.981  31.915  59.422  1.00  0.00     0.011 A 
BRANCH  23  26
HETATM   26  O   UNL     1      10.653  29.911  56.766  1.00  0.00    -0.356 OA
HETATM   27  C   UNL     1      10.141  29.460  55.519  1.00  0.00     0.210 C 
ENDBRANCH  23  26
ENDBRANCH  15  20
TORSDOF 2
ENDMDL
MODEL 6
REMARK VINA RESULT:      -9.0      5.501      8.913
REMARK  2 active torsions:
REMARK  status: ('A' for Active; 'I' for Inactive)
REMARK    1  A    between atoms: C_15  and  C_16 
REMARK    2  A    between atoms: C_19  and  O_20 
ROOT
HETATM    1  C   UNL     1       2.847  30.738  46.835  1.00  0.00     0.048 C 
HETATM    2  C   UNL     1       3.537  30.511  48.149  1.00  0.00    -0.061 A 
HETATM    3  C   UNL     1       3.862  29.209  48.574  1.00  0.00     0.021 A 
HETATM    4  C   UNL     1       4.544  29.018  49.794  1.00  0.00    -0.000 A 
HETATM    5  C   UNL     1       4.871  30.145  50.558  1.00  0.00     0.043 A 
HETATM    6  N   UNL     1       5.518  29.703  51.692  1.00  0.00    -0.353 N 
HETATM    7  H   UNL     1       5.859  30.292  52.442  1.00  0.00     0.166 HD
HETATM    8  C   UNL     1       5.680  28.355  51.621  1.00  0.00     0.066 A 
HETATM    9  C   UNL     1       5.028  27.880  50.502  1.00  0.00    -0.017 A 
HETATM   10  C   UNL     1       4.947  26.407  50.208  1.00  0.00     0.043 C 
HETATM   11  C   UNL     1       5.425  25.541  51.427  1.00  0.00     0.018 C 
HETATM   12  C   UNL     1       6.727  26.123  52.015  1.00  0.00     0.065 C 
HETATM   13  C   UNL     1       6.328  27.483  52.537  1.00  0.00     0.082 C 
HETATM   14  N   UNL     1       6.445  27.697  53.807  1.00  0.00    -0.203 NA
HETATM   15  C   UNL     1       7.430  25.620  53.283  1.00  0.00     0.121 C 
HETATM   16  N   UNL     1       6.933  26.540  54.333  1.00  0.00    -0.207 NA
HETATM   17  C   UNL     1       4.554  31.447  50.160  1.00  0.00     0.031 A 
HETATM   18  C   UNL     1       3.889  31.609  48.940  1.00  0.00     0.009 A 
HETATM   19  H   UNL     1       6.206  26.080  54.887  1.00  0.00     0.149 HD
ENDROOT
BRANCH  15  20
HETATM   20  C   UNL     1       7.501  24.169  53.702  1.00  0.00    -0.038 A 
HETATM   21  C   UNL     1       7.403  23.850  55.071  1.00  0.00     0.011 A 
HETATM   22  C   UNL     1       7.586  22.544  55.533  1.00  0.00     0.037 A 
HETATM   23  C   UNL     1       7.885  21.516  54.645  1.00  0.00     0.068 A 
HETATM   24  C   UNL     1       7.999  21.811  53.289  1.00  0.00     0.037 A 
HETATM   25  C   UNL     1       7.827  23.127  52.826  1.00  0.00     0.011 A 
BRANCH  23  26
HETATM   26  O   UNL     1       8.062  20.294  55.230  1.00  0.00    -0.356 OA
HETATM   27  C   UNL     1       8.809  20.258  56.439  1.00  0.00     0.210 C 
ENDBRANCH  23  26
ENDBRANCH  15  20
TORSDOF 2
ENDMDL
MODEL 7
REMARK VINA RESULT:      -8.9      2.919      3.482
REMARK  2 active torsions:
REMARK  status: ('A' for Active; 'I' for Inactive)
REMARK    1  A    between atoms: C_15  and  C_16 
REMARK    2  A    between atoms: C_19  and  O_20 
ROOT
HETATM    1  C   UNL     1       8.903  20.301  56.168  1.00  0.00     0.048 C 
HETATM    2  C   UNL     1       8.309  21.371  55.298  1.00  0.00    -0.061 A 
HETATM    3  C   UNL     1       7.776  22.543  55.866  1.00  0.00     0.021 A 
HETATM    4  C   UNL     1       7.257  23.555  55.031  1.00  0.00    -0.000 A 
HETATM    5  C   UNL     1       7.280  23.352  53.645  1.00  0.00     0.043 A 
HETATM    6  N   UNL     1       6.718  24.463  53.055  1.00  0.00    -0.353 N 
HETATM    7  H   UNL     1       6.583  24.595  52.060  1.00  0.00     0.166 HD
HETATM    8  C   UNL     1       6.425  25.383  54.013  1.00  0.00     0.066 A 
HETATM    9  C   UNL     1       6.672  24.834  55.255  1.00  0.00    -0.017 A 
HETATM   10  C   UNL     1       6.349  25.582  56.519  1.00  0.00     0.043 C 
HETATM   11  C   UNL     1       5.483  26.861  56.237  1.00  0.00     0.018 C 
HETATM   12  C   UNL     1       6.052  27.632  55.028  1.00  0.00     0.065 C 
HETATM   13  C   UNL     1       5.879  26.686  53.864  1.00  0.00     0.082 C 
HETATM   14  N   UNL     1       5.111  27.060  52.894  1.00  0.00    -0.203 NA
HETATM   15  C   UNL     1       5.409  28.865  54.381  1.00  0.00     0.121 C 
HETATM   16  N   UNL     1       4.652  28.295  53.241  1.00  0.00    -0.207 NA
HETATM   17  C   UNL     1       7.799  22.193  53.059  1.00  0.00     0.031 A 
HETATM   18  C   UNL     1       8.319  21.212  53.909  1.00  0.00     0.009 A 
HETATM   19  H   UNL     1       3.657  28.240  53.473  1.00  0.00     0.149 HD
ENDROOT
BRANCH  15  20
HETATM   20  C   UNL     1       4.674  29.946  55.142  1.00  0.00    -0.038 A 
HETATM   21  C   UNL     1       3.436  30.404  54.652  1.00  0.00     0.011 A 
HETATM   22  C   UNL     1       2.770  31.483  55.238  1.00  0.00     0.037 A 
HETATM   23  C   UNL     1       3.325  32.149  56.326  1.00  0.00     0.068 A 
HETATM   24  C   UNL     1       4.554  31.720  56.820  1.00  0.00     0.037 A 
HETATM   25  C   UNL     1       5.230  30.642  56.222  1.00  0.00     0.011 A 
BRANCH  23  26
HETATM   26  O   UNL     1       2.583  33.199  56.787  1.00  0.00    -0.356 OA
HETATM   27  C   UNL     1       3.252  34.159  57.595  1.00  0.00     0.210 C 
ENDBRANCH  23  26
ENDBRANCH  15  20
TORSDOF 2
ENDMDL
MODEL 8
REMARK VINA RESULT:      -8.9      4.989      6.440
REMARK  2 active torsions:
REMARK  status: ('A' for Active; 'I' for Inactive)
REMARK    1  A    between atoms: C_15  and  C_16 
REMARK    2  A    between atoms: C_19  and  O_20 
ROOT
HETATM    1  C   UNL     1       8.721  20.359  53.131  1.00  0.00     0.048 C 
HETATM    2  C   UNL     1       8.455  21.734  53.672  1.00  0.00    -0.061 A 
HETATM    3  C   UNL     1       7.596  22.618  52.993  1.00  0.00     0.021 A 
HETATM    4  C   UNL     1       7.328  23.892  53.537  1.00  0.00    -0.000 A 
HETATM    5  C   UNL     1       7.942  24.243  54.746  1.00  0.00     0.043 A 
HETATM    6  N   UNL     1       7.534  25.521  55.061  1.00  0.00    -0.353 N 
HETATM    7  H   UNL     1       7.829  26.049  55.873  1.00  0.00     0.166 HD
HETATM    8  C   UNL     1       6.626  25.944  54.141  1.00  0.00     0.066 A 
HETATM    9  C   UNL     1       6.525  25.000  53.141  1.00  0.00    -0.017 A 
HETATM   10  C   UNL     1       5.667  25.234  51.928  1.00  0.00     0.043 C 
HETATM   11  C   UNL     1       5.174  26.722  51.838  1.00  0.00     0.018 C 
HETATM   12  C   UNL     1       4.678  27.202  53.217  1.00  0.00     0.065 C 
HETATM   13  C   UNL     1       5.909  27.170  54.091  1.00  0.00     0.082 C 
HETATM   14  N   UNL     1       6.320  28.289  54.591  1.00  0.00    -0.203 NA
HETATM   15  C   UNL     1       4.232  28.631  53.551  1.00  0.00     0.121 C 
HETATM   16  N   UNL     1       5.448  29.235  54.146  1.00  0.00    -0.207 NA
HETATM   17  C   UNL     1       8.803  23.384  55.435  1.00  0.00     0.031 A 
HETATM   18  C   UNL     1       9.041  22.123  54.880  1.00  0.00     0.009 A 
HETATM   19  H   UNL     1       5.913  29.836  53.460  1.00  0.00     0.149 HD
ENDROOT
BRANCH  15  20
HETATM   20  C   UNL     1       3.483  29.537  52.600  1.00  0.00    -0.038 A 
HETATM   21  C   UNL     1       2.669  28.959  51.606  1.00  0.00     0.011 A 
HETATM   22  C   UNL     1       2.052  29.736  50.622  1.00  0.00     0.037 A 
HETATM   23  C   UNL     1       2.238  31.114  50.590  1.00  0.00     0.068 A 
HETATM   24  C   UNL     1       3.049  31.705  51.556  1.00  0.00     0.037 A 
HETATM   25  C   UNL     1       3.679  30.923  52.538  1.00  0.00     0.011 A 
BRANCH  23  26
HETATM   26  O   UNL     1       1.598  31.749  49.563  1.00  0.00    -0.356 OA
HETATM   27  C   UNL     1       0.248  31.380  49.316  1.00  0.00     0.210 C 
ENDBRANCH  23  26
ENDBRANCH  15  20
TORSDOF 2
ENDMDL
MODEL 9
REMARK VINA RESULT:      -8.8      3.597      4.489
REMARK  2 active torsions:
REMARK  status: ('A' for Active; 'I' for Inactive)
REMARK    1  A    between atoms: C_15  and  C_16 
REMARK    2  A    between atoms: C_19  and  O_20 
ROOT
HETATM    1  C   UNL     1       8.534  20.292  52.871  1.00  0.00     0.048 C 
HETATM    2  C   UNL     1       8.276  21.353  53.900  1.00  0.00    -0.061 A 
HETATM    3  C   UNL     1       7.597  22.537  53.556  1.00  0.00     0.021 A 
HETATM    4  C   UNL     1       7.330  23.507  54.546  1.00  0.00    -0.000 A 
HETATM    5  C   UNL     1       7.764  23.260  55.854  1.00  0.00     0.043 A 
HETATM    6  N   UNL     1       7.396  24.342  56.623  1.00  0.00    -0.353 N 
HETATM    7  H   UNL     1       7.591  24.456  57.610  1.00  0.00     0.166 HD
HETATM    8  C   UNL     1       6.676  25.211  55.863  1.00  0.00     0.066 A 
HETATM    9  C   UNL     1       6.675  24.772  54.556  1.00  0.00    -0.017 A 
HETATM   10  C   UNL     1       6.039  25.580  53.458  1.00  0.00     0.043 C 
HETATM   11  C   UNL     1       5.666  27.027  53.940  1.00  0.00     0.018 C 
HETATM   12  C   UNL     1       4.988  26.969  55.324  1.00  0.00     0.065 C 
HETATM   13  C   UNL     1       6.059  26.433  56.244  1.00  0.00     0.082 C 
HETATM   14  N   UNL     1       6.457  27.193  57.211  1.00  0.00    -0.203 NA
HETATM   15  C   UNL     1       4.590  28.186  56.168  1.00  0.00     0.121 C 
HETATM   16  N   UNL     1       5.731  28.341  57.101  1.00  0.00    -0.207 NA
HETATM   17  C   UNL     1       8.445  22.094  56.219  1.00  0.00     0.031 A 
HETATM   18  C   UNL     1       8.686  21.145  55.221  1.00  0.00     0.009 A 
HETATM   19  H   UNL     1       6.339  29.103  56.788  1.00  0.00     0.149 HD
ENDROOT
BRANCH  15  20
HETATM   20  C   UNL     1       4.064  29.485  55.601  1.00  0.00    -0.038 A 
HETATM   21  C   UNL     1       3.359  30.364  56.447  1.00  0.00     0.011 A 
HETATM   22  C   UNL     1       2.742  31.517  55.956  1.00  0.00     0.037 A 
HETATM   23  C   UNL     1       2.798  31.824  54.600  1.00  0.00     0.068 A 
HETATM   24  C   UNL     1       3.479  30.964  53.743  1.00  0.00     0.037 A 
HETATM   25  C   UNL     1       4.089  29.798  54.236  1.00  0.00     0.011 A 
BRANCH  23  26
HETATM   26  O   UNL     1       2.134  32.966  54.250  1.00  0.00    -0.356 OA
HETATM   27  C   UNL     1       0.852  33.173  54.830  1.00  0.00     0.210 C 
ENDBRANCH  23  26
ENDBRANCH  15  20
TORSDOF 2
ENDMDL
MODEL 10
REMARK VINA RESULT:      -8.7      3.649      8.961
REMARK  2 active torsions:
REMARK  status: ('A' for Active; 'I' for Inactive)
REMARK    1  A    between atoms: C_15  and  C_16 
REMARK    2  A    between atoms: C_19  and  O_20 
ROOT
HETATM    1  C   UNL     1       6.118  34.525  62.354  1.00  0.00     0.048 C 
HETATM    2  C   UNL     1       6.774  33.317  61.751  1.00  0.00    -0.061 A 
HETATM    3  C   UNL     1       6.324  32.792  60.525  1.00  0.00     0.021 A 
HETATM    4  C   UNL     1       6.977  31.680  59.955  1.00  0.00    -0.000 A 
HETATM    5  C   UNL     1       8.062  31.120  60.642  1.00  0.00     0.043 A 
HETATM    6  N   UNL     1       8.519  30.055  59.896  1.00  0.00    -0.353 N 
HETATM    7  H   UNL     1       9.286  29.445  60.151  1.00  0.00     0.166 HD
HETATM    8  C   UNL     1       7.817  29.985  58.734  1.00  0.00     0.066 A 
HETATM    9  C   UNL     1       6.805  30.922  58.761  1.00  0.00    -0.017 A 
HETATM   10  C   UNL     1       5.796  31.018  57.650  1.00  0.00     0.043 C 
HETATM   11  C   UNL     1       5.884  29.791  56.673  1.00  0.00     0.018 C 
HETATM   12  C   UNL     1       7.358  29.489  56.331  1.00  0.00     0.065 C 
HETATM   13  C   UNL     1       7.973  29.081  57.648  1.00  0.00     0.082 C 
HETATM   14  N   UNL     1       8.444  27.882  57.746  1.00  0.00    -0.203 NA
HETATM   15  C   UNL     1       7.848  28.295  55.502  1.00  0.00     0.121 C 
HETATM   16  N   UNL     1       8.228  27.300  56.533  1.00  0.00    -0.207 NA
HETATM   17  C   UNL     1       8.523  31.620  61.864  1.00  0.00     0.031 A 
HETATM   18  C   UNL     1       7.865  32.731  62.400  1.00  0.00     0.009 A 
HETATM   19  H   UNL     1       7.499  26.587  56.619  1.00  0.00     0.149 HD
ENDROOT
BRANCH  15  20
HETATM   20  C   UNL     1       7.111  27.717  54.315  1.00  0.00    -0.038 A 
HETATM   21  C   UNL     1       7.367  26.385  53.937  1.00  0.00     0.011 A 
HETATM   22  C   UNL     1       6.814  25.834  52.778  1.00  0.00     0.037 A 
HETATM   23  C   UNL     1       5.997  26.599  51.952  1.00  0.00     0.068 A 
HETATM   24  C   UNL     1       5.741  27.923  52.301  1.00  0.00     0.037 A 
HETATM   25  C   UNL     1       6.307  28.480  53.460  1.00  0.00     0.011 A 
BRANCH  23  26
HETATM   26  O   UNL     1       5.542  25.946  50.841  1.00  0.00    -0.356 OA
HETATM   27  C   UNL     1       4.759  26.699  49.924  1.00  0.00     0.210 C 
ENDBRANCH  23  26
ENDBRANCH  15  20
TORSDOF 2
ENDMDL
