MODEL 1
REMARK VINA RESULT:     -10.2      0.000      0.000
REMARK  6 active torsions:
REMARK  status: ('A' for Active; 'I' for Inactive)
REMARK    1  A    between atoms: C_2  and  O_3 
REMARK    2  A    between atoms: C_2  and  C_4 
REMARK    3  A    between atoms: C_6  and  N_7 
REMARK       I    between atoms: N_7  and  C_8 
REMARK    4  A    between atoms: C_8  and  C_9 
REMARK    5  A    between atoms: C_12  and  C_13 
REMARK    6  A    between atoms: C_18  and  C_19 
ROOT
HETATM    1  C   UNL     1       7.143  27.452  55.653  1.00  0.00     0.096 C 
HETATM    2  C   UNL     1       7.027  26.195  55.089  1.00  0.00     0.138 C 
HETATM    3  N   UNL     1       6.211  26.350  53.990  1.00  0.00    -0.240 N 
HETATM    4  C   UNL     1       5.791  25.270  53.115  1.00  0.00     0.221 C 
HETATM    5  C   UNL     1       6.644  24.010  53.356  1.00  0.00     0.067 C 
HETATM    6  C   UNL     1       6.859  23.782  54.859  1.00  0.00     0.125 C 
HETATM    7  N   UNL     1       7.521  24.970  55.426  1.00  0.00    -0.365 N 
HETATM    8  N   UNL     1       5.652  27.566  53.912  1.00  0.00    -0.181 NA
HETATM    9  C   UNL     1       6.244  28.244  54.899  1.00  0.00     0.160 C 
HETATM   10  H   UNL     1       7.758  24.813  56.409  1.00  0.00     0.162 HD
ENDROOT
BRANCH   1  11
HETATM   11  C   UNL     1       7.944  27.897  56.781  1.00  0.00     0.261 C 
HETATM   12  N   UNL     1       7.874  29.260  57.002  1.00  0.00    -0.323 N 
HETATM   13  H   UNL     1       7.208  29.759  56.423  1.00  0.00     0.169 HD
HETATM   14  O   UNL     1       8.566  27.087  57.457  1.00  0.00    -0.267 OA
BRANCH  12  15
HETATM   15  C   UNL     1       8.524  30.007  58.005  1.00  0.00     0.035 A 
HETATM   16  C   UNL     1       8.151  29.994  59.351  1.00  0.00     0.039 A 
HETATM   17  C   UNL     1       8.834  30.774  60.303  1.00  0.00    -0.028 A 
HETATM   18  C   UNL     1       9.899  31.579  59.878  1.00  0.00     0.010 A 
HETATM   19  C   UNL     1      10.288  31.588  58.540  1.00  0.00     0.003 A 
HETATM   20  C   UNL     1       9.605  30.802  57.610  1.00  0.00     0.029 A 
BRANCH  17  21
HETATM   21  C   UNL     1       8.386  30.759  61.749  1.00  0.00     0.147 C 
HETATM   22  C   UNL     1       8.692  32.073  62.454  1.00  0.00     0.044 C 
BRANCH  21  23
HETATM   23  O   UNL     1       9.020  29.696  62.457  1.00  0.00    -0.391 OA
HETATM   24  H   UNL     1       9.098  29.987  63.382  1.00  0.00     0.210 HD
ENDBRANCH  21  23
ENDBRANCH  17  21
ENDBRANCH  12  15
ENDBRANCH   1  11
BRANCH   4  25
HETATM   25  C   UNL     1       5.876  25.666  51.657  1.00  0.00     0.409 C 
HETATM   26  F   UNL     1       5.802  26.996  51.450  1.00  0.00    -0.169 F 
HETATM   27  F   UNL     1       7.001  25.205  51.065  1.00  0.00    -0.169 F 
HETATM   28  F   UNL     1       4.831  25.120  50.978  1.00  0.00    -0.169 F 
ENDBRANCH   4  25
BRANCH   6  29
HETATM   29  C   UNL     1       7.647  22.516  55.088  1.00  0.00     0.005 A 
HETATM   30  S   UNL     1       8.331  22.196  56.628  1.00  0.00    -0.104 SA
HETATM   31  C   UNL     1       8.982  20.706  56.103  1.00  0.00     0.050 A 
HETATM   32  C   UNL     1       8.690  20.452  54.782  1.00  0.00     0.008 A 
HETATM   33  C   UNL     1       7.924  21.498  54.194  1.00  0.00     0.017 A 
ENDBRANCH   6  29
TORSDOF 6
ENDMDL
MODEL 2
REMARK VINA RESULT:     -10.0      2.739      4.489
REMARK  6 active torsions:
REMARK  status: ('A' for Active; 'I' for Inactive)
REMARK    1  A    between atoms: C_2  and  O_3 
REMARK    2  A    between atoms: C_2  and  C_4 
REMARK    3  A    between atoms: C_6  and  N_7 
REMARK       I    between atoms: N_7  and  C_8 
REMARK    4  A    between atoms: C_8  and  C_9 
REMARK    5  A    between atoms: C_12  and  C_13 
REMARK    6  A    between atoms: C_18  and  C_19 
ROOT
HETATM    1  C   UNL     1       8.262  25.228  56.567  1.00  0.00     0.096 C 
HETATM    2  C   UNL     1       7.889  25.025  55.251  1.00  0.00     0.138 C 
HETATM    3  N   UNL     1       8.417  23.804  54.895  1.00  0.00    -0.240 N 
HETATM    4  C   UNL     1       8.297  23.206  53.577  1.00  0.00     0.221 C 
HETATM    5  C   UNL     1       7.222  23.931  52.746  1.00  0.00     0.067 C 
HETATM    6  C   UNL     1       7.333  25.451  52.925  1.00  0.00     0.125 C 
HETATM    7  N   UNL     1       7.180  25.769  54.355  1.00  0.00    -0.365 N 
HETATM    8  N   UNL     1       9.248  23.296  55.816  1.00  0.00    -0.181 NA
HETATM    9  C   UNL     1       9.127  24.142  56.843  1.00  0.00     0.160 C 
HETATM   10  H   UNL     1       7.162  26.783  54.496  1.00  0.00     0.162 HD
ENDROOT
BRANCH   1  11
HETATM   11  C   UNL     1       7.918  26.308  57.478  1.00  0.00     0.261 C 
HETATM   12  N   UNL     1       7.957  27.558  56.889  1.00  0.00    -0.323 N 
HETATM   13  H   UNL     1       8.122  27.561  55.888  1.00  0.00     0.169 HD
HETATM   14  O   UNL     1       7.593  26.063  58.633  1.00  0.00    -0.267 OA
BRANCH  12  15
HETATM   15  C   UNL     1       7.681  28.803  57.488  1.00  0.00     0.035 A 
HETATM   16  C   UNL     1       8.627  29.561  58.181  1.00  0.00     0.039 A 
HETATM   17  C   UNL     1       8.285  30.794  58.768  1.00  0.00    -0.028 A 
HETATM   18  C   UNL     1       6.966  31.253  58.655  1.00  0.00     0.010 A 
HETATM   19  C   UNL     1       6.018  30.511  57.952  1.00  0.00     0.003 A 
HETATM   20  C   UNL     1       6.376  29.294  57.369  1.00  0.00     0.029 A 
BRANCH  17  21
HETATM   21  C   UNL     1       9.328  31.576  59.537  1.00  0.00     0.147 C 
HETATM   22  C   UNL     1       8.699  32.524  60.548  1.00  0.00     0.044 C 
BRANCH  21  23
HETATM   23  O   UNL     1      10.145  32.330  58.644  1.00  0.00    -0.391 OA
HETATM   24  H   UNL     1       9.686  32.339  57.787  1.00  0.00     0.210 HD
ENDBRANCH  21  23
ENDBRANCH  17  21
ENDBRANCH  12  15
ENDBRANCH   1  11
BRANCH   4  25
HETATM   25  C   UNL     1       7.964  21.732  53.659  1.00  0.00     0.409 C 
HETATM   26  F   UNL     1       7.300  21.388  54.780  1.00  0.00    -0.169 F 
HETATM   27  F   UNL     1       7.249  21.307  52.593  1.00  0.00    -0.169 F 
HETATM   28  F   UNL     1       9.116  21.008  53.665  1.00  0.00    -0.169 F 
ENDBRANCH   4  25
BRANCH   6  29
HETATM   29  C   UNL     1       6.313  26.155  52.064  1.00  0.00     0.005 A 
HETATM   30  S   UNL     1       5.890  27.785  52.390  1.00  0.00    -0.104 SA
HETATM   31  C   UNL     1       4.794  27.832  51.080  1.00  0.00     0.050 A 
HETATM   32  C   UNL     1       4.744  26.634  50.404  1.00  0.00     0.008 A 
HETATM   33  C   UNL     1       5.617  25.664  50.974  1.00  0.00     0.017 A 
ENDBRANCH   6  29
TORSDOF 6
ENDMDL
MODEL 3
REMARK VINA RESULT:      -9.6      4.637      8.429
REMARK  6 active torsions:
REMARK  status: ('A' for Active; 'I' for Inactive)
REMARK    1  A    between atoms: C_2  and  O_3 
REMARK    2  A    between atoms: C_2  and  C_4 
REMARK    3  A    between atoms: C_6  and  N_7 
REMARK       I    between atoms: N_7  and  C_8 
REMARK    4  A    between atoms: C_8  and  C_9 
REMARK    5  A    between atoms: C_12  and  C_13 
REMARK    6  A    between atoms: C_18  and  C_19 
ROOT
HETATM    1  C   UNL     1       5.990  27.131  52.711  1.00  0.00     0.096 C 
HETATM    2  C   UNL     1       6.581  26.173  53.515  1.00  0.00     0.138 C 
HETATM    3  N   UNL     1       6.865  26.806  54.705  1.00  0.00    -0.240 N 
HETATM    4  C   UNL     1       7.527  26.177  55.835  1.00  0.00     0.221 C 
HETATM    5  C   UNL     1       7.549  24.647  55.671  1.00  0.00     0.067 C 
HETATM    6  C   UNL     1       7.900  24.262  54.227  1.00  0.00     0.125 C 
HETATM    7  N   UNL     1       6.902  24.862  53.324  1.00  0.00    -0.365 N 
HETATM    8  N   UNL     1       6.671  28.131  54.662  1.00  0.00    -0.181 NA
HETATM    9  C   UNL     1       6.108  28.323  53.465  1.00  0.00     0.160 C 
HETATM   10  H   UNL     1       7.058  24.552  52.362  1.00  0.00     0.162 HD
ENDROOT
BRANCH   1  11
HETATM   11  C   UNL     1       5.415  27.007  51.382  1.00  0.00     0.261 C 
HETATM   12  N   UNL     1       5.021  28.215  50.838  1.00  0.00    -0.323 N 
HETATM   13  H   UNL     1       5.265  29.036  51.382  1.00  0.00     0.169 HD
HETATM   14  O   UNL     1       5.353  25.913  50.834  1.00  0.00    -0.267 OA
BRANCH  12  15
HETATM   15  C   UNL     1       4.431  28.444  49.579  1.00  0.00     0.035 A 
HETATM   16  C   UNL     1       3.302  27.767  49.112  1.00  0.00     0.039 A 
HETATM   17  C   UNL     1       2.768  28.034  47.837  1.00  0.00    -0.028 A 
HETATM   18  C   UNL     1       3.396  28.990  47.029  1.00  0.00     0.010 A 
HETATM   19  C   UNL     1       4.514  29.681  47.491  1.00  0.00     0.003 A 
HETATM   20  C   UNL     1       5.026  29.412  48.761  1.00  0.00     0.029 A 
BRANCH  17  21
HETATM   21  C   UNL     1       1.561  27.261  47.351  1.00  0.00     0.147 C 
HETATM   22  C   UNL     1       0.636  28.122  46.503  1.00  0.00     0.044 C 
BRANCH  21  23
HETATM   23  O   UNL     1       0.823  26.741  48.456  1.00  0.00    -0.391 OA
HETATM   24  H   UNL     1      -0.076  27.106  48.386  1.00  0.00     0.210 HD
ENDBRANCH  21  23
ENDBRANCH  17  21
ENDBRANCH  12  15
ENDBRANCH   1  11
BRANCH   4  25
HETATM   25  C   UNL     1       6.858  26.536  57.144  1.00  0.00     0.409 C 
HETATM   26  F   UNL     1       7.248  27.725  57.645  1.00  0.00    -0.169 F 
HETATM   27  F   UNL     1       5.510  26.535  57.049  1.00  0.00    -0.169 F 
HETATM   28  F   UNL     1       7.179  25.607  58.086  1.00  0.00    -0.169 F 
ENDBRANCH   4  25
BRANCH   6  29
HETATM   29  C   UNL     1       7.975  22.761  54.090  1.00  0.00     0.005 A 
HETATM   30  S   UNL     1       8.113  21.775  55.487  1.00  0.00    -0.104 SA
HETATM   31  C   UNL     1       8.122  20.342  54.555  1.00  0.00     0.050 A 
HETATM   32  C   UNL     1       8.022  20.602  53.207  1.00  0.00     0.008 A 
HETATM   33  C   UNL     1       7.942  21.997  52.937  1.00  0.00     0.017 A 
ENDBRANCH   6  29
TORSDOF 6
ENDMDL
MODEL 4
REMARK VINA RESULT:      -9.5      1.970      2.436
REMARK  6 active torsions:
REMARK  status: ('A' for Active; 'I' for Inactive)
REMARK    1  A    between atoms: C_2  and  O_3 
REMARK    2  A    between atoms: C_2  and  C_4 
REMARK    3  A    between atoms: C_6  and  N_7 
REMARK       I    between atoms: N_7  and  C_8 
REMARK    4  A    between atoms: C_8  and  C_9 
REMARK    5  A    between atoms: C_12  and  C_13 
REMARK    6  A    between atoms: C_18  and  C_19 
ROOT
HETATM    1  C   UNL     1       5.149  28.185  55.191  1.00  0.00     0.096 C 
HETATM    2  C   UNL     1       5.498  27.073  54.446  1.00  0.00     0.138 C 
HETATM    3  N   UNL     1       4.815  27.190  53.256  1.00  0.00    -0.240 N 
HETATM    4  C   UNL     1       4.860  26.215  52.180  1.00  0.00     0.221 C 
HETATM    5  C   UNL     1       6.025  25.229  52.387  1.00  0.00     0.067 C 
HETATM    6  C   UNL     1       6.114  24.798  53.858  1.00  0.00     0.125 C 
HETATM    7  N   UNL     1       6.302  26.000  54.690  1.00  0.00    -0.365 N 
HETATM    8  N   UNL     1       3.920  28.188  53.253  1.00  0.00    -0.181 NA
HETATM    9  C   UNL     1       4.148  28.812  54.412  1.00  0.00     0.160 C 
HETATM   10  H   UNL     1       6.454  25.738  55.668  1.00  0.00     0.162 HD
ENDROOT
BRANCH   1  11
HETATM   11  C   UNL     1       5.629  28.624  56.491  1.00  0.00     0.261 C 
HETATM   12  N   UNL     1       5.800  29.993  56.581  1.00  0.00    -0.323 N 
HETATM   13  H   UNL     1       5.482  30.523  55.777  1.00  0.00     0.169 HD
HETATM   14  O   UNL     1       5.806  27.813  57.392  1.00  0.00    -0.267 OA
BRANCH  12  15
HETATM   15  C   UNL     1       6.248  30.736  57.691  1.00  0.00     0.035 A 
HETATM   16  C   UNL     1       7.573  30.756  58.132  1.00  0.00     0.039 A 
HETATM   17  C   UNL     1       7.955  31.511  59.256  1.00  0.00    -0.028 A 
HETATM   18  C   UNL     1       6.978  32.244  59.943  1.00  0.00     0.010 A 
HETATM   19  C   UNL     1       5.656  32.242  59.502  1.00  0.00     0.003 A 
HETATM   20  C   UNL     1       5.295  31.495  58.380  1.00  0.00     0.029 A 
BRANCH  17  21
HETATM   21  C   UNL     1       9.395  31.487  59.724  1.00  0.00     0.147 C 
HETATM   22  C   UNL     1       9.533  31.949  61.168  1.00  0.00     0.044 C 
BRANCH  21  23
HETATM   23  O   UNL     1      10.204  32.319  58.895  1.00  0.00    -0.391 OA
HETATM   24  H   UNL     1       9.958  33.237  59.098  1.00  0.00     0.210 HD
ENDBRANCH  21  23
ENDBRANCH  17  21
ENDBRANCH  12  15
ENDBRANCH   1  11
BRANCH   4  25
HETATM   25  C   UNL     1       4.995  26.880  50.828  1.00  0.00     0.409 C 
HETATM   26  F   UNL     1       3.833  27.354  50.338  1.00  0.00    -0.169 F 
HETATM   27  F   UNL     1       5.895  27.890  50.841  1.00  0.00    -0.169 F 
HETATM   28  F   UNL     1       5.446  25.973  49.920  1.00  0.00    -0.169 F 
ENDBRANCH   4  25
BRANCH   6  29
HETATM   29  C   UNL     1       7.222  23.790  54.041  1.00  0.00     0.005 A 
HETATM   30  S   UNL     1       8.111  23.746  55.508  1.00  0.00    -0.104 SA
HETATM   31  C   UNL     1       9.072  22.442  54.963  1.00  0.00     0.050 A 
HETATM   32  C   UNL     1       8.730  22.044  53.690  1.00  0.00     0.008 A 
HETATM   33  C   UNL     1       7.666  22.825  53.155  1.00  0.00     0.017 A 
ENDBRANCH   6  29
TORSDOF 6
ENDMDL
MODEL 5
REMARK VINA RESULT:      -9.5      3.831      8.409
REMARK  6 active torsions:
REMARK  status: ('A' for Active; 'I' for Inactive)
REMARK    1  A    between atoms: C_2  and  O_3 
REMARK    2  A    between atoms: C_2  and  C_4 
REMARK    3  A    between atoms: C_6  and  N_7 
REMARK       I    between atoms: N_7  and  C_8 
REMARK    4  A    between atoms: C_8  and  C_9 
REMARK    5  A    between atoms: C_12  and  C_13 
REMARK    6  A    between atoms: C_18  and  C_19 
ROOT
HETATM    1  C   UNL     1       6.465  28.508  56.051  1.00  0.00     0.096 C 
HETATM    2  C   UNL     1       6.472  29.504  57.010  1.00  0.00     0.138 C 
HETATM    3  N   UNL     1       5.513  30.411  56.617  1.00  0.00    -0.240 N 
HETATM    4  C   UNL     1       5.205  31.643  57.321  1.00  0.00     0.221 C 
HETATM    5  C   UNL     1       5.825  31.635  58.730  1.00  0.00     0.067 C 
HETATM    6  C   UNL     1       7.254  31.076  58.689  1.00  0.00     0.125 C 
HETATM    7  N   UNL     1       7.210  29.710  58.138  1.00  0.00    -0.365 N 
HETATM    8  N   UNL     1       5.022  30.167  55.394  1.00  0.00    -0.181 NA
HETATM    9  C   UNL     1       5.573  28.995  55.065  1.00  0.00     0.160 C 
HETATM   10  H   UNL     1       8.136  29.277  58.179  1.00  0.00     0.162 HD
ENDROOT
BRANCH   1  11
HETATM   11  C   UNL     1       7.212  27.262  55.996  1.00  0.00     0.261 C 
HETATM   12  N   UNL     1       6.794  26.414  54.986  1.00  0.00    -0.323 N 
HETATM   13  H   UNL     1       6.096  26.799  54.358  1.00  0.00     0.169 HD
HETATM   14  O   UNL     1       8.139  27.060  56.770  1.00  0.00    -0.267 OA
BRANCH  12  15
HETATM   15  C   UNL     1       7.302  25.141  54.663  1.00  0.00     0.035 A 
HETATM   16  C   UNL     1       7.629  24.168  55.611  1.00  0.00     0.039 A 
HETATM   17  C   UNL     1       8.145  22.918  55.222  1.00  0.00    -0.028 A 
HETATM   18  C   UNL     1       8.337  22.659  53.859  1.00  0.00     0.010 A 
HETATM   19  C   UNL     1       7.999  23.617  52.905  1.00  0.00     0.003 A 
HETATM   20  C   UNL     1       7.480  24.850  53.306  1.00  0.00     0.029 A 
BRANCH  17  21
HETATM   21  C   UNL     1       8.518  21.898  56.278  1.00  0.00     0.147 C 
HETATM   22  C   UNL     1       7.770  20.585  56.091  1.00  0.00     0.044 C 
BRANCH  21  23
HETATM   23  O   UNL     1       8.241  22.405  57.582  1.00  0.00    -0.391 OA
HETATM   24  H   UNL     1       7.357  22.079  57.825  1.00  0.00     0.210 HD
ENDBRANCH  21  23
ENDBRANCH  17  21
ENDBRANCH  12  15
ENDBRANCH   1  11
BRANCH   4  25
HETATM   25  C   UNL     1       3.712  31.868  57.427  1.00  0.00     0.409 C 
HETATM   26  F   UNL     1       2.996  30.730  57.517  1.00  0.00    -0.169 F 
HETATM   27  F   UNL     1       3.386  32.660  58.473  1.00  0.00    -0.169 F 
HETATM   28  F   UNL     1       3.269  32.503  56.308  1.00  0.00    -0.169 F 
ENDBRANCH   4  25
BRANCH   6  29
HETATM   29  C   UNL     1       7.873  31.124  60.064  1.00  0.00     0.005 A 
HETATM   30  S   UNL     1       7.091  31.976  61.331  1.00  0.00    -0.104 SA
HETATM   31  C   UNL     1       8.315  31.568  62.451  1.00  0.00     0.050 A 
HETATM   32  C   UNL     1       9.303  30.799  61.879  1.00  0.00     0.008 A 
HETATM   33  C   UNL     1       9.052  30.546  60.501  1.00  0.00     0.017 A 
ENDBRANCH   6  29
TORSDOF 6
ENDMDL
MODEL 6
REMARK VINA RESULT:      -9.2      4.435      9.087
REMARK  6 active torsions:
REMARK  status: ('A' for Active; 'I' for Inactive)
REMARK    1  A    between atoms: C_2  and  O_3 
REMARK    2  A    between atoms: C_2  and  C_4 
REMARK    3  A    between atoms: C_6  and  N_7 
REMARK       I    between atoms: N_7  and  C_8 
REMARK    4  A    between atoms: C_8  and  C_9 
REMARK    5  A    between atoms: C_12  and  C_13 
REMARK    6  A    between atoms: C_18  and  C_19 
ROOT
HETATM    1  C   UNL     1       5.549  26.057  53.344  1.00  0.00     0.096 C 
HETATM    2  C   UNL     1       6.104  26.313  54.584  1.00  0.00     0.138 C 
HETATM    3  N   UNL     1       6.581  25.104  55.039  1.00  0.00    -0.240 N 
HETATM    4  C   UNL     1       7.217  24.901  56.329  1.00  0.00     0.221 C 
HETATM    5  C   UNL     1       7.606  26.249  56.963  1.00  0.00     0.067 C 
HETATM    6  C   UNL     1       6.480  27.276  56.783  1.00  0.00     0.125 C 
HETATM    7  N   UNL     1       6.219  27.441  55.342  1.00  0.00    -0.365 N 
HETATM    8  N   UNL     1       6.215  24.067  54.273  1.00  0.00    -0.181 NA
HETATM    9  C   UNL     1       5.619  24.648  53.227  1.00  0.00     0.160 C 
HETATM   10  H   UNL     1       5.533  28.184  55.185  1.00  0.00     0.162 HD
ENDROOT
BRANCH   1  11
HETATM   11  C   UNL     1       4.972  26.973  52.374  1.00  0.00     0.261 C 
HETATM   12  N   UNL     1       5.279  26.653  51.064  1.00  0.00    -0.323 N 
HETATM   13  H   UNL     1       5.778  25.779  50.937  1.00  0.00     0.169 HD
HETATM   14  O   UNL     1       4.256  27.896  52.743  1.00  0.00    -0.267 OA
BRANCH  12  15
HETATM   15  C   UNL     1       4.882  27.329  49.894  1.00  0.00     0.035 A 
HETATM   16  C   UNL     1       3.874  26.880  49.038  1.00  0.00     0.039 A 
HETATM   17  C   UNL     1       3.533  27.597  47.875  1.00  0.00    -0.028 A 
HETATM   18  C   UNL     1       4.230  28.775  47.579  1.00  0.00     0.010 A 
HETATM   19  C   UNL     1       5.227  29.239  48.434  1.00  0.00     0.003 A 
HETATM   20  C   UNL     1       5.548  28.521  49.588  1.00  0.00     0.029 A 
BRANCH  17  21
HETATM   21  C   UNL     1       2.455  27.066  46.954  1.00  0.00     0.147 C 
HETATM   22  C   UNL     1       1.101  26.992  47.644  1.00  0.00     0.044 C 
BRANCH  21  23
HETATM   23  O   UNL     1       2.802  25.766  46.478  1.00  0.00    -0.391 OA
HETATM   24  H   UNL     1       3.420  25.389  47.126  1.00  0.00     0.210 HD
ENDBRANCH  21  23
ENDBRANCH  17  21
ENDBRANCH  12  15
ENDBRANCH   1  11
BRANCH   4  25
HETATM   25  C   UNL     1       8.445  24.023  56.214  1.00  0.00     0.409 C 
HETATM   26  F   UNL     1       8.921  23.916  54.958  1.00  0.00    -0.169 F 
HETATM   27  F   UNL     1       9.450  24.441  57.016  1.00  0.00    -0.169 F 
HETATM   28  F   UNL     1       8.136  22.758  56.609  1.00  0.00    -0.169 F 
ENDBRANCH   4  25
BRANCH   6  29
HETATM   29  C   UNL     1       6.846  28.576  57.456  1.00  0.00     0.005 A 
HETATM   30  S   UNL     1       5.769  29.910  57.392  1.00  0.00    -0.104 SA
HETATM   31  C   UNL     1       6.820  30.888  58.318  1.00  0.00     0.050 A 
HETATM   32  C   UNL     1       7.971  30.219  58.672  1.00  0.00     0.008 A 
HETATM   33  C   UNL     1       7.988  28.887  58.171  1.00  0.00     0.017 A 
ENDBRANCH   6  29
TORSDOF 6
ENDMDL
MODEL 7
REMARK VINA RESULT:      -9.1      7.709     12.402
REMARK  6 active torsions:
REMARK  status: ('A' for Active; 'I' for Inactive)
REMARK    1  A    between atoms: C_2  and  O_3 
REMARK    2  A    between atoms: C_2  and  C_4 
REMARK    3  A    between atoms: C_6  and  N_7 
REMARK       I    between atoms: N_7  and  C_8 
REMARK    4  A    between atoms: C_8  and  C_9 
REMARK    5  A    between atoms: C_12  and  C_13 
REMARK    6  A    between atoms: C_18  and  C_19 
ROOT
HETATM    1  C   UNL     1       5.904  32.626  61.882  1.00  0.00     0.096 C 
HETATM    2  C   UNL     1       5.602  33.842  62.468  1.00  0.00     0.138 C 
HETATM    3  N   UNL     1       5.161  33.547  63.739  1.00  0.00    -0.240 N 
HETATM    4  C   UNL     1       4.702  34.532  64.702  1.00  0.00     0.221 C 
HETATM    5  C   UNL     1       5.099  35.952  64.260  1.00  0.00     0.067 C 
HETATM    6  C   UNL     1       4.861  36.137  62.755  1.00  0.00     0.125 C 
HETATM    7  N   UNL     1       5.652  35.130  62.026  1.00  0.00    -0.365 N 
HETATM    8  N   UNL     1       4.984  32.235  63.948  1.00  0.00    -0.181 NA
HETATM    9  C   UNL     1       5.467  31.675  62.835  1.00  0.00     0.160 C 
HETATM   10  H   UNL     1       5.583  35.284  61.016  1.00  0.00     0.162 HD
ENDROOT
BRANCH   1  11
HETATM   11  C   UNL     1       6.485  32.337  60.581  1.00  0.00     0.261 C 
HETATM   12  N   UNL     1       7.530  31.434  60.634  1.00  0.00    -0.323 N 
HETATM   13  H   UNL     1       7.697  31.016  61.544  1.00  0.00     0.169 HD
HETATM   14  O   UNL     1       6.020  32.845  59.569  1.00  0.00    -0.267 OA
BRANCH  12  15
HETATM   15  C   UNL     1       8.303  30.944  59.563  1.00  0.00     0.035 A 
HETATM   16  C   UNL     1       7.998  29.783  58.848  1.00  0.00     0.039 A 
HETATM   17  C   UNL     1       8.819  29.340  57.795  1.00  0.00    -0.028 A 
HETATM   18  C   UNL     1       9.964  30.079  57.473  1.00  0.00     0.010 A 
HETATM   19  C   UNL     1      10.269  31.246  58.170  1.00  0.00     0.003 A 
HETATM   20  C   UNL     1       9.440  31.678  59.207  1.00  0.00     0.029 A 
BRANCH  17  21
HETATM   21  C   UNL     1       8.474  28.061  57.060  1.00  0.00     0.147 C 
HETATM   22  C   UNL     1       7.432  28.290  55.975  1.00  0.00     0.044 C 
BRANCH  21  23
HETATM   23  O   UNL     1       7.983  27.079  57.971  1.00  0.00    -0.391 OA
HETATM   24  H   UNL     1       8.658  26.981  58.664  1.00  0.00     0.210 HD
ENDBRANCH  21  23
ENDBRANCH  17  21
ENDBRANCH  12  15
ENDBRANCH   1  11
BRANCH   4  25
HETATM   25  C   UNL     1       5.252  34.260  66.085  1.00  0.00     0.409 C 
HETATM   26  F   UNL     1       4.481  33.438  66.825  1.00  0.00    -0.169 F 
HETATM   27  F   UNL     1       6.504  33.751  66.048  1.00  0.00    -0.169 F 
HETATM   28  F   UNL     1       5.331  35.428  66.779  1.00  0.00    -0.169 F 
ENDBRANCH   4  25
BRANCH   6  29
HETATM   29  C   UNL     1       5.200  37.548  62.342  1.00  0.00     0.005 A 
HETATM   30  S   UNL     1       4.097  38.454  61.390  1.00  0.00    -0.104 SA
HETATM   31  C   UNL     1       5.128  39.817  61.374  1.00  0.00     0.050 A 
HETATM   32  C   UNL     1       6.291  39.594  62.076  1.00  0.00     0.008 A 
HETATM   33  C   UNL     1       6.336  38.284  62.631  1.00  0.00     0.017 A 
ENDBRANCH   6  29
TORSDOF 6
ENDMDL
MODEL 8
REMARK VINA RESULT:      -9.0      4.419      9.036
REMARK  6 active torsions:
REMARK  status: ('A' for Active; 'I' for Inactive)
REMARK    1  A    between atoms: C_2  and  O_3 
REMARK    2  A    between atoms: C_2  and  C_4 
REMARK    3  A    between atoms: C_6  and  N_7 
REMARK       I    between atoms: N_7  and  C_8 
REMARK    4  A    between atoms: C_8  and  C_9 
REMARK    5  A    between atoms: C_12  and  C_13 
REMARK    6  A    between atoms: C_18  and  C_19 
ROOT
HETATM    1  C   UNL     1       7.008  27.274  56.640  1.00  0.00     0.096 C 
HETATM    2  C   UNL     1       6.445  28.527  56.800  1.00  0.00     0.138 C 
HETATM    3  N   UNL     1       7.086  29.090  57.881  1.00  0.00    -0.240 N 
HETATM    4  C   UNL     1       6.782  30.401  58.428  1.00  0.00     0.221 C 
HETATM    5  C   UNL     1       5.917  31.214  57.448  1.00  0.00     0.067 C 
HETATM    6  C   UNL     1       4.820  30.332  56.835  1.00  0.00     0.125 C 
HETATM    7  N   UNL     1       5.459  29.199  56.142  1.00  0.00    -0.365 N 
HETATM    8  N   UNL     1       7.881  28.231  58.534  1.00  0.00    -0.181 NA
HETATM    9  C   UNL     1       7.861  27.141  57.761  1.00  0.00     0.160 C 
HETATM   10  H   UNL     1       4.758  28.640  55.648  1.00  0.00     0.162 HD
ENDROOT
BRANCH   1  11
HETATM   11  C   UNL     1       6.778  26.273  55.611  1.00  0.00     0.261 C 
HETATM   12  N   UNL     1       7.711  25.253  55.616  1.00  0.00    -0.323 N 
HETATM   13  H   UNL     1       8.373  25.275  56.385  1.00  0.00     0.169 HD
HETATM   14  O   UNL     1       5.807  26.360  54.868  1.00  0.00    -0.267 OA
BRANCH  12  15
HETATM   15  C   UNL     1       7.776  24.137  54.759  1.00  0.00     0.035 A 
HETATM   16  C   UNL     1       7.798  22.813  55.204  1.00  0.00     0.039 A 
HETATM   17  C   UNL     1       7.876  21.741  54.295  1.00  0.00    -0.028 A 
HETATM   18  C   UNL     1       7.941  22.021  52.924  1.00  0.00     0.010 A 
HETATM   19  C   UNL     1       7.905  23.337  52.469  1.00  0.00     0.003 A 
HETATM   20  C   UNL     1       7.819  24.389  53.383  1.00  0.00     0.029 A 
BRANCH  17  21
HETATM   21  C   UNL     1       7.927  20.319  54.812  1.00  0.00     0.147 C 
HETATM   22  C   UNL     1       8.164  20.267  56.315  1.00  0.00     0.044 C 
BRANCH  21  23
HETATM   23  O   UNL     1       8.961  19.586  54.157  1.00  0.00    -0.391 OA
HETATM   24  H   UNL     1       8.531  18.838  53.710  1.00  0.00     0.210 HD
ENDBRANCH  21  23
ENDBRANCH  17  21
ENDBRANCH  12  15
ENDBRANCH   1  11
BRANCH   4  25
HETATM   25  C   UNL     1       8.041  31.175  58.754  1.00  0.00     0.409 C 
HETATM   26  F   UNL     1       9.000  31.074  57.813  1.00  0.00    -0.169 F 
HETATM   27  F   UNL     1       7.794  32.487  58.971  1.00  0.00    -0.169 F 
HETATM   28  F   UNL     1       8.587  30.690  59.902  1.00  0.00    -0.169 F 
ENDBRANCH   4  25
BRANCH   6  29
HETATM   29  C   UNL     1       3.943  31.149  55.919  1.00  0.00     0.005 A 
HETATM   30  S   UNL     1       3.851  30.766  54.249  1.00  0.00    -0.104 SA
HETATM   31  C   UNL     1       2.743  32.032  53.952  1.00  0.00     0.050 A 
HETATM   32  C   UNL     1       2.446  32.738  55.096  1.00  0.00     0.008 A 
HETATM   33  C   UNL     1       3.141  32.233  56.230  1.00  0.00     0.017 A 
ENDBRANCH   6  29
TORSDOF 6
ENDMDL
MODEL 9
REMARK VINA RESULT:      -9.0      1.721      2.313
REMARK  6 active torsions:
REMARK  status: ('A' for Active; 'I' for Inactive)
REMARK    1  A    between atoms: C_2  and  O_3 
REMARK    2  A    between atoms: C_2  and  C_4 
REMARK    3  A    between atoms: C_6  and  N_7 
REMARK       I    between atoms: N_7  and  C_8 
REMARK    4  A    between atoms: C_8  and  C_9 
REMARK    5  A    between atoms: C_12  and  C_13 
REMARK    6  A    between atoms: C_18  and  C_19 
ROOT
HETATM    1  C   UNL     1       5.561  28.779  54.536  1.00  0.00     0.096 C 
HETATM    2  C   UNL     1       5.668  27.506  54.007  1.00  0.00     0.138 C 
HETATM    3  N   UNL     1       4.901  27.509  52.863  1.00  0.00    -0.240 N 
HETATM    4  C   UNL     1       4.699  26.357  52.002  1.00  0.00     0.221 C 
HETATM    5  C   UNL     1       5.717  25.249  52.328  1.00  0.00     0.067 C 
HETATM    6  C   UNL     1       5.879  25.092  53.846  1.00  0.00     0.125 C 
HETATM    7  N   UNL     1       6.322  26.380  54.408  1.00  0.00    -0.365 N 
HETATM    8  N   UNL     1       4.170  28.623  52.717  1.00  0.00    -0.181 NA
HETATM    9  C   UNL     1       4.596  29.407  53.712  1.00  0.00     0.160 C 
HETATM   10  H   UNL     1       6.524  26.284  55.407  1.00  0.00     0.162 HD
ENDROOT
BRANCH   1  11
HETATM   11  C   UNL     1       6.221  29.369  55.689  1.00  0.00     0.261 C 
HETATM   12  N   UNL     1       7.593  29.200  55.684  1.00  0.00    -0.323 N 
HETATM   13  H   UNL     1       7.975  28.780  54.843  1.00  0.00     0.169 HD
HETATM   14  O   UNL     1       5.571  29.979  56.530  1.00  0.00    -0.267 OA
BRANCH  12  15
HETATM   15  C   UNL     1       8.522  29.645  56.645  1.00  0.00     0.035 A 
HETATM   16  C   UNL     1       8.175  30.038  57.940  1.00  0.00     0.039 A 
HETATM   17  C   UNL     1       9.150  30.485  58.851  1.00  0.00    -0.028 A 
HETATM   18  C   UNL     1      10.487  30.541  58.437  1.00  0.00     0.010 A 
HETATM   19  C   UNL     1      10.845  30.137  57.152  1.00  0.00     0.003 A 
HETATM   20  C   UNL     1       9.867  29.688  56.263  1.00  0.00     0.029 A 
BRANCH  17  21
HETATM   21  C   UNL     1       8.735  30.932  60.237  1.00  0.00     0.147 C 
HETATM   22  C   UNL     1       9.589  32.087  60.743  1.00  0.00     0.044 C 
BRANCH  21  23
HETATM   23  O   UNL     1       8.832  29.849  61.160  1.00  0.00    -0.391 OA
HETATM   24  H   UNL     1       9.581  30.049  61.746  1.00  0.00     0.210 HD
ENDBRANCH  21  23
ENDBRANCH  17  21
ENDBRANCH  12  15
ENDBRANCH   1  11
BRANCH   4  25
HETATM   25  C   UNL     1       4.805  26.727  50.539  1.00  0.00     0.409 C 
HETATM   26  F   UNL     1       4.918  25.664  49.717  1.00  0.00    -0.169 F 
HETATM   27  F   UNL     1       3.760  27.478  50.123  1.00  0.00    -0.169 F 
HETATM   28  F   UNL     1       5.923  27.477  50.341  1.00  0.00    -0.169 F 
ENDBRANCH   4  25
BRANCH   6  29
HETATM   29  C   UNL     1       6.837  23.967  54.156  1.00  0.00     0.005 A 
HETATM   30  S   UNL     1       7.558  23.076  52.880  1.00  0.00    -0.104 SA
HETATM   31  C   UNL     1       8.432  22.094  53.972  1.00  0.00     0.050 A 
HETATM   32  C   UNL     1       8.184  22.431  55.283  1.00  0.00     0.008 A 
HETATM   33  C   UNL     1       7.260  23.509  55.391  1.00  0.00     0.017 A 
ENDBRANCH   6  29
TORSDOF 6
ENDMDL
MODEL 10
REMARK VINA RESULT:      -8.9      5.680      7.439
REMARK  6 active torsions:
REMARK  status: ('A' for Active; 'I' for Inactive)
REMARK    1  A    between atoms: C_2  and  O_3 
REMARK    2  A    between atoms: C_2  and  C_4 
REMARK    3  A    between atoms: C_6  and  N_7 
REMARK       I    between atoms: N_7  and  C_8 
REMARK    4  A    between atoms: C_8  and  C_9 
REMARK    5  A    between atoms: C_12  and  C_13 
REMARK    6  A    between atoms: C_18  and  C_19 
ROOT
HETATM    1  C   UNL     1       4.636  32.301  59.882  1.00  0.00     0.096 C 
HETATM    2  C   UNL     1       5.407  31.587  58.983  1.00  0.00     0.138 C 
HETATM    3  N   UNL     1       4.525  31.061  58.066  1.00  0.00    -0.240 N 
HETATM    4  C   UNL     1       4.903  30.206  56.955  1.00  0.00     0.221 C 
HETATM    5  C   UNL     1       6.425  30.251  56.725  1.00  0.00     0.067 C 
HETATM    6  C   UNL     1       7.175  30.198  58.063  1.00  0.00     0.125 C 
HETATM    7  N   UNL     1       6.744  31.339  58.891  1.00  0.00    -0.365 N 
HETATM    8  N   UNL     1       3.240  31.229  58.408  1.00  0.00    -0.181 NA
HETATM    9  C   UNL     1       3.307  32.011  59.490  1.00  0.00     0.160 C 
HETATM   10  H   UNL     1       7.292  31.382  59.755  1.00  0.00     0.162 HD
ENDROOT
BRANCH   1  11
HETATM   11  C   UNL     1       5.040  33.127  61.008  1.00  0.00     0.261 C 
HETATM   12  N   UNL     1       5.367  32.398  62.136  1.00  0.00    -0.323 N 
HETATM   13  H   UNL     1       5.378  31.391  62.013  1.00  0.00     0.169 HD
HETATM   14  O   UNL     1       5.105  34.344  60.891  1.00  0.00    -0.267 OA
BRANCH  12  15
HETATM   15  C   UNL     1       5.793  32.887  63.387  1.00  0.00     0.035 A 
HETATM   16  C   UNL     1       4.925  33.252  64.418  1.00  0.00     0.039 A 
HETATM   17  C   UNL     1       5.415  33.746  65.642  1.00  0.00    -0.028 A 
HETATM   18  C   UNL     1       6.799  33.878  65.812  1.00  0.00     0.010 A 
HETATM   19  C   UNL     1       7.674  33.503  64.794  1.00  0.00     0.003 A 
HETATM   20  C   UNL     1       7.173  33.006  63.589  1.00  0.00     0.029 A 
BRANCH  17  21
HETATM   21  C   UNL     1       4.445  34.160  66.728  1.00  0.00     0.147 C 
HETATM   22  C   UNL     1       4.282  35.672  66.801  1.00  0.00     0.044 C 
BRANCH  21  23
HETATM   23  O   UNL     1       4.884  33.682  67.998  1.00  0.00    -0.391 OA
HETATM   24  H   UNL     1       4.440  32.828  68.142  1.00  0.00     0.210 HD
ENDBRANCH  21  23
ENDBRANCH  17  21
ENDBRANCH  12  15
ENDBRANCH   1  11
BRANCH   4  25
HETATM   25  C   UNL     1       4.188  30.597  55.680  1.00  0.00     0.409 C 
HETATM   26  F   UNL     1       2.905  30.188  55.629  1.00  0.00    -0.169 F 
HETATM   27  F   UNL     1       4.218  31.932  55.464  1.00  0.00    -0.169 F 
HETATM   28  F   UNL     1       4.810  30.020  54.616  1.00  0.00    -0.169 F 
ENDBRANCH   4  25
BRANCH   6  29
HETATM   29  C   UNL     1       8.666  30.186  57.827  1.00  0.00     0.005 A 
HETATM   30  S   UNL     1       9.362  29.014  56.786  1.00  0.00    -0.104 SA
HETATM   31  C   UNL     1      10.934  29.639  57.025  1.00  0.00     0.050 A 
HETATM   32  C   UNL     1      10.937  30.718  57.880  1.00  0.00     0.008 A 
HETATM   33  C   UNL     1       9.629  31.032  58.347  1.00  0.00     0.017 A 
ENDBRANCH   6  29
TORSDOF 6
ENDMDL
