MODEL 1
REMARK VINA RESULT:      -9.0      0.000      0.000
REMARK  11 active torsions:
REMARK  status: ('A' for Active; 'I' for Inactive)
REMARK    1  A    between atoms: C_2  and  O_3 
REMARK    2  A    between atoms: O_3  and  C_4 
REMARK    3  A    between atoms: C_4  and  C_5 
REMARK    4  A    between atoms: C_6  and  N_7 
REMARK       I    between atoms: N_7  and  C_8 
REMARK    5  A    between atoms: C_8  and  C_9 
REMARK    6  A    between atoms: C_10  and  N_11 
REMARK    7  A    between atoms: N_11  and  C_12 
REMARK    8  A    between atoms: C_12  and  C_13 
REMARK    9  A    between atoms: C_13  and  C_14 
REMARK   10  A    between atoms: C_14  and  N_15 
REMARK   11  A    between atoms: C_24  and  N_25 
ROOT
HETATM    1  C   UNL     1       6.444  28.261  57.053  1.00  0.00     0.061 A 
HETATM    2  C   UNL     1       5.515  29.276  56.700  1.00  0.00     0.043 A 
HETATM    3  C   UNL     1       5.781  30.568  57.187  1.00  0.00     0.032 A 
HETATM    4  C   UNL     1       6.917  30.851  57.958  1.00  0.00     0.038 A 
HETATM    5  C   UNL     1       7.809  29.827  58.285  1.00  0.00     0.104 A 
HETATM    6  C   UNL     1       7.578  28.528  57.839  1.00  0.00     0.055 A 
ENDROOT
BRANCH   1   7
HETATM    7  C   UNL     1       6.268  26.845  56.642  1.00  0.00     0.258 C 
HETATM    8  N   UNL     1       7.402  26.274  56.095  1.00  0.00    -0.316 N 
HETATM    9  H   UNL     1       8.232  26.853  55.991  1.00  0.00     0.169 HD
HETATM   10  O   UNL     1       5.166  26.343  56.811  1.00  0.00    -0.267 OA
BRANCH   8  11
HETATM   11  C   UNL     1       7.551  24.955  55.686  1.00  0.00     0.094 A 
HETATM   12  C   UNL     1       7.579  24.495  54.372  1.00  0.00     0.080 A 
HETATM   13  C   UNL     1       7.847  23.068  54.338  1.00  0.00    -0.026 A 
HETATM   14  C   UNL     1       8.025  22.556  55.610  1.00  0.00    -0.008 A 
HETATM   15  C   UNL     1       7.975  22.182  53.126  1.00  0.00     0.041 C 
HETATM   16  S   UNL     1       7.799  23.718  56.819  1.00  0.00    -0.075 SA
HETATM   17  C   UNL     1       8.342  21.131  55.947  1.00  0.00     0.047 C 
HETATM   18  C   UNL     1       8.838  20.384  54.702  1.00  0.00     0.005 C 
HETATM   19  C   UNL     1       7.957  20.687  53.485  1.00  0.00     0.005 C 
BRANCH  12  20
HETATM   20  C   UNL     1       7.335  25.392  53.239  1.00  0.00     0.296 C 
HETATM   21  O   UNL     1       8.142  25.530  52.321  1.00  0.00    -0.259 OA
BRANCH  20  22
HETATM   22  O   UNL     1       6.154  26.061  53.324  1.00  0.00    -0.318 OA
BRANCH  22  23
HETATM   23  C   UNL     1       4.952  25.280  53.260  1.00  0.00     0.174 C 
HETATM   24  C   UNL     1       4.760  24.745  51.855  1.00  0.00     0.034 C 
ENDBRANCH  22  23
ENDBRANCH  20  22
ENDBRANCH  12  20
ENDBRANCH   8  11
ENDBRANCH   1   7
BRANCH   2  25
HETATM   25  N   UNL     1       4.305  28.957  56.058  1.00  0.00    -0.389 N 
HETATM   26  H   UNL     1       4.190  27.949  55.941  1.00  0.00     0.159 HD
BRANCH  25  27
HETATM   27  C   UNL     1       3.843  29.714  54.902  1.00  0.00     0.121 C 
BRANCH  27  28
HETATM   28  C   UNL     1       4.331  29.024  53.624  1.00  0.00     0.047 C 
BRANCH  28  29
HETATM   29  C   UNL     1       3.154  28.488  52.812  1.00  0.00     0.236 C 
BRANCH  29  30
HETATM   30  N   UNL     1       3.560  28.226  51.373  1.00  0.00    -0.067 N 
HETATM   31  H   UNL     1       3.473  27.218  51.194  1.00  0.00     0.280 HD
HETATM   32  C   UNL     1       2.697  28.963  50.349  1.00  0.00     0.261 C 
HETATM   33  C   UNL     1       3.203  28.657  48.934  1.00  0.00     0.195 C 
HETATM   34  O   UNL     1       4.578  29.022  48.788  1.00  0.00    -0.388 OA
HETATM   35  C   UNL     1       5.420  28.304  49.696  1.00  0.00     0.195 C 
HETATM   36  C   UNL     1       5.032  28.594  51.149  1.00  0.00     0.261 C 
ENDBRANCH  29  30
ENDBRANCH  28  29
ENDBRANCH  27  28
ENDBRANCH  25  27
ENDBRANCH   2  25
BRANCH   5  37
HETATM   37  N   UNL     1       8.987  30.121  59.110  1.00  0.00    -0.116 N 
HETATM   38  O   UNL     1      10.052  30.350  58.521  1.00  0.00    -0.532 OA
HETATM   39  O   UNL     1       8.843  30.113  60.338  1.00  0.00    -0.532 OA
ENDBRANCH   5  37
TORSDOF 11
ENDMDL
MODEL 2
REMARK VINA RESULT:      -8.9      2.714      8.051
REMARK  11 active torsions:
REMARK  status: ('A' for Active; 'I' for Inactive)
REMARK    1  A    between atoms: C_2  and  O_3 
REMARK    2  A    between atoms: O_3  and  C_4 
REMARK    3  A    between atoms: C_4  and  C_5 
REMARK    4  A    between atoms: C_6  and  N_7 
REMARK       I    between atoms: N_7  and  C_8 
REMARK    5  A    between atoms: C_8  and  C_9 
REMARK    6  A    between atoms: C_10  and  N_11 
REMARK    7  A    between atoms: N_11  and  C_12 
REMARK    8  A    between atoms: C_12  and  C_13 
REMARK    9  A    between atoms: C_13  and  C_14 
REMARK   10  A    between atoms: C_14  and  N_15 
REMARK   11  A    between atoms: C_24  and  N_25 
ROOT
HETATM    1  C   UNL     1       7.633  24.030  53.790  1.00  0.00     0.061 A 
HETATM    2  C   UNL     1       7.534  24.359  55.168  1.00  0.00     0.043 A 
HETATM    3  C   UNL     1       7.710  23.305  56.081  1.00  0.00     0.032 A 
HETATM    4  C   UNL     1       7.997  21.999  55.659  1.00  0.00     0.038 A 
HETATM    5  C   UNL     1       8.088  21.712  54.296  1.00  0.00     0.104 A 
HETATM    6  C   UNL     1       7.904  22.722  53.354  1.00  0.00     0.055 A 
ENDROOT
BRANCH   1   7
HETATM    7  C   UNL     1       7.431  25.034  52.716  1.00  0.00     0.258 C 
HETATM    8  N   UNL     1       6.156  25.568  52.680  1.00  0.00    -0.316 N 
HETATM    9  H   UNL     1       5.469  25.225  53.347  1.00  0.00     0.169 HD
HETATM   10  O   UNL     1       8.379  25.273  51.982  1.00  0.00    -0.267 OA
BRANCH   8  11
HETATM   11  C   UNL     1       5.700  26.570  51.831  1.00  0.00     0.094 A 
HETATM   12  C   UNL     1       5.762  27.941  52.063  1.00  0.00     0.080 A 
HETATM   13  C   UNL     1       5.274  28.675  50.908  1.00  0.00    -0.026 A 
HETATM   14  C   UNL     1       4.903  27.820  49.886  1.00  0.00    -0.008 A 
HETATM   15  C   UNL     1       5.184  30.168  50.734  1.00  0.00     0.041 C 
HETATM   16  S   UNL     1       5.051  26.189  50.312  1.00  0.00    -0.075 SA
HETATM   17  C   UNL     1       4.381  28.232  48.543  1.00  0.00     0.047 C 
HETATM   18  C   UNL     1       4.676  29.715  48.285  1.00  0.00     0.005 C 
HETATM   19  C   UNL     1       4.341  30.570  49.512  1.00  0.00     0.005 C 
BRANCH  12  20
HETATM   20  C   UNL     1       6.243  28.484  53.336  1.00  0.00     0.296 C 
HETATM   21  O   UNL     1       7.383  28.282  53.751  1.00  0.00    -0.259 OA
BRANCH  20  22
HETATM   22  O   UNL     1       5.302  29.200  54.008  1.00  0.00    -0.318 OA
BRANCH  22  23
HETATM   23  C   UNL     1       4.225  28.466  54.607  1.00  0.00     0.174 C 
HETATM   24  C   UNL     1       4.308  28.571  56.117  1.00  0.00     0.034 C 
ENDBRANCH  22  23
ENDBRANCH  20  22
ENDBRANCH  12  20
ENDBRANCH   8  11
ENDBRANCH   1   7
BRANCH   2  25
HETATM   25  N   UNL     1       7.098  25.633  55.577  1.00  0.00    -0.389 N 
HETATM   26  H   UNL     1       7.340  26.355  54.897  1.00  0.00     0.159 HD
BRANCH  25  27
HETATM   27  C   UNL     1       7.261  26.078  56.955  1.00  0.00     0.121 C 
BRANCH  27  28
HETATM   28  C   UNL     1       8.262  27.237  56.991  1.00  0.00     0.047 C 
BRANCH  28  29
HETATM   29  C   UNL     1       7.669  28.448  57.709  1.00  0.00     0.236 C 
BRANCH  29  30
HETATM   30  N   UNL     1       8.759  29.405  58.154  1.00  0.00    -0.067 N 
HETATM   31  H   UNL     1       9.301  28.950  58.899  1.00  0.00     0.280 HD
HETATM   32  C   UNL     1       9.727  29.795  57.037  1.00  0.00     0.261 C 
HETATM   33  C   UNL     1      10.767  30.781  57.579  1.00  0.00     0.195 C 
HETATM   34  O   UNL     1      10.141  31.944  58.127  1.00  0.00    -0.388 OA
HETATM   35  C   UNL     1       9.270  31.616  59.216  1.00  0.00     0.195 C 
HETATM   36  C   UNL     1       8.150  30.677  58.758  1.00  0.00     0.261 C 
ENDBRANCH  29  30
ENDBRANCH  28  29
ENDBRANCH  27  28
ENDBRANCH  25  27
ENDBRANCH   2  25
BRANCH   5  37
HETATM   37  N   UNL     1       8.368  20.340  53.855  1.00  0.00    -0.116 N 
HETATM   38  O   UNL     1       8.677  19.514  54.724  1.00  0.00    -0.532 OA
HETATM   39  O   UNL     1       8.285  20.099  52.644  1.00  0.00    -0.532 OA
ENDBRANCH   5  37
TORSDOF 11
ENDMDL
MODEL 3
REMARK VINA RESULT:      -8.7      1.909      6.299
REMARK  11 active torsions:
REMARK  status: ('A' for Active; 'I' for Inactive)
REMARK    1  A    between atoms: C_2  and  O_3 
REMARK    2  A    between atoms: O_3  and  C_4 
REMARK    3  A    between atoms: C_4  and  C_5 
REMARK    4  A    between atoms: C_6  and  N_7 
REMARK       I    between atoms: N_7  and  C_8 
REMARK    5  A    between atoms: C_8  and  C_9 
REMARK    6  A    between atoms: C_10  and  N_11 
REMARK    7  A    between atoms: N_11  and  C_12 
REMARK    8  A    between atoms: C_12  and  C_13 
REMARK    9  A    between atoms: C_13  and  C_14 
REMARK   10  A    between atoms: C_14  and  N_15 
REMARK   11  A    between atoms: C_24  and  N_25 
ROOT
HETATM    1  C   UNL     1       5.113  27.382  52.819  1.00  0.00     0.061 A 
HETATM    2  C   UNL     1       4.463  28.238  53.748  1.00  0.00     0.043 A 
HETATM    3  C   UNL     1       4.295  29.578  53.356  1.00  0.00     0.032 A 
HETATM    4  C   UNL     1       4.720  30.044  52.104  1.00  0.00     0.038 A 
HETATM    5  C   UNL     1       5.355  29.173  51.216  1.00  0.00     0.104 A 
HETATM    6  C   UNL     1       5.559  27.840  51.568  1.00  0.00     0.055 A 
ENDROOT
BRANCH   1   7
HETATM    7  C   UNL     1       5.393  25.954  53.115  1.00  0.00     0.258 C 
HETATM    8  N   UNL     1       6.694  25.707  53.510  1.00  0.00    -0.316 N 
HETATM    9  H   UNL     1       7.347  26.486  53.538  1.00  0.00     0.169 HD
HETATM   10  O   UNL     1       4.475  25.159  52.972  1.00  0.00    -0.267 OA
BRANCH   8  11
HETATM   11  C   UNL     1       7.221  24.486  53.912  1.00  0.00     0.094 A 
HETATM   12  C   UNL     1       7.138  23.928  55.185  1.00  0.00     0.080 A 
HETATM   13  C   UNL     1       7.724  22.599  55.198  1.00  0.00    -0.026 A 
HETATM   14  C   UNL     1       8.183  22.237  53.945  1.00  0.00    -0.008 A 
HETATM   15  C   UNL     1       7.827  21.647  56.361  1.00  0.00     0.041 C 
HETATM   16  S   UNL     1       8.000  23.470  52.800  1.00  0.00    -0.075 SA
HETATM   17  C   UNL     1       8.819  20.928  53.587  1.00  0.00     0.047 C 
HETATM   18  C   UNL     1       8.546  19.884  54.678  1.00  0.00     0.005 C 
HETATM   19  C   UNL     1       8.773  20.469  56.075  1.00  0.00     0.005 C 
BRANCH  12  20
HETATM   20  C   UNL     1       6.548  24.662  56.309  1.00  0.00     0.296 C 
HETATM   21  O   UNL     1       5.425  25.160  56.254  1.00  0.00    -0.259 OA
BRANCH  20  22
HETATM   22  O   UNL     1       7.373  24.754  57.387  1.00  0.00    -0.318 OA
BRANCH  22  23
HETATM   23  C   UNL     1       8.604  25.467  57.210  1.00  0.00     0.174 C 
HETATM   24  C   UNL     1       8.330  26.955  57.128  1.00  0.00     0.034 C 
ENDBRANCH  22  23
ENDBRANCH  20  22
ENDBRANCH  12  20
ENDBRANCH   8  11
ENDBRANCH   1   7
BRANCH   2  25
HETATM   25  N   UNL     1       4.178  27.803  55.055  1.00  0.00    -0.389 N 
HETATM   26  H   UNL     1       3.494  27.045  55.063  1.00  0.00     0.159 HD
BRANCH  25  27
HETATM   27  C   UNL     1       3.978  28.756  56.138  1.00  0.00     0.121 C 
BRANCH  27  28
HETATM   28  C   UNL     1       5.148  28.648  57.122  1.00  0.00     0.047 C 
BRANCH  28  29
HETATM   29  C   UNL     1       6.073  29.858  57.003  1.00  0.00     0.236 C 
BRANCH  29  30
HETATM   30  N   UNL     1       6.453  30.389  58.372  1.00  0.00    -0.067 N 
HETATM   31  H   UNL     1       5.907  29.879  59.078  1.00  0.00     0.280 HD
HETATM   32  C   UNL     1       7.935  30.217  58.707  1.00  0.00     0.261 C 
HETATM   33  C   UNL     1       8.221  30.807  60.093  1.00  0.00     0.195 C 
HETATM   34  O   UNL     1       7.851  32.188  60.152  1.00  0.00    -0.388 OA
HETATM   35  C   UNL     1       6.455  32.376  59.899  1.00  0.00     0.195 C 
HETATM   36  C   UNL     1       6.078  31.870  58.504  1.00  0.00     0.261 C 
ENDBRANCH  29  30
ENDBRANCH  28  29
ENDBRANCH  27  28
ENDBRANCH  25  27
ENDBRANCH   2  25
BRANCH   5  37
HETATM   37  N   UNL     1       5.818  29.666  49.913  1.00  0.00    -0.116 N 
HETATM   38  O   UNL     1       6.184  30.847  49.849  1.00  0.00    -0.532 OA
HETATM   39  O   UNL     1       5.805  28.874  48.963  1.00  0.00    -0.532 OA
ENDBRANCH   5  37
TORSDOF 11
ENDMDL
MODEL 4
REMARK VINA RESULT:      -8.4      2.004      6.614
REMARK  11 active torsions:
REMARK  status: ('A' for Active; 'I' for Inactive)
REMARK    1  A    between atoms: C_2  and  O_3 
REMARK    2  A    between atoms: O_3  and  C_4 
REMARK    3  A    between atoms: C_4  and  C_5 
REMARK    4  A    between atoms: C_6  and  N_7 
REMARK       I    between atoms: N_7  and  C_8 
REMARK    5  A    between atoms: C_8  and  C_9 
REMARK    6  A    between atoms: C_10  and  N_11 
REMARK    7  A    between atoms: N_11  and  C_12 
REMARK    8  A    between atoms: C_12  and  C_13 
REMARK    9  A    between atoms: C_13  and  C_14 
REMARK   10  A    between atoms: C_14  and  N_15 
REMARK   11  A    between atoms: C_24  and  N_25 
ROOT
HETATM    1  C   UNL     1       5.435  26.686  51.547  1.00  0.00     0.061 A 
HETATM    2  C   UNL     1       5.553  27.963  52.159  1.00  0.00     0.043 A 
HETATM    3  C   UNL     1       5.429  29.079  51.313  1.00  0.00     0.032 A 
HETATM    4  C   UNL     1       5.173  28.945  49.941  1.00  0.00     0.038 A 
HETATM    5  C   UNL     1       5.063  27.673  49.374  1.00  0.00     0.104 A 
HETATM    6  C   UNL     1       5.196  26.538  50.171  1.00  0.00     0.055 A 
ENDROOT
BRANCH   1   7
HETATM    7  C   UNL     1       5.584  25.422  52.312  1.00  0.00     0.258 C 
HETATM    8  N   UNL     1       6.893  25.105  52.622  1.00  0.00    -0.316 N 
HETATM    9  H   UNL     1       7.631  25.721  52.290  1.00  0.00     0.169 HD
HETATM   10  O   UNL     1       4.566  24.798  52.572  1.00  0.00    -0.267 OA
BRANCH   8  11
HETATM   11  C   UNL     1       7.327  24.024  53.380  1.00  0.00     0.094 A 
HETATM   12  C   UNL     1       7.202  23.879  54.759  1.00  0.00     0.080 A 
HETATM   13  C   UNL     1       7.687  22.576  55.180  1.00  0.00    -0.026 A 
HETATM   14  C   UNL     1       8.117  21.825  54.102  1.00  0.00    -0.008 A 
HETATM   15  C   UNL     1       7.718  22.010  56.576  1.00  0.00     0.041 C 
HETATM   16  S   UNL     1       8.028  22.670  52.639  1.00  0.00    -0.075 SA
HETATM   17  C   UNL     1       8.654  20.427  54.165  1.00  0.00     0.047 C 
HETATM   18  C   UNL     1       8.303  19.778  55.510  1.00  0.00     0.005 C 
HETATM   19  C   UNL     1       8.573  20.736  56.675  1.00  0.00     0.005 C 
BRANCH  12  20
HETATM   20  C   UNL     1       6.669  24.955  55.600  1.00  0.00     0.296 C 
HETATM   21  O   UNL     1       5.468  25.071  55.840  1.00  0.00    -0.259 OA
BRANCH  20  22
HETATM   22  O   UNL     1       7.624  25.810  56.055  1.00  0.00    -0.318 OA
BRANCH  22  23
HETATM   23  C   UNL     1       7.937  25.757  57.454  1.00  0.00     0.174 C 
HETATM   24  C   UNL     1       9.134  24.856  57.680  1.00  0.00     0.034 C 
ENDBRANCH  22  23
ENDBRANCH  20  22
ENDBRANCH  12  20
ENDBRANCH   8  11
ENDBRANCH   1   7
BRANCH   2  25
HETATM   25  N   UNL     1       5.958  28.087  53.500  1.00  0.00    -0.389 N 
HETATM   26  H   UNL     1       6.610  27.349  53.771  1.00  0.00     0.159 HD
BRANCH  25  27
HETATM   27  C   UNL     1       5.000  28.406  54.550  1.00  0.00     0.121 C 
BRANCH  27  28
HETATM   28  C   UNL     1       5.551  29.557  55.398  1.00  0.00     0.047 C 
BRANCH  28  29
HETATM   29  C   UNL     1       6.274  29.026  56.633  1.00  0.00     0.236 C 
BRANCH  29  30
HETATM   30  N   UNL     1       7.637  29.675  56.788  1.00  0.00    -0.067 N 
HETATM   31  H   UNL     1       7.551  30.667  56.533  1.00  0.00     0.280 HD
HETATM   32  C   UNL     1       8.195  29.600  58.209  1.00  0.00     0.261 C 
HETATM   33  C   UNL     1       9.580  30.256  58.254  1.00  0.00     0.195 C 
HETATM   34  O   UNL     1      10.476  29.632  57.330  1.00  0.00    -0.388 OA
HETATM   35  C   UNL     1      10.009  29.736  55.981  1.00  0.00     0.195 C 
HETATM   36  C   UNL     1       8.648  29.052  55.818  1.00  0.00     0.261 C 
ENDBRANCH  29  30
ENDBRANCH  28  29
ENDBRANCH  27  28
ENDBRANCH  25  27
ENDBRANCH   2  25
BRANCH   5  37
HETATM   37  N   UNL     1       4.816  27.534  47.934  1.00  0.00    -0.116 N 
HETATM   38  O   UNL     1       4.641  28.572  47.283  1.00  0.00    -0.532 OA
HETATM   39  O   UNL     1       4.791  26.389  47.465  1.00  0.00    -0.532 OA
ENDBRANCH   5  37
TORSDOF 11
ENDMDL
MODEL 5
REMARK VINA RESULT:      -8.4      2.452      4.337
REMARK  11 active torsions:
REMARK  status: ('A' for Active; 'I' for Inactive)
REMARK    1  A    between atoms: C_2  and  O_3 
REMARK    2  A    between atoms: O_3  and  C_4 
REMARK    3  A    between atoms: C_4  and  C_5 
REMARK    4  A    between atoms: C_6  and  N_7 
REMARK       I    between atoms: N_7  and  C_8 
REMARK    5  A    between atoms: C_8  and  C_9 
REMARK    6  A    between atoms: C_10  and  N_11 
REMARK    7  A    between atoms: N_11  and  C_12 
REMARK    8  A    between atoms: C_12  and  C_13 
REMARK    9  A    between atoms: C_13  and  C_14 
REMARK   10  A    between atoms: C_14  and  N_15 
REMARK   11  A    between atoms: C_24  and  N_25 
ROOT
HETATM    1  C   UNL     1       4.425  27.722  53.571  1.00  0.00     0.061 A 
HETATM    2  C   UNL     1       3.991  28.419  52.413  1.00  0.00     0.043 A 
HETATM    3  C   UNL     1       3.521  29.730  52.607  1.00  0.00     0.032 A 
HETATM    4  C   UNL     1       3.505  30.332  53.874  1.00  0.00     0.038 A 
HETATM    5  C   UNL     1       3.940  29.615  54.991  1.00  0.00     0.104 A 
HETATM    6  C   UNL     1       4.399  28.307  54.848  1.00  0.00     0.055 A 
ENDROOT
BRANCH   1   7
HETATM    7  C   UNL     1       4.909  26.319  53.520  1.00  0.00     0.258 C 
HETATM    8  N   UNL     1       6.128  26.121  54.142  1.00  0.00    -0.316 N 
HETATM    9  H   UNL     1       6.599  26.926  54.546  1.00  0.00     0.169 HD
HETATM   10  O   UNL     1       4.208  25.503  52.938  1.00  0.00    -0.267 OA
BRANCH   8  11
HETATM   11  C   UNL     1       6.788  24.910  54.306  1.00  0.00     0.094 A 
HETATM   12  C   UNL     1       6.968  24.223  55.504  1.00  0.00     0.080 A 
HETATM   13  C   UNL     1       7.622  22.948  55.266  1.00  0.00    -0.026 A 
HETATM   14  C   UNL     1       7.867  22.749  53.920  1.00  0.00    -0.008 A 
HETATM   15  C   UNL     1       7.988  21.895  56.280  1.00  0.00     0.041 C 
HETATM   16  S   UNL     1       7.411  24.073  52.970  1.00  0.00    -0.075 SA
HETATM   17  C   UNL     1       8.504  21.536  53.313  1.00  0.00     0.047 C 
HETATM   18  C   UNL     1       8.492  20.370  54.310  1.00  0.00     0.005 C 
HETATM   19  C   UNL     1       8.933  20.827  55.705  1.00  0.00     0.005 C 
BRANCH  12  20
HETATM   20  C   UNL     1       6.548  24.793  56.788  1.00  0.00     0.296 C 
HETATM   21  O   UNL     1       5.365  24.962  57.080  1.00  0.00    -0.259 OA
BRANCH  20  22
HETATM   22  O   UNL     1       7.589  25.133  57.594  1.00  0.00    -0.318 OA
BRANCH  22  23
HETATM   23  C   UNL     1       8.393  26.250  57.188  1.00  0.00     0.174 C 
HETATM   24  C   UNL     1       7.625  27.540  57.397  1.00  0.00     0.034 C 
ENDBRANCH  22  23
ENDBRANCH  20  22
ENDBRANCH  12  20
ENDBRANCH   8  11
ENDBRANCH   1   7
BRANCH   2  25
HETATM   25  N   UNL     1       3.867  27.760  51.176  1.00  0.00    -0.389 N 
HETATM   26  H   UNL     1       3.358  26.879  51.263  1.00  0.00     0.159 HD
BRANCH  25  27
HETATM   27  C   UNL     1       4.992  27.672  50.254  1.00  0.00     0.121 C 
BRANCH  27  28
HETATM   28  C   UNL     1       4.718  26.561  49.236  1.00  0.00     0.047 C 
BRANCH  28  29
HETATM   29  C   UNL     1       4.804  27.096  47.808  1.00  0.00     0.236 C 
BRANCH  29  30
HETATM   30  N   UNL     1       3.427  27.437  47.269  1.00  0.00    -0.067 N 
HETATM   31  H   UNL     1       3.394  27.166  46.279  1.00  0.00     0.280 HD
HETATM   32  C   UNL     1       2.290  26.716  47.993  1.00  0.00     0.261 C 
HETATM   33  C   UNL     1       0.945  27.147  47.397  1.00  0.00     0.195 C 
HETATM   34  O   UNL     1       0.774  28.564  47.480  1.00  0.00    -0.388 OA
HETATM   35  C   UNL     1       1.793  29.267  46.762  1.00  0.00     0.195 C 
HETATM   36  C   UNL     1       3.181  28.949  47.327  1.00  0.00     0.261 C 
ENDBRANCH  29  30
ENDBRANCH  28  29
ENDBRANCH  27  28
ENDBRANCH  25  27
ENDBRANCH   2  25
BRANCH   5  37
HETATM   37  N   UNL     1       3.904  30.239  56.319  1.00  0.00    -0.116 N 
HETATM   38  O   UNL     1       2.934  30.961  56.583  1.00  0.00    -0.532 OA
HETATM   39  O   UNL     1       4.848  30.010  57.085  1.00  0.00    -0.532 OA
ENDBRANCH   5  37
TORSDOF 11
ENDMDL
MODEL 6
REMARK VINA RESULT:      -8.1      2.645      6.669
REMARK  11 active torsions:
REMARK  status: ('A' for Active; 'I' for Inactive)
REMARK    1  A    between atoms: C_2  and  O_3 
REMARK    2  A    between atoms: O_3  and  C_4 
REMARK    3  A    between atoms: C_4  and  C_5 
REMARK    4  A    between atoms: C_6  and  N_7 
REMARK       I    between atoms: N_7  and  C_8 
REMARK    5  A    between atoms: C_8  and  C_9 
REMARK    6  A    between atoms: C_10  and  N_11 
REMARK    7  A    between atoms: N_11  and  C_12 
REMARK    8  A    between atoms: C_12  and  C_13 
REMARK    9  A    between atoms: C_13  and  C_14 
REMARK   10  A    between atoms: C_14  and  N_15 
REMARK   11  A    between atoms: C_24  and  N_25 
ROOT
HETATM    1  C   UNL     1       7.358  24.113  55.036  1.00  0.00     0.061 A 
HETATM    2  C   UNL     1       6.904  24.277  53.701  1.00  0.00     0.043 A 
HETATM    3  C   UNL     1       7.139  23.206  52.820  1.00  0.00     0.032 A 
HETATM    4  C   UNL     1       7.765  22.024  53.241  1.00  0.00     0.038 A 
HETATM    5  C   UNL     1       8.199  21.898  54.563  1.00  0.00     0.104 A 
HETATM    6  C   UNL     1       8.002  22.940  55.466  1.00  0.00     0.055 A 
ENDROOT
BRANCH   1   7
HETATM    7  C   UNL     1       7.212  25.176  56.062  1.00  0.00     0.258 C 
HETATM    8  N   UNL     1       7.609  26.429  55.632  1.00  0.00    -0.316 N 
HETATM    9  H   UNL     1       7.985  26.520  54.692  1.00  0.00     0.169 HD
HETATM   10  O   UNL     1       6.782  24.847  57.158  1.00  0.00    -0.267 OA
BRANCH   8  11
HETATM   11  C   UNL     1       7.524  27.617  56.348  1.00  0.00     0.094 A 
HETATM   12  C   UNL     1       6.382  28.393  56.528  1.00  0.00     0.080 A 
HETATM   13  C   UNL     1       6.661  29.510  57.414  1.00  0.00    -0.026 A 
HETATM   14  C   UNL     1       7.971  29.489  57.857  1.00  0.00    -0.008 A 
HETATM   15  C   UNL     1       5.707  30.578  57.881  1.00  0.00     0.041 C 
HETATM   16  S   UNL     1       8.871  28.228  57.177  1.00  0.00    -0.075 SA
HETATM   17  C   UNL     1       8.594  30.472  58.801  1.00  0.00     0.047 C 
HETATM   18  C   UNL     1       7.510  31.276  59.531  1.00  0.00     0.005 C 
HETATM   19  C   UNL     1       6.426  31.755  58.560  1.00  0.00     0.005 C 
BRANCH  12  20
HETATM   20  C   UNL     1       5.120  28.071  55.857  1.00  0.00     0.296 C 
HETATM   21  O   UNL     1       4.424  27.112  56.186  1.00  0.00    -0.259 OA
BRANCH  20  22
HETATM   22  O   UNL     1       4.821  28.916  54.833  1.00  0.00    -0.318 OA
BRANCH  22  23
HETATM   23  C   UNL     1       3.934  28.426  53.818  1.00  0.00     0.174 C 
HETATM   24  C   UNL     1       4.048  29.287  52.576  1.00  0.00     0.034 C 
ENDBRANCH  22  23
ENDBRANCH  20  22
ENDBRANCH  12  20
ENDBRANCH   8  11
ENDBRANCH   1   7
BRANCH   2  25
HETATM   25  N   UNL     1       6.416  25.517  53.250  1.00  0.00    -0.389 N 
HETATM   26  H   UNL     1       5.508  25.742  53.660  1.00  0.00     0.159 HD
BRANCH  25  27
HETATM   27  C   UNL     1       6.512  25.900  51.848  1.00  0.00     0.121 C 
BRANCH  27  28
HETATM   28  C   UNL     1       5.112  25.881  51.227  1.00  0.00     0.047 C 
BRANCH  28  29
HETATM   29  C   UNL     1       5.052  26.772  49.989  1.00  0.00     0.236 C 
BRANCH  29  30
HETATM   30  N   UNL     1       3.741  26.588  49.247  1.00  0.00    -0.067 N 
HETATM   31  H   UNL     1       3.188  25.879  49.745  1.00  0.00     0.280 HD
HETATM   32  C   UNL     1       2.903  27.863  49.157  1.00  0.00     0.261 C 
HETATM   33  C   UNL     1       1.618  27.579  48.369  1.00  0.00     0.195 C 
HETATM   34  O   UNL     1       1.914  27.080  47.062  1.00  0.00    -0.388 OA
HETATM   35  C   UNL     1       2.651  25.854  47.114  1.00  0.00     0.195 C 
HETATM   36  C   UNL     1       3.989  26.048  47.833  1.00  0.00     0.261 C 
ENDBRANCH  29  30
ENDBRANCH  28  29
ENDBRANCH  27  28
ENDBRANCH  25  27
ENDBRANCH   2  25
BRANCH   5  37
HETATM   37  N   UNL     1       8.872  20.668  54.997  1.00  0.00    -0.116 N 
HETATM   38  O   UNL     1       9.389  20.668  56.122  1.00  0.00    -0.532 OA
HETATM   39  O   UNL     1       8.886  19.714  54.209  1.00  0.00    -0.532 OA
ENDBRANCH   5  37
TORSDOF 11
ENDMDL
MODEL 7
REMARK VINA RESULT:      -8.1      2.014      6.538
REMARK  11 active torsions:
REMARK  status: ('A' for Active; 'I' for Inactive)
REMARK    1  A    between atoms: C_2  and  O_3 
REMARK    2  A    between atoms: O_3  and  C_4 
REMARK    3  A    between atoms: C_4  and  C_5 
REMARK    4  A    between atoms: C_6  and  N_7 
REMARK       I    between atoms: N_7  and  C_8 
REMARK    5  A    between atoms: C_8  and  C_9 
REMARK    6  A    between atoms: C_10  and  N_11 
REMARK    7  A    between atoms: N_11  and  C_12 
REMARK    8  A    between atoms: C_12  and  C_13 
REMARK    9  A    between atoms: C_13  and  C_14 
REMARK   10  A    between atoms: C_14  and  N_15 
REMARK   11  A    between atoms: C_24  and  N_25 
ROOT
HETATM    1  C   UNL     1       5.363  28.567  54.696  1.00  0.00     0.061 A 
HETATM    2  C   UNL     1       4.969  29.373  55.796  1.00  0.00     0.043 A 
HETATM    3  C   UNL     1       4.094  30.437  55.514  1.00  0.00     0.032 A 
HETATM    4  C   UNL     1       3.611  30.677  54.220  1.00  0.00     0.038 A 
HETATM    5  C   UNL     1       4.019  29.862  53.162  1.00  0.00     0.104 A 
HETATM    6  C   UNL     1       4.899  28.806  53.391  1.00  0.00     0.055 A 
ENDROOT
BRANCH   1   7
HETATM    7  C   UNL     1       6.312  27.434  54.840  1.00  0.00     0.258 C 
HETATM    8  N   UNL     1       5.721  26.189  54.738  1.00  0.00    -0.316 N 
HETATM    9  H   UNL     1       4.714  26.142  54.607  1.00  0.00     0.169 HD
HETATM   10  O   UNL     1       7.487  27.707  55.043  1.00  0.00    -0.267 OA
BRANCH   8  11
HETATM   11  C   UNL     1       6.367  24.959  54.767  1.00  0.00     0.094 A 
HETATM   12  C   UNL     1       6.952  24.308  53.684  1.00  0.00     0.080 A 
HETATM   13  C   UNL     1       7.614  23.090  54.120  1.00  0.00    -0.026 A 
HETATM   14  C   UNL     1       7.507  22.919  55.488  1.00  0.00    -0.008 A 
HETATM   15  C   UNL     1       8.379  22.103  53.277  1.00  0.00     0.041 C 
HETATM   16  S   UNL     1       6.576  24.123  56.227  1.00  0.00    -0.075 SA
HETATM   17  C   UNL     1       8.092  21.788  56.280  1.00  0.00     0.047 C 
HETATM   18  C   UNL     1       9.159  21.054  55.457  1.00  0.00     0.005 C 
HETATM   19  C   UNL     1       8.675  20.794  54.027  1.00  0.00     0.005 C 
BRANCH  12  20
HETATM   20  C   UNL     1       6.844  24.834  52.320  1.00  0.00     0.296 C 
HETATM   21  O   UNL     1       7.820  24.955  51.581  1.00  0.00    -0.259 OA
BRANCH  20  22
HETATM   22  O   UNL     1       5.578  25.191  51.978  1.00  0.00    -0.318 OA
BRANCH  22  23
HETATM   23  C   UNL     1       5.429  26.329  51.117  1.00  0.00     0.174 C 
HETATM   24  C   UNL     1       4.542  25.972  49.941  1.00  0.00     0.034 C 
ENDBRANCH  22  23
ENDBRANCH  20  22
ENDBRANCH  12  20
ENDBRANCH   8  11
ENDBRANCH   1   7
BRANCH   2  25
HETATM   25  N   UNL     1       5.574  29.221  57.057  1.00  0.00    -0.389 N 
HETATM   26  H   UNL     1       4.885  29.050  57.792  1.00  0.00     0.159 HD
BRANCH  25  27
HETATM   27  C   UNL     1       6.650  30.103  57.487  1.00  0.00     0.121 C 
BRANCH  27  28
HETATM   28  C   UNL     1       7.688  29.285  58.263  1.00  0.00     0.047 C 
BRANCH  28  29
HETATM   29  C   UNL     1       8.644  30.200  59.025  1.00  0.00     0.236 C 
BRANCH  29  30
HETATM   30  N   UNL     1       8.035  30.653  60.339  1.00  0.00    -0.067 N 
HETATM   31  H   UNL     1       7.229  30.049  60.543  1.00  0.00     0.280 HD
HETATM   32  C   UNL     1       8.999  30.569  61.523  1.00  0.00     0.261 C 
HETATM   33  C   UNL     1       8.300  31.072  62.791  1.00  0.00     0.195 C 
HETATM   34  O   UNL     1       7.827  32.411  62.623  1.00  0.00    -0.388 OA
HETATM   35  C   UNL     1       6.877  32.511  61.557  1.00  0.00     0.195 C 
HETATM   36  C   UNL     1       7.503  32.086  60.225  1.00  0.00     0.261 C 
ENDBRANCH  29  30
ENDBRANCH  28  29
ENDBRANCH  27  28
ENDBRANCH  25  27
ENDBRANCH   2  25
BRANCH   5  37
HETATM   37  N   UNL     1       3.529  30.127  51.805  1.00  0.00    -0.116 N 
HETATM   38  O   UNL     1       3.440  31.310  51.451  1.00  0.00    -0.532 OA
HETATM   39  O   UNL     1       3.228  29.152  51.104  1.00  0.00    -0.532 OA
ENDBRANCH   5  37
TORSDOF 11
ENDMDL
MODEL 8
REMARK VINA RESULT:      -8.0      2.589      8.088
REMARK  11 active torsions:
REMARK  status: ('A' for Active; 'I' for Inactive)
REMARK    1  A    between atoms: C_2  and  O_3 
REMARK    2  A    between atoms: O_3  and  C_4 
REMARK    3  A    between atoms: C_4  and  C_5 
REMARK    4  A    between atoms: C_6  and  N_7 
REMARK       I    between atoms: N_7  and  C_8 
REMARK    5  A    between atoms: C_8  and  C_9 
REMARK    6  A    between atoms: C_10  and  N_11 
REMARK    7  A    between atoms: N_11  and  C_12 
REMARK    8  A    between atoms: C_12  and  C_13 
REMARK    9  A    between atoms: C_13  and  C_14 
REMARK   10  A    between atoms: C_14  and  N_15 
REMARK   11  A    between atoms: C_24  and  N_25 
ROOT
HETATM    1  C   UNL     1       4.795  28.651  53.767  1.00  0.00     0.061 A 
HETATM    2  C   UNL     1       5.198  27.464  53.099  1.00  0.00     0.043 A 
HETATM    3  C   UNL     1       4.882  27.374  51.732  1.00  0.00     0.032 A 
HETATM    4  C   UNL     1       4.228  28.411  51.052  1.00  0.00     0.038 A 
HETATM    5  C   UNL     1       3.847  29.564  51.741  1.00  0.00     0.104 A 
HETATM    6  C   UNL     1       4.124  29.691  53.101  1.00  0.00     0.055 A 
ENDROOT
BRANCH   1   7
HETATM    7  C   UNL     1       5.027  28.864  55.218  1.00  0.00     0.258 C 
HETATM    8  N   UNL     1       6.071  29.727  55.499  1.00  0.00    -0.316 N 
HETATM    9  H   UNL     1       6.601  30.113  54.721  1.00  0.00     0.169 HD
HETATM   10  O   UNL     1       4.303  28.263  55.998  1.00  0.00    -0.267 OA
BRANCH   8  11
HETATM   11  C   UNL     1       6.472  30.162  56.756  1.00  0.00     0.094 A 
HETATM   12  C   UNL     1       7.614  29.762  57.443  1.00  0.00     0.080 A 
HETATM   13  C   UNL     1       7.747  30.503  58.685  1.00  0.00    -0.026 A 
HETATM   14  C   UNL     1       6.723  31.419  58.839  1.00  0.00    -0.008 A 
HETATM   15  C   UNL     1       8.843  30.392  59.713  1.00  0.00     0.041 C 
HETATM   16  S   UNL     1       5.587  31.345  57.587  1.00  0.00    -0.075 SA
HETATM   17  C   UNL     1       6.559  32.368  59.987  1.00  0.00     0.047 C 
HETATM   18  C   UNL     1       7.869  32.486  60.777  1.00  0.00     0.005 C 
HETATM   19  C   UNL     1       8.491  31.108  61.028  1.00  0.00     0.005 C 
BRANCH  12  20
HETATM   20  C   UNL     1       8.494  28.710  56.925  1.00  0.00     0.296 C 
HETATM   21  O   UNL     1       9.714  28.849  56.848  1.00  0.00    -0.259 OA
BRANCH  20  22
HETATM   22  O   UNL     1       7.826  27.596  56.522  1.00  0.00    -0.318 OA
BRANCH  22  23
HETATM   23  C   UNL     1       7.433  26.665  57.540  1.00  0.00     0.174 C 
HETATM   24  C   UNL     1       8.305  25.427  57.469  1.00  0.00     0.034 C 
ENDBRANCH  22  23
ENDBRANCH  20  22
ENDBRANCH  12  20
ENDBRANCH   8  11
ENDBRANCH   1   7
BRANCH   2  25
HETATM   25  N   UNL     1       5.715  26.371  53.817  1.00  0.00    -0.389 N 
HETATM   26  H   UNL     1       5.511  26.439  54.815  1.00  0.00     0.159 HD
BRANCH  25  27
HETATM   27  C   UNL     1       7.052  25.858  53.549  1.00  0.00     0.121 C 
BRANCH  27  28
HETATM   28  C   UNL     1       6.966  24.352  53.280  1.00  0.00     0.047 C 
BRANCH  28  29
HETATM   29  C   UNL     1       6.976  23.564  54.588  1.00  0.00     0.236 C 
BRANCH  29  30
HETATM   30  N   UNL     1       7.968  22.417  54.526  1.00  0.00    -0.067 N 
HETATM   31  H   UNL     1       8.916  22.813  54.528  1.00  0.00     0.280 HD
HETATM   32  C   UNL     1       7.859  21.448  55.703  1.00  0.00     0.261 C 
HETATM   33  C   UNL     1       8.880  20.316  55.533  1.00  0.00     0.195 C 
HETATM   34  O   UNL     1       8.684  19.626  54.296  1.00  0.00    -0.388 OA
HETATM   35  C   UNL     1       8.836  20.498  53.170  1.00  0.00     0.195 C 
HETATM   36  C   UNL     1       7.812  21.636  53.216  1.00  0.00     0.261 C 
ENDBRANCH  29  30
ENDBRANCH  28  29
ENDBRANCH  27  28
ENDBRANCH  25  27
ENDBRANCH   2  25
BRANCH   5  37
HETATM   37  N   UNL     1       3.144  30.640  51.033  1.00  0.00    -0.116 N 
HETATM   38  O   UNL     1       3.739  31.718  50.899  1.00  0.00    -0.532 OA
HETATM   39  O   UNL     1       2.001  30.405  50.623  1.00  0.00    -0.532 OA
ENDBRANCH   5  37
TORSDOF 11
ENDMDL
MODEL 9
REMARK VINA RESULT:      -8.0      1.763      2.131
REMARK  11 active torsions:
REMARK  status: ('A' for Active; 'I' for Inactive)
REMARK    1  A    between atoms: C_2  and  O_3 
REMARK    2  A    between atoms: O_3  and  C_4 
REMARK    3  A    between atoms: C_4  and  C_5 
REMARK    4  A    between atoms: C_6  and  N_7 
REMARK       I    between atoms: N_7  and  C_8 
REMARK    5  A    between atoms: C_8  and  C_9 
REMARK    6  A    between atoms: C_10  and  N_11 
REMARK    7  A    between atoms: N_11  and  C_12 
REMARK    8  A    between atoms: C_12  and  C_13 
REMARK    9  A    between atoms: C_13  and  C_14 
REMARK   10  A    between atoms: C_14  and  N_15 
REMARK   11  A    between atoms: C_24  and  N_25 
ROOT
HETATM    1  C   UNL     1       5.912  28.126  56.636  1.00  0.00     0.061 A 
HETATM    2  C   UNL     1       4.975  28.996  56.018  1.00  0.00     0.043 A 
HETATM    3  C   UNL     1       5.086  30.363  56.329  1.00  0.00     0.032 A 
HETATM    4  C   UNL     1       6.086  30.850  57.183  1.00  0.00     0.038 A 
HETATM    5  C   UNL     1       6.991  29.965  57.772  1.00  0.00     0.104 A 
HETATM    6  C   UNL     1       6.908  28.599  57.506  1.00  0.00     0.055 A 
ENDROOT
BRANCH   1   7
HETATM    7  C   UNL     1       5.888  26.656  56.429  1.00  0.00     0.258 C 
HETATM    8  N   UNL     1       6.942  26.177  55.675  1.00  0.00    -0.316 N 
HETATM    9  H   UNL     1       7.614  26.845  55.306  1.00  0.00     0.169 HD
HETATM   10  O   UNL     1       4.957  26.034  56.921  1.00  0.00    -0.267 OA
BRANCH   8  11
HETATM   11  C   UNL     1       7.213  24.847  55.378  1.00  0.00     0.094 A 
HETATM   12  C   UNL     1       7.379  24.301  54.108  1.00  0.00     0.080 A 
HETATM   13  C   UNL     1       7.744  22.898  54.201  1.00  0.00    -0.026 A 
HETATM   14  C   UNL     1       7.852  22.490  55.518  1.00  0.00    -0.008 A 
HETATM   15  C   UNL     1       8.030  21.942  53.072  1.00  0.00     0.041 C 
HETATM   16  S   UNL     1       7.450  23.713  56.616  1.00  0.00    -0.075 SA
HETATM   17  C   UNL     1       8.236  21.118  55.983  1.00  0.00     0.047 C 
HETATM   18  C   UNL     1       8.880  20.325  54.839  1.00  0.00     0.005 C 
HETATM   19  C   UNL     1       8.084  20.478  53.539  1.00  0.00     0.005 C 
BRANCH  12  20
HETATM   20  C   UNL     1       7.168  25.097  52.895  1.00  0.00     0.296 C 
HETATM   21  O   UNL     1       8.050  25.263  52.054  1.00  0.00    -0.259 OA
BRANCH  20  22
HETATM   22  O   UNL     1       5.925  25.643  52.816  1.00  0.00    -0.318 OA
BRANCH  22  23
HETATM   23  C   UNL     1       5.148  25.335  51.650  1.00  0.00     0.174 C 
HETATM   24  C   UNL     1       5.169  26.510  50.693  1.00  0.00     0.034 C 
ENDBRANCH  22  23
ENDBRANCH  20  22
ENDBRANCH  12  20
ENDBRANCH   8  11
ENDBRANCH   1   7
BRANCH   2  25
HETATM   25  N   UNL     1       3.887  28.486  55.287  1.00  0.00    -0.389 N 
HETATM   26  H   UNL     1       3.402  27.743  55.794  1.00  0.00     0.159 HD
BRANCH  25  27
HETATM   27  C   UNL     1       4.000  28.213  53.861  1.00  0.00     0.121 C 
BRANCH  27  28
HETATM   28  C   UNL     1       3.976  29.540  53.095  1.00  0.00     0.047 C 
BRANCH  28  29
HETATM   29  C   UNL     1       3.095  29.437  51.852  1.00  0.00     0.236 C 
BRANCH  29  30
HETATM   30  N   UNL     1       2.289  30.706  51.648  1.00  0.00    -0.067 N 
HETATM   31  H   UNL     1       1.321  30.522  51.943  1.00  0.00     0.280 HD
HETATM   32  C   UNL     1       2.808  31.898  52.452  1.00  0.00     0.261 C 
HETATM   33  C   UNL     1       1.947  33.132  52.156  1.00  0.00     0.195 C 
HETATM   34  O   UNL     1       1.941  33.434  50.759  1.00  0.00    -0.388 OA
HETATM   35  C   UNL     1       1.405  32.357  49.983  1.00  0.00     0.195 C 
HETATM   36  C   UNL     1       2.239  31.085  50.163  1.00  0.00     0.261 C 
ENDBRANCH  29  30
ENDBRANCH  28  29
ENDBRANCH  27  28
ENDBRANCH  25  27
ENDBRANCH   2  25
BRANCH   5  37
HETATM   37  N   UNL     1       8.024  30.473  58.682  1.00  0.00    -0.116 N 
HETATM   38  O   UNL     1       8.514  29.675  59.492  1.00  0.00    -0.532 OA
HETATM   39  O   UNL     1       8.334  31.667  58.587  1.00  0.00    -0.532 OA
ENDBRANCH   5  37
TORSDOF 11
ENDMDL
MODEL 10
REMARK VINA RESULT:      -7.8      2.484      6.965
REMARK  11 active torsions:
REMARK  status: ('A' for Active; 'I' for Inactive)
REMARK    1  A    between atoms: C_2  and  O_3 
REMARK    2  A    between atoms: O_3  and  C_4 
REMARK    3  A    between atoms: C_4  and  C_5 
REMARK    4  A    between atoms: C_6  and  N_7 
REMARK       I    between atoms: N_7  and  C_8 
REMARK    5  A    between atoms: C_8  and  C_9 
REMARK    6  A    between atoms: C_10  and  N_11 
REMARK    7  A    between atoms: N_11  and  C_12 
REMARK    8  A    between atoms: C_12  and  C_13 
REMARK    9  A    between atoms: C_13  and  C_14 
REMARK   10  A    between atoms: C_14  and  N_15 
REMARK   11  A    between atoms: C_24  and  N_25 
ROOT
HETATM    1  C   UNL     1       7.298  25.634  54.246  1.00  0.00     0.061 A 
HETATM    2  C   UNL     1       7.249  25.139  52.915  1.00  0.00     0.043 A 
HETATM    3  C   UNL     1       7.668  23.811  52.723  1.00  0.00     0.032 A 
HETATM    4  C   UNL     1       8.087  23.003  53.790  1.00  0.00     0.038 A 
HETATM    5  C   UNL     1       8.121  23.524  55.086  1.00  0.00     0.104 A 
HETATM    6  C   UNL     1       7.732  24.841  55.321  1.00  0.00     0.055 A 
ENDROOT
BRANCH   1   7
HETATM    7  C   UNL     1       6.924  27.030  54.589  1.00  0.00     0.258 C 
HETATM    8  N   UNL     1       6.134  27.138  55.718  1.00  0.00    -0.316 N 
HETATM    9  H   UNL     1       5.854  26.285  56.195  1.00  0.00     0.169 HD
HETATM   10  O   UNL     1       7.328  27.918  53.852  1.00  0.00    -0.267 OA
BRANCH   8  11
HETATM   11  C   UNL     1       5.690  28.314  56.310  1.00  0.00     0.094 A 
HETATM   12  C   UNL     1       6.413  29.125  57.180  1.00  0.00     0.080 A 
HETATM   13  C   UNL     1       5.653  30.317  57.515  1.00  0.00    -0.026 A 
HETATM   14  C   UNL     1       4.433  30.337  56.865  1.00  0.00    -0.008 A 
HETATM   15  C   UNL     1       6.070  31.456  58.408  1.00  0.00     0.041 C 
HETATM   16  S   UNL     1       4.158  28.943  55.947  1.00  0.00    -0.075 SA
HETATM   17  C   UNL     1       3.407  31.425  56.958  1.00  0.00     0.047 C 
HETATM   18  C   UNL     1       4.029  32.700  57.543  1.00  0.00     0.005 C 
HETATM   19  C   UNL     1       4.896  32.384  58.765  1.00  0.00     0.005 C 
BRANCH  12  20
HETATM   20  C   UNL     1       7.743  28.741  57.664  1.00  0.00     0.296 C 
HETATM   21  O   UNL     1       7.951  27.678  58.246  1.00  0.00    -0.259 OA
BRANCH  20  22
HETATM   22  O   UNL     1       8.697  29.681  57.426  1.00  0.00    -0.318 OA
BRANCH  22  23
HETATM   23  C   UNL     1       9.535  30.056  58.528  1.00  0.00     0.174 C 
HETATM   24  C   UNL     1       9.945  31.509  58.392  1.00  0.00     0.034 C 
ENDBRANCH  22  23
ENDBRANCH  20  22
ENDBRANCH  12  20
ENDBRANCH   8  11
ENDBRANCH   1   7
BRANCH   2  25
HETATM   25  N   UNL     1       6.974  25.997  51.834  1.00  0.00    -0.389 N 
HETATM   26  H   UNL     1       7.239  26.962  52.037  1.00  0.00     0.159 HD
BRANCH  25  27
HETATM   27  C   UNL     1       5.723  25.899  51.095  1.00  0.00     0.121 C 
BRANCH  27  28
HETATM   28  C   UNL     1       4.844  27.105  51.438  1.00  0.00     0.047 C 
BRANCH  28  29
HETATM   29  C   UNL     1       5.325  28.357  50.707  1.00  0.00     0.236 C 
BRANCH  29  30
HETATM   30  N   UNL     1       4.873  28.350  49.258  1.00  0.00    -0.067 N 
HETATM   31  H   UNL     1       5.487  27.713  48.734  1.00  0.00     0.280 HD
HETATM   32  C   UNL     1       3.432  27.878  49.068  1.00  0.00     0.261 C 
HETATM   33  C   UNL     1       3.064  27.934  47.580  1.00  0.00     0.195 C 
HETATM   34  O   UNL     1       3.234  29.254  47.056  1.00  0.00    -0.388 OA
HETATM   35  C   UNL     1       4.589  29.702  47.168  1.00  0.00     0.195 C 
HETATM   36  C   UNL     1       5.034  29.741  48.633  1.00  0.00     0.261 C 
ENDBRANCH  29  30
ENDBRANCH  28  29
ENDBRANCH  27  28
ENDBRANCH  25  27
ENDBRANCH   2  25
BRANCH   5  37
HETATM   37  N   UNL     1       8.579  22.685  56.199  1.00  0.00    -0.116 N 
HETATM   38  O   UNL     1       8.936  21.529  55.932  1.00  0.00    -0.532 OA
HETATM   39  O   UNL     1       8.573  23.182  57.332  1.00  0.00    -0.532 OA
ENDBRANCH   5  37
TORSDOF 11
ENDMDL
