MODEL 1
REMARK VINA RESULT:     -10.1      0.000      0.000
REMARK  6 active torsions:
REMARK  status: ('A' for Active; 'I' for Inactive)
REMARK    1  A    between atoms: C_2  and  O_3 
REMARK    2  A    between atoms: O_3  and  C_4 
REMARK    3  A    between atoms: C_7  and  N_8 
REMARK    4  A    between atoms: N_8  and  C_9 
REMARK    5  A    between atoms: C_10  and  C_11 
REMARK    6  A    between atoms: C_14  and  C_15 
ROOT
HETATM    1  C   UNL     1       6.142  27.893  56.414  1.00  0.00     0.113 C 
HETATM    2  C   UNL     1       6.239  29.224  56.604  1.00  0.00     0.082 C 
HETATM    3  C   UNL     1       5.373  30.165  55.782  1.00  0.00     0.024 C 
HETATM    4  N   UNL     1       4.656  30.947  55.100  1.00  0.00    -0.096 N 
ENDROOT
BRANCH   2   5
HETATM    5  C   UNL     1       7.190  29.774  57.531  1.00  0.00     0.119 A 
HETATM    6  S   UNL     1       8.897  29.674  57.211  1.00  0.00    -0.078 SA
HETATM    7  C   UNL     1       9.238  30.480  58.677  1.00  0.00     0.084 A 
HETATM    8  C   UNL     1       8.067  30.800  59.327  1.00  0.00     0.081 A 
HETATM    9  N   UNL     1       6.909  30.403  58.666  1.00  0.00    -0.239 NA
BRANCH   8  10
HETATM   10  C   UNL     1       7.946  31.434  60.615  1.00  0.00     0.070 A 
HETATM   11  C   UNL     1       8.663  30.858  61.799  1.00  0.00     0.301 A 
HETATM   12  O   UNL     1       9.412  29.889  61.717  1.00  0.00    -0.259 OA
HETATM   13  O   UNL     1       8.455  31.468  63.034  1.00  0.00    -0.274 OA
HETATM   14  C   UNL     1       7.649  32.608  63.178  1.00  0.00     0.089 A 
HETATM   15  C   UNL     1       7.020  33.170  62.074  1.00  0.00     0.000 A 
HETATM   16  C   UNL     1       7.511  33.144  64.456  1.00  0.00     0.039 A 
HETATM   17  C   UNL     1       6.228  34.307  62.253  1.00  0.00     0.033 A 
HETATM   18  C   UNL     1       7.192  32.538  60.779  1.00  0.00     0.034 A 
HETATM   19  C   UNL     1       6.083  34.853  63.531  1.00  0.00     0.012 A 
HETATM   20  C   UNL     1       6.720  34.278  64.633  1.00  0.00     0.022 A 
HETATM   21 BR   UNL     1       5.008  36.391  63.773  1.00  0.00    -0.051 Br
ENDBRANCH   8  10
ENDBRANCH   2   5
BRANCH   1  22
HETATM   22  N   UNL     1       6.898  26.907  57.004  1.00  0.00    -0.364 N 
HETATM   23  H   UNL     1       7.065  27.041  58.006  1.00  0.00     0.165 HD
BRANCH  22  24
HETATM   24  C   UNL     1       7.339  25.678  56.490  1.00  0.00     0.032 A 
HETATM   25  C   UNL     1       6.703  25.166  55.351  1.00  0.00     0.032 A 
HETATM   26  C   UNL     1       7.083  23.941  54.799  1.00  0.00     0.039 A 
HETATM   27  C   UNL     1       8.115  23.199  55.371  1.00  0.00     0.068 A 
HETATM   28  C   UNL     1       8.734  23.676  56.524  1.00  0.00     0.039 A 
HETATM   29  C   UNL     1       8.341  24.902  57.082  1.00  0.00     0.032 A 
BRANCH  27  30
HETATM   30  O   UNL     1       8.410  22.032  54.726  1.00  0.00    -0.352 OA
BRANCH  30  31
HETATM   31  C   UNL     1       7.941  21.908  53.384  1.00  0.00     0.171 C 
HETATM   32  C   UNL     1       8.300  20.517  52.891  1.00  0.00     0.034 C 
ENDBRANCH  30  31
ENDBRANCH  27  30
ENDBRANCH  22  24
ENDBRANCH   1  22
TORSDOF 6
ENDMDL
MODEL 2
REMARK VINA RESULT:      -9.8      2.981      5.812
REMARK  6 active torsions:
REMARK  status: ('A' for Active; 'I' for Inactive)
REMARK    1  A    between atoms: C_2  and  O_3 
REMARK    2  A    between atoms: O_3  and  C_4 
REMARK    3  A    between atoms: C_7  and  N_8 
REMARK    4  A    between atoms: N_8  and  C_9 
REMARK    5  A    between atoms: C_10  and  C_11 
REMARK    6  A    between atoms: C_14  and  C_15 
ROOT
HETATM    1  C   UNL     1       6.916  28.189  56.015  1.00  0.00     0.113 C 
HETATM    2  C   UNL     1       7.856  27.938  56.947  1.00  0.00     0.082 C 
HETATM    3  C   UNL     1       8.246  26.500  57.252  1.00  0.00     0.024 C 
HETATM    4  N   UNL     1       8.569  25.308  57.506  1.00  0.00    -0.096 N 
ENDROOT
BRANCH   2   5
HETATM    5  C   UNL     1       8.458  29.004  57.701  1.00  0.00     0.119 A 
HETATM    6  S   UNL     1       9.945  29.732  57.169  1.00  0.00    -0.078 SA
HETATM    7  C   UNL     1       9.935  30.780  58.518  1.00  0.00     0.084 A 
HETATM    8  C   UNL     1       8.819  30.550  59.290  1.00  0.00     0.081 A 
HETATM    9  N   UNL     1       7.982  29.545  58.815  1.00  0.00    -0.239 NA
BRANCH   8  10
HETATM   10  C   UNL     1       8.487  31.196  60.534  1.00  0.00     0.070 A 
HETATM   11  C   UNL     1       9.017  30.643  61.824  1.00  0.00     0.301 A 
HETATM   12  O   UNL     1       9.781  29.684  61.874  1.00  0.00    -0.259 OA
HETATM   13  O   UNL     1       8.607  31.264  63.003  1.00  0.00    -0.274 OA
HETATM   14  C   UNL     1       7.774  32.392  63.003  1.00  0.00     0.089 A 
HETATM   15  C   UNL     1       7.320  32.933  61.806  1.00  0.00     0.000 A 
HETATM   16  C   UNL     1       7.429  32.940  64.236  1.00  0.00     0.039 A 
HETATM   17  C   UNL     1       6.495  34.060  61.844  1.00  0.00     0.033 A 
HETATM   18  C   UNL     1       7.703  32.290  60.563  1.00  0.00     0.034 A 
HETATM   19  C   UNL     1       6.143  34.618  63.076  1.00  0.00     0.012 A 
HETATM   20  C   UNL     1       6.605  34.064  64.271  1.00  0.00     0.022 A 
HETATM   21 BR   UNL     1       5.024  36.142  63.125  1.00  0.00    -0.051 Br
ENDBRANCH   8  10
ENDBRANCH   2   5
BRANCH   1  22
HETATM   22  N   UNL     1       6.384  29.411  55.671  1.00  0.00    -0.364 N 
HETATM   23  H   UNL     1       6.605  29.717  54.718  1.00  0.00     0.165 HD
BRANCH  22  24
HETATM   24  C   UNL     1       5.467  30.222  56.355  1.00  0.00     0.032 A 
HETATM   25  C   UNL     1       5.892  31.481  56.798  1.00  0.00     0.032 A 
HETATM   26  C   UNL     1       5.033  32.331  57.499  1.00  0.00     0.039 A 
HETATM   27  C   UNL     1       3.722  31.941  57.770  1.00  0.00     0.068 A 
HETATM   28  C   UNL     1       3.294  30.678  57.369  1.00  0.00     0.039 A 
HETATM   29  C   UNL     1       4.164  29.824  56.675  1.00  0.00     0.032 A 
BRANCH  27  30
HETATM   30  O   UNL     1       2.974  32.867  58.440  1.00  0.00    -0.352 OA
BRANCH  30  31
HETATM   31  C   UNL     1       3.547  33.412  59.627  1.00  0.00     0.171 C 
HETATM   32  C   UNL     1       3.455  32.357  60.715  1.00  0.00     0.034 C 
ENDBRANCH  30  31
ENDBRANCH  27  30
ENDBRANCH  22  24
ENDBRANCH   1  22
TORSDOF 6
ENDMDL
MODEL 3
REMARK VINA RESULT:      -9.8      3.823     10.611
REMARK  6 active torsions:
REMARK  status: ('A' for Active; 'I' for Inactive)
REMARK    1  A    between atoms: C_2  and  O_3 
REMARK    2  A    between atoms: O_3  and  C_4 
REMARK    3  A    between atoms: C_7  and  N_8 
REMARK    4  A    between atoms: N_8  and  C_9 
REMARK    5  A    between atoms: C_10  and  C_11 
REMARK    6  A    between atoms: C_14  and  C_15 
ROOT
HETATM    1  C   UNL     1       5.896  32.141  59.708  1.00  0.00     0.113 C 
HETATM    2  C   UNL     1       6.064  31.759  58.427  1.00  0.00     0.082 C 
HETATM    3  C   UNL     1       5.222  32.400  57.336  1.00  0.00     0.024 C 
HETATM    4  N   UNL     1       4.523  32.931  56.429  1.00  0.00    -0.096 N 
ENDROOT
BRANCH   2   5
HETATM    5  C   UNL     1       6.986  30.713  58.079  1.00  0.00     0.119 A 
HETATM    6  S   UNL     1       8.663  30.827  58.528  1.00  0.00    -0.078 SA
HETATM    7  C   UNL     1       8.984  29.324  57.783  1.00  0.00     0.084 A 
HETATM    8  C   UNL     1       7.827  28.802  57.250  1.00  0.00     0.081 A 
HETATM    9  N   UNL     1       6.696  29.592  57.430  1.00  0.00    -0.239 NA
BRANCH   8  10
HETATM   10  C   UNL     1       7.704  27.579  56.498  1.00  0.00     0.070 A 
HETATM   11  C   UNL     1       7.191  27.620  55.090  1.00  0.00     0.301 A 
HETATM   12  O   UNL     1       6.920  28.667  54.509  1.00  0.00    -0.259 OA
HETATM   13  O   UNL     1       7.024  26.402  54.433  1.00  0.00    -0.274 OA
HETATM   14  C   UNL     1       7.364  25.178  55.029  1.00  0.00     0.089 A 
HETATM   15  C   UNL     1       7.882  25.143  56.318  1.00  0.00     0.000 A 
HETATM   16  C   UNL     1       7.164  24.019  54.284  1.00  0.00     0.039 A 
HETATM   17  C   UNL     1       8.213  23.907  56.879  1.00  0.00     0.033 A 
HETATM   18  C   UNL     1       8.038  26.392  57.040  1.00  0.00     0.034 A 
HETATM   19  C   UNL     1       8.017  22.737  56.140  1.00  0.00     0.012 A 
HETATM   20  C   UNL     1       7.494  22.787  54.846  1.00  0.00     0.022 A 
HETATM   21 BR   UNL     1       8.462  21.065  56.902  1.00  0.00    -0.051 Br
ENDBRANCH   8  10
ENDBRANCH   2   5
BRANCH   1  22
HETATM   22  N   UNL     1       6.506  31.616  60.825  1.00  0.00    -0.364 N 
HETATM   23  H   UNL     1       7.038  30.758  60.654  1.00  0.00     0.165 HD
BRANCH  22  24
HETATM   24  C   UNL     1       6.643  32.151  62.114  1.00  0.00     0.032 A 
HETATM   25  C   UNL     1       5.481  32.482  62.825  1.00  0.00     0.032 A 
HETATM   26  C   UNL     1       5.549  33.034  64.107  1.00  0.00     0.039 A 
HETATM   27  C   UNL     1       6.783  33.262  64.712  1.00  0.00     0.068 A 
HETATM   28  C   UNL     1       7.948  32.972  64.005  1.00  0.00     0.039 A 
HETATM   29  C   UNL     1       7.876  32.430  62.714  1.00  0.00     0.032 A 
BRANCH  27  30
HETATM   30  O   UNL     1       6.718  33.781  65.974  1.00  0.00    -0.352 OA
BRANCH  30  31
HETATM   31  C   UNL     1       5.417  34.099  66.466  1.00  0.00     0.171 C 
HETATM   32  C   UNL     1       5.582  34.781  67.813  1.00  0.00     0.034 C 
ENDBRANCH  30  31
ENDBRANCH  27  30
ENDBRANCH  22  24
ENDBRANCH   1  22
TORSDOF 6
ENDMDL
MODEL 4
REMARK VINA RESULT:      -9.6      5.995      9.132
REMARK  6 active torsions:
REMARK  status: ('A' for Active; 'I' for Inactive)
REMARK    1  A    between atoms: C_2  and  O_3 
REMARK    2  A    between atoms: O_3  and  C_4 
REMARK    3  A    between atoms: C_7  and  N_8 
REMARK    4  A    between atoms: N_8  and  C_9 
REMARK    5  A    between atoms: C_10  and  C_11 
REMARK    6  A    between atoms: C_14  and  C_15 
ROOT
HETATM    1  C   UNL     1       4.633  29.757  53.738  1.00  0.00     0.113 C 
HETATM    2  C   UNL     1       4.780  29.537  55.059  1.00  0.00     0.082 C 
HETATM    3  C   UNL     1       3.769  30.119  56.034  1.00  0.00     0.024 C 
HETATM    4  N   UNL     1       2.930  30.602  56.843  1.00  0.00    -0.096 N 
ENDROOT
BRANCH   2   5
HETATM    5  C   UNL     1       5.909  28.809  55.570  1.00  0.00     0.119 A 
HETATM    6  S   UNL     1       7.284  29.653  56.221  1.00  0.00    -0.078 SA
HETATM    7  C   UNL     1       8.064  28.169  56.546  1.00  0.00     0.084 A 
HETATM    8  C   UNL     1       7.260  27.117  56.170  1.00  0.00     0.081 A 
HETATM    9  N   UNL     1       6.035  27.489  55.625  1.00  0.00    -0.239 NA
BRANCH   8  10
HETATM   10  C   UNL     1       7.591  25.716  56.236  1.00  0.00     0.070 A 
HETATM   11  C   UNL     1       7.973  25.104  57.551  1.00  0.00     0.301 A 
HETATM   12  O   UNL     1       7.961  25.730  58.606  1.00  0.00    -0.259 OA
HETATM   13  O   UNL     1       8.353  23.763  57.546  1.00  0.00    -0.274 OA
HETATM   14  C   UNL     1       8.339  22.986  56.378  1.00  0.00     0.089 A 
HETATM   15  C   UNL     1       7.941  23.540  55.168  1.00  0.00     0.000 A 
HETATM   16  C   UNL     1       8.732  21.654  56.484  1.00  0.00     0.039 A 
HETATM   17  C   UNL     1       7.935  22.736  54.026  1.00  0.00     0.033 A 
HETATM   18  C   UNL     1       7.570  24.943  55.134  1.00  0.00     0.034 A 
HETATM   19  C   UNL     1       8.327  21.398  54.120  1.00  0.00     0.012 A 
HETATM   20  C   UNL     1       8.726  20.853  55.343  1.00  0.00     0.022 A 
HETATM   21 BR   UNL     1       8.321  20.311  52.572  1.00  0.00    -0.051 Br
ENDBRANCH   8  10
ENDBRANCH   2   5
BRANCH   1  22
HETATM   22  N   UNL     1       5.489  29.380  52.727  1.00  0.00    -0.364 N 
HETATM   23  H   UNL     1       6.458  29.685  52.857  1.00  0.00     0.165 HD
BRANCH  22  24
HETATM   24  C   UNL     1       5.279  28.520  51.640  1.00  0.00     0.032 A 
HETATM   25  C   UNL     1       4.954  29.083  50.398  1.00  0.00     0.032 A 
HETATM   26  C   UNL     1       4.716  28.282  49.279  1.00  0.00     0.039 A 
HETATM   27  C   UNL     1       4.804  26.894  49.374  1.00  0.00     0.068 A 
HETATM   28  C   UNL     1       5.090  26.316  50.609  1.00  0.00     0.039 A 
HETATM   29  C   UNL     1       5.317  27.125  51.733  1.00  0.00     0.032 A 
BRANCH  27  30
HETATM   30  O   UNL     1       4.575  26.222  48.207  1.00  0.00    -0.352 OA
BRANCH  30  31
HETATM   31  C   UNL     1       3.431  26.623  47.455  1.00  0.00     0.171 C 
HETATM   32  C   UNL     1       2.736  25.367  46.959  1.00  0.00     0.034 C 
ENDBRANCH  30  31
ENDBRANCH  27  30
ENDBRANCH  22  24
ENDBRANCH   1  22
TORSDOF 6
ENDMDL
MODEL 5
REMARK VINA RESULT:      -9.6      3.959     10.992
REMARK  6 active torsions:
REMARK  status: ('A' for Active; 'I' for Inactive)
REMARK    1  A    between atoms: C_2  and  O_3 
REMARK    2  A    between atoms: O_3  and  C_4 
REMARK    3  A    between atoms: C_7  and  N_8 
REMARK    4  A    between atoms: N_8  and  C_9 
REMARK    5  A    between atoms: C_10  and  C_11 
REMARK    6  A    between atoms: C_14  and  C_15 
ROOT
HETATM    1  C   UNL     1       8.857  30.804  59.443  1.00  0.00     0.113 C 
HETATM    2  C   UNL     1       9.207  30.117  58.337  1.00  0.00     0.082 C 
HETATM    3  C   UNL     1      10.636  30.197  57.824  1.00  0.00     0.024 C 
HETATM    4  N   UNL     1      11.821  30.264  57.397  1.00  0.00    -0.096 N 
ENDROOT
BRANCH   2   5
HETATM    5  C   UNL     1       8.238  29.353  57.600  1.00  0.00     0.119 A 
HETATM    6  S   UNL     1       6.551  29.774  57.657  1.00  0.00    -0.078 SA
HETATM    7  C   UNL     1       6.173  28.474  56.616  1.00  0.00     0.084 A 
HETATM    8  C   UNL     1       7.319  27.799  56.263  1.00  0.00     0.081 A 
HETATM    9  N   UNL     1       8.488  28.309  56.819  1.00  0.00    -0.239 NA
BRANCH   8  10
HETATM   10  C   UNL     1       7.401  26.617  55.443  1.00  0.00     0.070 A 
HETATM   11  C   UNL     1       7.198  26.723  53.961  1.00  0.00     0.301 A 
HETATM   12  O   UNL     1       7.020  27.794  53.388  1.00  0.00    -0.259 OA
HETATM   13  O   UNL     1       7.217  25.540  53.225  1.00  0.00    -0.274 OA
HETATM   14  C   UNL     1       7.464  24.293  53.820  1.00  0.00     0.089 A 
HETATM   15  C   UNL     1       7.699  24.199  55.187  1.00  0.00     0.000 A 
HETATM   16  C   UNL     1       7.468  23.173  52.994  1.00  0.00     0.039 A 
HETATM   17  C   UNL     1       7.946  22.943  55.745  1.00  0.00     0.033 A 
HETATM   18  C   UNL     1       7.654  25.411  55.986  1.00  0.00     0.034 A 
HETATM   19  C   UNL     1       7.952  21.811  54.925  1.00  0.00     0.012 A 
HETATM   20  C   UNL     1       7.714  21.920  53.553  1.00  0.00     0.022 A 
HETATM   21 BR   UNL     1       8.284  20.110  55.682  1.00  0.00    -0.051 Br
ENDBRANCH   8  10
ENDBRANCH   2   5
BRANCH   1  22
HETATM   22  N   UNL     1       7.602  30.912  59.998  1.00  0.00    -0.364 N 
HETATM   23  H   UNL     1       6.937  30.198  59.687  1.00  0.00     0.165 HD
BRANCH  22  24
HETATM   24  C   UNL     1       7.141  31.742  61.030  1.00  0.00     0.032 A 
HETATM   25  C   UNL     1       7.894  31.818  62.210  1.00  0.00     0.032 A 
HETATM   26  C   UNL     1       7.481  32.612  63.283  1.00  0.00     0.039 A 
HETATM   27  C   UNL     1       6.306  33.356  63.198  1.00  0.00     0.068 A 
HETATM   28  C   UNL     1       5.527  33.264  62.047  1.00  0.00     0.039 A 
HETATM   29  C   UNL     1       5.939  32.456  60.977  1.00  0.00     0.032 A 
BRANCH  27  30
HETATM   30  O   UNL     1       6.023  34.112  64.300  1.00  0.00    -0.352 OA
BRANCH  30  31
HETATM   31  C   UNL     1       5.061  33.578  65.209  1.00  0.00     0.171 C 
HETATM   32  C   UNL     1       3.805  34.426  65.110  1.00  0.00     0.034 C 
ENDBRANCH  30  31
ENDBRANCH  27  30
ENDBRANCH  22  24
ENDBRANCH   1  22
TORSDOF 6
ENDMDL
MODEL 6
REMARK VINA RESULT:      -9.6      2.316      3.416
REMARK  6 active torsions:
REMARK  status: ('A' for Active; 'I' for Inactive)
REMARK    1  A    between atoms: C_2  and  O_3 
REMARK    2  A    between atoms: O_3  and  C_4 
REMARK    3  A    between atoms: C_7  and  N_8 
REMARK    4  A    between atoms: N_8  and  C_9 
REMARK    5  A    between atoms: C_10  and  C_11 
REMARK    6  A    between atoms: C_14  and  C_15 
ROOT
HETATM    1  C   UNL     1       5.144  27.135  54.068  1.00  0.00     0.113 C 
HETATM    2  C   UNL     1       4.566  28.351  53.999  1.00  0.00     0.082 C 
HETATM    3  C   UNL     1       3.566  28.645  52.892  1.00  0.00     0.024 C 
HETATM    4  N   UNL     1       2.737  28.891  51.974  1.00  0.00    -0.096 N 
ENDROOT
BRANCH   2   5
HETATM    5  C   UNL     1       4.921  29.395  54.920  1.00  0.00     0.119 A 
HETATM    6  S   UNL     1       4.289  31.003  54.721  1.00  0.00    -0.078 SA
HETATM    7  C   UNL     1       5.148  31.532  56.099  1.00  0.00     0.084 A 
HETATM    8  C   UNL     1       5.850  30.485  56.651  1.00  0.00     0.081 A 
HETATM    9  N   UNL     1       5.710  29.274  55.981  1.00  0.00    -0.239 NA
BRANCH   8  10
HETATM   10  C   UNL     1       6.734  30.548  57.788  1.00  0.00     0.070 A 
HETATM   11  C   UNL     1       8.004  29.752  57.788  1.00  0.00     0.301 A 
HETATM   12  O   UNL     1       8.370  29.080  56.828  1.00  0.00    -0.259 OA
HETATM   13  O   UNL     1       8.786  29.793  58.941  1.00  0.00    -0.274 OA
HETATM   14  C   UNL     1       8.442  30.582  60.049  1.00  0.00     0.089 A 
HETATM   15  C   UNL     1       7.289  31.356  60.033  1.00  0.00     0.000 A 
HETATM   16  C   UNL     1       9.296  30.556  61.149  1.00  0.00     0.039 A 
HETATM   17  C   UNL     1       6.979  32.132  61.152  1.00  0.00     0.033 A 
HETATM   18  C   UNL     1       6.437  31.309  58.858  1.00  0.00     0.034 A 
HETATM   19  C   UNL     1       7.829  32.115  62.261  1.00  0.00     0.012 A 
HETATM   20  C   UNL     1       8.985  31.331  62.266  1.00  0.00     0.022 A 
HETATM   21 BR   UNL     1       7.407  33.164  63.777  1.00  0.00    -0.051 Br
ENDBRANCH   8  10
ENDBRANCH   2   5
BRANCH   1  22
HETATM   22  N   UNL     1       6.123  26.723  54.943  1.00  0.00    -0.364 N 
HETATM   23  H   UNL     1       6.213  27.303  55.782  1.00  0.00     0.165 HD
BRANCH  22  24
HETATM   24  C   UNL     1       6.899  25.555  54.944  1.00  0.00     0.032 A 
HETATM   25  C   UNL     1       7.675  25.272  56.076  1.00  0.00     0.032 A 
HETATM   26  C   UNL     1       8.483  24.134  56.135  1.00  0.00     0.039 A 
HETATM   27  C   UNL     1       8.529  23.246  55.062  1.00  0.00     0.068 A 
HETATM   28  C   UNL     1       7.793  23.531  53.914  1.00  0.00     0.039 A 
HETATM   29  C   UNL     1       6.992  24.681  53.855  1.00  0.00     0.032 A 
BRANCH  27  30
HETATM   30  O   UNL     1       9.336  22.159  55.249  1.00  0.00    -0.352 OA
BRANCH  30  31
HETATM   31  C   UNL     1       8.779  20.888  54.919  1.00  0.00     0.171 C 
HETATM   32  C   UNL     1       7.948  20.422  56.101  1.00  0.00     0.034 C 
ENDBRANCH  30  31
ENDBRANCH  27  30
ENDBRANCH  22  24
ENDBRANCH   1  22
TORSDOF 6
ENDMDL
MODEL 7
REMARK VINA RESULT:      -9.4      5.624      9.025
REMARK  6 active torsions:
REMARK  status: ('A' for Active; 'I' for Inactive)
REMARK    1  A    between atoms: C_2  and  O_3 
REMARK    2  A    between atoms: O_3  and  C_4 
REMARK    3  A    between atoms: C_7  and  N_8 
REMARK    4  A    between atoms: N_8  and  C_9 
REMARK    5  A    between atoms: C_10  and  C_11 
REMARK    6  A    between atoms: C_14  and  C_15 
ROOT
HETATM    1  C   UNL     1       7.660  27.142  57.768  1.00  0.00     0.113 C 
HETATM    2  C   UNL     1       7.315  28.338  57.252  1.00  0.00     0.082 C 
HETATM    3  C   UNL     1       8.020  29.596  57.734  1.00  0.00     0.024 C 
HETATM    4  N   UNL     1       8.604  30.640  58.134  1.00  0.00    -0.096 N 
ENDROOT
BRANCH   2   5
HETATM    5  C   UNL     1       6.250  28.454  56.293  1.00  0.00     0.119 A 
HETATM    6  S   UNL     1       4.707  29.105  56.761  1.00  0.00    -0.078 SA
HETATM    7  C   UNL     1       4.112  28.883  55.176  1.00  0.00     0.084 A 
HETATM    8  C   UNL     1       5.093  28.351  54.370  1.00  0.00     0.081 A 
HETATM    9  N   UNL     1       6.306  28.118  55.010  1.00  0.00    -0.239 NA
BRANCH   8  10
HETATM   10  C   UNL     1       4.957  27.974  52.986  1.00  0.00     0.070 A 
HETATM   11  C   UNL     1       4.901  26.523  52.613  1.00  0.00     0.301 A 
HETATM   12  O   UNL     1       4.907  25.620  53.444  1.00  0.00    -0.259 OA
HETATM   13  O   UNL     1       4.842  26.212  51.256  1.00  0.00    -0.274 OA
HETATM   14  C   UNL     1       4.785  27.203  50.264  1.00  0.00     0.089 A 
HETATM   15  C   UNL     1       4.790  28.548  50.611  1.00  0.00     0.000 A 
HETATM   16  C   UNL     1       4.721  26.786  48.937  1.00  0.00     0.039 A 
HETATM   17  C   UNL     1       4.728  29.508  49.598  1.00  0.00     0.033 A 
HETATM   18  C   UNL     1       4.884  28.904  52.016  1.00  0.00     0.034 A 
HETATM   19  C   UNL     1       4.663  29.101  48.263  1.00  0.00     0.012 A 
HETATM   20  C   UNL     1       4.660  27.745  47.928  1.00  0.00     0.022 A 
HETATM   21 BR   UNL     1       4.582  30.401  46.892  1.00  0.00    -0.051 Br
ENDBRANCH   8  10
ENDBRANCH   2   5
BRANCH   1  22
HETATM   22  N   UNL     1       7.078  25.921  57.512  1.00  0.00    -0.364 N 
HETATM   23  H   UNL     1       6.120  25.826  57.862  1.00  0.00     0.165 HD
BRANCH  22  24
HETATM   24  C   UNL     1       7.527  24.855  56.720  1.00  0.00     0.032 A 
HETATM   25  C   UNL     1       8.840  24.399  56.899  1.00  0.00     0.032 A 
HETATM   26  C   UNL     1       9.355  23.351  56.131  1.00  0.00     0.039 A 
HETATM   27  C   UNL     1       8.564  22.730  55.166  1.00  0.00     0.068 A 
HETATM   28  C   UNL     1       7.269  23.196  54.949  1.00  0.00     0.039 A 
HETATM   29  C   UNL     1       6.761  24.255  55.715  1.00  0.00     0.032 A 
BRANCH  27  30
HETATM   30  O   UNL     1       9.171  21.705  54.498  1.00  0.00    -0.352 OA
BRANCH  30  31
HETATM   31  C   UNL     1       8.370  20.553  54.235  1.00  0.00     0.171 C 
HETATM   32  C   UNL     1       8.263  20.395  52.729  1.00  0.00     0.034 C 
ENDBRANCH  30  31
ENDBRANCH  27  30
ENDBRANCH  22  24
ENDBRANCH   1  22
TORSDOF 6
ENDMDL
MODEL 8
REMARK VINA RESULT:      -9.3      6.242      9.136
REMARK  6 active torsions:
REMARK  status: ('A' for Active; 'I' for Inactive)
REMARK    1  A    between atoms: C_2  and  O_3 
REMARK    2  A    between atoms: O_3  and  C_4 
REMARK    3  A    between atoms: C_7  and  N_8 
REMARK    4  A    between atoms: N_8  and  C_9 
REMARK    5  A    between atoms: C_10  and  C_11 
REMARK    6  A    between atoms: C_14  and  C_15 
ROOT
HETATM    1  C   UNL     1       4.852  30.209  52.536  1.00  0.00     0.113 C 
HETATM    2  C   UNL     1       4.493  30.377  53.824  1.00  0.00     0.082 C 
HETATM    3  C   UNL     1       3.851  31.684  54.260  1.00  0.00     0.024 C 
HETATM    4  N   UNL     1       3.319  32.769  54.622  1.00  0.00    -0.096 N 
ENDROOT
BRANCH   2   5
HETATM    5  C   UNL     1       4.759  29.363  54.807  1.00  0.00     0.119 A 
HETATM    6  S   UNL     1       3.951  29.392  56.347  1.00  0.00    -0.078 SA
HETATM    7  C   UNL     1       4.786  27.983  56.832  1.00  0.00     0.084 A 
HETATM    8  C   UNL     1       5.612  27.549  55.821  1.00  0.00     0.081 A 
HETATM    9  N   UNL     1       5.585  28.333  54.672  1.00  0.00    -0.239 NA
BRANCH   8  10
HETATM   10  C   UNL     1       6.515  26.427  55.872  1.00  0.00     0.070 A 
HETATM   11  C   UNL     1       7.612  26.400  56.893  1.00  0.00     0.301 A 
HETATM   12  O   UNL     1       7.751  27.273  57.745  1.00  0.00    -0.259 OA
HETATM   13  O   UNL     1       8.500  25.327  56.852  1.00  0.00    -0.274 OA
HETATM   14  C   UNL     1       8.361  24.277  55.932  1.00  0.00     0.089 A 
HETATM   15  C   UNL     1       7.318  24.277  55.015  1.00  0.00     0.000 A 
HETATM   16  C   UNL     1       9.299  23.249  55.980  1.00  0.00     0.039 A 
HETATM   17  C   UNL     1       7.208  23.214  54.116  1.00  0.00     0.033 A 
HETATM   18  C   UNL     1       6.395  25.398  55.012  1.00  0.00     0.034 A 
HETATM   19  C   UNL     1       8.143  22.176  54.155  1.00  0.00     0.012 A 
HETATM   20  C   UNL     1       9.188  22.189  55.082  1.00  0.00     0.022 A 
HETATM   21 BR   UNL     1       7.994  20.738  52.936  1.00  0.00    -0.051 Br
ENDBRANCH   8  10
ENDBRANCH   2   5
BRANCH   1  22
HETATM   22  N   UNL     1       5.514  29.135  51.985  1.00  0.00    -0.364 N 
HETATM   23  H   UNL     1       6.211  28.705  52.601  1.00  0.00     0.165 HD
BRANCH  22  24
HETATM   24  C   UNL     1       5.276  28.445  50.788  1.00  0.00     0.032 A 
HETATM   25  C   UNL     1       4.842  27.115  50.860  1.00  0.00     0.032 A 
HETATM   26  C   UNL     1       4.603  26.367  49.705  1.00  0.00     0.039 A 
HETATM   27  C   UNL     1       4.786  26.935  48.446  1.00  0.00     0.068 A 
HETATM   28  C   UNL     1       5.251  28.245  48.356  1.00  0.00     0.039 A 
HETATM   29  C   UNL     1       5.502  28.989  49.519  1.00  0.00     0.032 A 
BRANCH  27  30
HETATM   30  O   UNL     1       4.496  26.112  47.395  1.00  0.00    -0.352 OA
BRANCH  30  31
HETATM   31  C   UNL     1       3.249  25.420  47.453  1.00  0.00     0.171 C 
HETATM   32  C   UNL     1       2.168  26.366  46.960  1.00  0.00     0.034 C 
ENDBRANCH  30  31
ENDBRANCH  27  30
ENDBRANCH  22  24
ENDBRANCH   1  22
TORSDOF 6
ENDMDL
MODEL 9
REMARK VINA RESULT:      -9.3      4.198     10.754
REMARK  6 active torsions:
REMARK  status: ('A' for Active; 'I' for Inactive)
REMARK    1  A    between atoms: C_2  and  O_3 
REMARK    2  A    between atoms: O_3  and  C_4 
REMARK    3  A    between atoms: C_7  and  N_8 
REMARK    4  A    between atoms: N_8  and  C_9 
REMARK    5  A    between atoms: C_10  and  C_11 
REMARK    6  A    between atoms: C_14  and  C_15 
ROOT
HETATM    1  C   UNL     1       8.761  30.682  59.995  1.00  0.00     0.113 C 
HETATM    2  C   UNL     1       8.852  30.374  58.686  1.00  0.00     0.082 C 
HETATM    3  C   UNL     1      10.211  30.384  58.005  1.00  0.00     0.024 C 
HETATM    4  N   UNL     1      11.338  30.393  57.439  1.00  0.00    -0.096 N 
ENDROOT
BRANCH   2   5
HETATM    5  C   UNL     1       7.678  30.091  57.907  1.00  0.00     0.119 A 
HETATM    6  S   UNL     1       6.268  31.102  58.033  1.00  0.00    -0.078 SA
HETATM    7  C   UNL     1       5.447  30.130  56.894  1.00  0.00     0.084 A 
HETATM    8  C   UNL     1       6.264  29.111  56.462  1.00  0.00     0.081 A 
HETATM    9  N   UNL     1       7.531  29.100  57.036  1.00  0.00    -0.239 NA
BRANCH   8  10
HETATM   10  C   UNL     1       5.911  28.057  55.545  1.00  0.00     0.070 A 
HETATM   11  C   UNL     1       5.740  26.656  56.051  1.00  0.00     0.301 A 
HETATM   12  O   UNL     1       5.829  26.361  57.239  1.00  0.00    -0.259 OA
HETATM   13  O   UNL     1       5.469  25.664  55.111  1.00  0.00    -0.274 OA
HETATM   14  C   UNL     1       5.309  25.950  53.746  1.00  0.00     0.089 A 
HETATM   15  C   UNL     1       5.422  27.255  53.283  1.00  0.00     0.000 A 
HETATM   16  C   UNL     1       5.034  24.886  52.891  1.00  0.00     0.039 A 
HETATM   17  C   UNL     1       5.252  27.505  51.919  1.00  0.00     0.033 A 
HETATM   18  C   UNL     1       5.735  28.307  54.233  1.00  0.00     0.034 A 
HETATM   19  C   UNL     1       4.976  26.445  51.052  1.00  0.00     0.012 A 
HETATM   20  C   UNL     1       4.866  25.137  51.531  1.00  0.00     0.022 A 
HETATM   21 BR   UNL     1       4.749  26.783  49.205  1.00  0.00    -0.051 Br
ENDBRANCH   8  10
ENDBRANCH   2   5
BRANCH   1  22
HETATM   22  N   UNL     1       7.616  30.802  60.749  1.00  0.00    -0.364 N 
HETATM   23  H   UNL     1       6.920  30.069  60.583  1.00  0.00     0.165 HD
BRANCH  22  24
HETATM   24  C   UNL     1       7.321  31.669  61.811  1.00  0.00     0.032 A 
HETATM   25  C   UNL     1       6.077  32.315  61.817  1.00  0.00     0.032 A 
HETATM   26  C   UNL     1       5.727  33.203  62.837  1.00  0.00     0.039 A 
HETATM   27  C   UNL     1       6.613  33.463  63.881  1.00  0.00     0.068 A 
HETATM   28  C   UNL     1       7.868  32.858  63.870  1.00  0.00     0.039 A 
HETATM   29  C   UNL     1       8.220  31.975  62.838  1.00  0.00     0.032 A 
BRANCH  27  30
HETATM   30  O   UNL     1       6.148  34.329  64.829  1.00  0.00    -0.352 OA
BRANCH  30  31
HETATM   31  C   UNL     1       5.051  33.877  65.621  1.00  0.00     0.171 C 
HETATM   32  C   UNL     1       5.359  34.201  67.072  1.00  0.00     0.034 C 
ENDBRANCH  30  31
ENDBRANCH  27  30
ENDBRANCH  22  24
ENDBRANCH   1  22
TORSDOF 6
ENDMDL
MODEL 10
REMARK VINA RESULT:      -9.2      3.757      5.726
REMARK  6 active torsions:
REMARK  status: ('A' for Active; 'I' for Inactive)
REMARK    1  A    between atoms: C_2  and  O_3 
REMARK    2  A    between atoms: O_3  and  C_4 
REMARK    3  A    between atoms: C_7  and  N_8 
REMARK    4  A    between atoms: N_8  and  C_9 
REMARK    5  A    between atoms: C_10  and  C_11 
REMARK    6  A    between atoms: C_14  and  C_15 
ROOT
HETATM    1  C   UNL     1       4.861  26.306  50.507  1.00  0.00     0.113 C 
HETATM    2  C   UNL     1       4.815  27.646  50.641  1.00  0.00     0.082 C 
HETATM    3  C   UNL     1       4.961  28.529  49.412  1.00  0.00     0.024 C 
HETATM    4  N   UNL     1       5.084  29.262  48.392  1.00  0.00    -0.096 N 
ENDROOT
BRANCH   2   5
HETATM    5  C   UNL     1       4.687  28.260  51.934  1.00  0.00     0.119 A 
HETATM    6  S   UNL     1       3.193  29.010  52.414  1.00  0.00    -0.078 SA
HETATM    7  C   UNL     1       3.871  29.439  53.921  1.00  0.00     0.084 A 
HETATM    8  C   UNL     1       5.169  28.991  54.003  1.00  0.00     0.081 A 
HETATM    9  N   UNL     1       5.623  28.316  52.875  1.00  0.00    -0.239 NA
BRANCH   8  10
HETATM   10  C   UNL     1       6.085  29.206  55.095  1.00  0.00     0.070 A 
HETATM   11  C   UNL     1       7.384  28.458  55.135  1.00  0.00     0.301 A 
HETATM   12  O   UNL     1       7.744  27.700  54.240  1.00  0.00    -0.259 OA
HETATM   13  O   UNL     1       8.199  28.650  56.249  1.00  0.00    -0.274 OA
HETATM   14  C   UNL     1       7.861  29.540  57.279  1.00  0.00     0.089 A 
HETATM   15  C   UNL     1       6.679  30.268  57.220  1.00  0.00     0.000 A 
HETATM   16  C   UNL     1       8.749  29.662  58.345  1.00  0.00     0.039 A 
HETATM   17  C   UNL     1       6.375  31.149  58.261  1.00  0.00     0.033 A 
HETATM   18  C   UNL     1       5.793  30.067  56.088  1.00  0.00     0.034 A 
HETATM   19  C   UNL     1       7.259  31.280  59.336  1.00  0.00     0.012 A 
HETATM   20  C   UNL     1       8.444  30.541  59.383  1.00  0.00     0.022 A 
HETATM   21 BR   UNL     1       6.846  32.471  60.746  1.00  0.00    -0.051 Br
ENDBRANCH   8  10
ENDBRANCH   2   5
BRANCH   1  22
HETATM   22  N   UNL     1       4.830  25.364  51.510  1.00  0.00    -0.364 N 
HETATM   23  H   UNL     1       3.982  24.789  51.525  1.00  0.00     0.165 HD
BRANCH  22  24
HETATM   24  C   UNL     1       5.832  24.965  52.406  1.00  0.00     0.032 A 
HETATM   25  C   UNL     1       5.509  24.866  53.766  1.00  0.00     0.032 A 
HETATM   26  C   UNL     1       6.465  24.490  54.713  1.00  0.00     0.039 A 
HETATM   27  C   UNL     1       7.769  24.196  54.319  1.00  0.00     0.068 A 
HETATM   28  C   UNL     1       8.117  24.324  52.976  1.00  0.00     0.039 A 
HETATM   29  C   UNL     1       7.156  24.714  52.031  1.00  0.00     0.032 A 
BRANCH  27  30
HETATM   30  O   UNL     1       8.604  23.817  55.332  1.00  0.00    -0.352 OA
BRANCH  30  31
HETATM   31  C   UNL     1       8.192  22.696  56.111  1.00  0.00     0.171 C 
HETATM   32  C   UNL     1       8.502  21.438  55.318  1.00  0.00     0.034 C 
ENDBRANCH  30  31
ENDBRANCH  27  30
ENDBRANCH  22  24
ENDBRANCH   1  22
TORSDOF 6
ENDMDL
