MODEL 1
REMARK VINA RESULT:      -8.9      0.000      0.000
REMARK  5 active torsions:
REMARK  status: ('A' for Active; 'I' for Inactive)
REMARK    1  A    between atoms: C_2  and  C_3 
REMARK    2  A    between atoms: C_7  and  N_8 
REMARK    3  A    between atoms: N_8  and  C_9 
REMARK    4  A    between atoms: C_11  and  N_12 
REMARK    5  A    between atoms: C_14  and  N_15 
ROOT
HETATM    1  C   UNL     1       6.977  27.080  56.872  1.00  0.00     0.111 A 
HETATM    2  N   UNL     1       5.738  27.550  57.084  1.00  0.00    -0.206 NA
HETATM    3  C   UNL     1       5.607  28.810  57.504  1.00  0.00     0.202 A 
HETATM    4  N   UNL     1       6.615  29.640  57.754  1.00  0.00    -0.199 NA
HETATM    5  C   UNL     1       7.856  29.144  57.555  1.00  0.00     0.156 A 
HETATM    6  C   UNL     1       8.088  27.852  57.129  1.00  0.00     0.096 A 
ENDROOT
BRANCH   1   7
HETATM    7  N   UNL     1       7.167  25.762  56.449  1.00  0.00    -0.265 NA
HETATM    8  H   UNL     1       8.144  25.500  56.417  1.00  0.00     0.130 HD
BRANCH   7   9
HETATM    9  C   UNL     1       6.393  25.290  55.291  1.00  0.00     0.133 C 
HETATM   10  C   UNL     1       7.015  24.072  54.659  1.00  0.00     0.142 A 
HETATM   11  N   UNL     1       7.758  24.152  53.516  1.00  0.00    -0.253 N 
HETATM   12  N   UNL     1       6.979  22.813  55.049  1.00  0.00    -0.215 NA
HETATM   13  N   UNL     1       8.213  22.952  53.130  1.00  0.00    -0.155 NA
HETATM   14  C   UNL     1       7.967  25.330  52.707  1.00  0.00     0.153 C 
HETATM   15  C   UNL     1       7.723  22.161  54.095  1.00  0.00     0.151 A 
HETATM   16  C   UNL     1       7.565  26.608  53.439  1.00  0.00     0.024 C 
HETATM   17  C   UNL     1       6.262  26.406  54.220  1.00  0.00     0.029 C 
BRANCH  15  18
HETATM   18  C   UNL     1       7.950  20.685  54.116  1.00  0.00     0.051 C 
HETATM   19  C   UNL     1       8.715  20.262  55.371  1.00  0.00     0.018 C 
HETATM   20  C   UNL     1       8.680  20.214  52.858  1.00  0.00     0.018 C 
ENDBRANCH  15  18
ENDBRANCH   7   9
ENDBRANCH   1   7
BRANCH   3  21
HETATM   21  N   UNL     1       4.328  29.275  57.729  1.00  0.00    -0.271 NA
HETATM   22  H   UNL     1       3.755  29.084  56.918  1.00  0.00     0.127 HD
HETATM   23  H   UNL     1       3.992  28.927  58.617  1.00  0.00     0.127 HD
ENDBRANCH   3  21
BRANCH   5  24
HETATM   24  N   UNL     1       8.968  30.006  57.780  1.00  0.00    -0.227 N 
HETATM   25  N   UNL     1       8.897  31.090  58.604  1.00  0.00    -0.179 NA
HETATM   26  C   UNL     1      10.122  31.617  58.565  1.00  0.00     0.141 A 
HETATM   27  C   UNL     1      10.996  30.897  57.736  1.00  0.00     0.040 A 
HETATM   28  C   UNL     1      10.232  29.867  57.244  1.00  0.00     0.122 A 
ENDBRANCH   5  24
TORSDOF 5
ENDMDL
MODEL 2
REMARK VINA RESULT:      -8.9      2.164      3.793
REMARK  5 active torsions:
REMARK  status: ('A' for Active; 'I' for Inactive)
REMARK    1  A    between atoms: C_2  and  C_3 
REMARK    2  A    between atoms: C_7  and  N_8 
REMARK    3  A    between atoms: N_8  and  C_9 
REMARK    4  A    between atoms: C_11  and  N_12 
REMARK    5  A    between atoms: C_14  and  N_15 
ROOT
HETATM    1  C   UNL     1       8.219  29.618  56.647  1.00  0.00     0.111 A 
HETATM    2  N   UNL     1       9.524  29.531  56.348  1.00  0.00    -0.206 NA
HETATM    3  C   UNL     1      10.409  29.860  57.292  1.00  0.00     0.202 A 
HETATM    4  N   UNL     1      10.100  30.294  58.510  1.00  0.00    -0.199 NA
HETATM    5  C   UNL     1       8.781  30.397  58.788  1.00  0.00     0.156 A 
HETATM    6  C   UNL     1       7.796  30.085  57.873  1.00  0.00     0.096 A 
ENDROOT
BRANCH   1   7
HETATM    7  N   UNL     1       7.254  29.301  55.688  1.00  0.00    -0.265 NA
HETATM    8  H   UNL     1       6.844  30.122  55.261  1.00  0.00     0.130 HD
BRANCH   7   9
HETATM    9  C   UNL     1       6.274  28.255  56.015  1.00  0.00     0.133 C 
HETATM   10  C   UNL     1       6.524  26.988  55.238  1.00  0.00     0.142 A 
HETATM   11  N   UNL     1       5.785  26.658  54.138  1.00  0.00    -0.253 N 
HETATM   12  N   UNL     1       7.423  26.044  55.438  1.00  0.00    -0.215 NA
HETATM   13  N   UNL     1       6.176  25.493  53.604  1.00  0.00    -0.155 NA
HETATM   14  C   UNL     1       4.635  27.369  53.630  1.00  0.00     0.153 C 
HETATM   15  C   UNL     1       7.182  25.152  54.421  1.00  0.00     0.151 A 
HETATM   16  C   UNL     1       4.510  28.765  54.234  1.00  0.00     0.024 C 
HETATM   17  C   UNL     1       4.827  28.745  55.734  1.00  0.00     0.029 C 
BRANCH  15  18
HETATM   18  C   UNL     1       7.964  23.891  54.251  1.00  0.00     0.051 C 
HETATM   19  C   UNL     1       7.899  23.392  52.807  1.00  0.00     0.018 C 
HETATM   20  C   UNL     1       7.488  22.804  55.215  1.00  0.00     0.018 C 
ENDBRANCH  15  18
ENDBRANCH   7   9
ENDBRANCH   1   7
BRANCH   3  21
HETATM   21  N   UNL     1      11.746  29.777  56.965  1.00  0.00    -0.271 NA
HETATM   22  H   UNL     1      12.179  30.680  57.096  1.00  0.00     0.127 HD
HETATM   23  H   UNL     1      12.166  28.995  57.450  1.00  0.00     0.127 HD
ENDBRANCH   3  21
BRANCH   5  24
HETATM   24  N   UNL     1       8.401  30.828  60.091  1.00  0.00    -0.227 N 
HETATM   25  N   UNL     1       7.266  31.548  60.319  1.00  0.00    -0.179 NA
HETATM   26  C   UNL     1       7.255  31.738  61.640  1.00  0.00     0.141 A 
HETATM   27  C   UNL     1       8.357  31.153  62.281  1.00  0.00     0.040 A 
HETATM   28  C   UNL     1       9.078  30.575  61.266  1.00  0.00     0.122 A 
ENDBRANCH   5  24
TORSDOF 5
ENDMDL
MODEL 3
REMARK VINA RESULT:      -8.8      3.542      6.075
REMARK  5 active torsions:
REMARK  status: ('A' for Active; 'I' for Inactive)
REMARK    1  A    between atoms: C_2  and  C_3 
REMARK    2  A    between atoms: C_7  and  N_8 
REMARK    3  A    between atoms: N_8  and  C_9 
REMARK    4  A    between atoms: C_11  and  N_12 
REMARK    5  A    between atoms: C_14  and  N_15 
ROOT
HETATM    1  C   UNL     1       4.811  26.787  53.226  1.00  0.00     0.111 A 
HETATM    2  N   UNL     1       4.169  27.871  53.687  1.00  0.00    -0.206 NA
HETATM    3  C   UNL     1       3.740  28.772  52.801  1.00  0.00     0.202 A 
HETATM    4  N   UNL     1       3.918  28.695  51.486  1.00  0.00    -0.199 NA
HETATM    5  C   UNL     1       4.585  27.607  51.039  1.00  0.00     0.156 A 
HETATM    6  C   UNL     1       5.071  26.627  51.882  1.00  0.00     0.096 A 
ENDROOT
BRANCH   1   7
HETATM    7  N   UNL     1       5.294  25.823  54.114  1.00  0.00    -0.265 NA
HETATM    8  H   UNL     1       4.815  25.840  55.006  1.00  0.00     0.130 HD
BRANCH   7   9
HETATM    9  C   UNL     1       6.750  25.660  54.232  1.00  0.00     0.133 C 
HETATM   10  C   UNL     1       7.128  24.253  54.615  1.00  0.00     0.142 A 
HETATM   11  N   UNL     1       7.475  23.921  55.894  1.00  0.00    -0.253 N 
HETATM   12  N   UNL     1       7.184  23.166  53.870  1.00  0.00    -0.215 NA
HETATM   13  N   UNL     1       7.774  22.620  56.010  1.00  0.00    -0.155 NA
HETATM   14  C   UNL     1       7.638  24.831  57.004  1.00  0.00     0.153 C 
HETATM   15  C   UNL     1       7.577  22.191  54.755  1.00  0.00     0.151 A 
HETATM   16  C   UNL     1       7.032  26.202  56.716  1.00  0.00     0.024 C 
HETATM   17  C   UNL     1       7.335  26.645  55.280  1.00  0.00     0.029 C 
BRANCH  15  18
HETATM   18  C   UNL     1       7.792  20.770  54.349  1.00  0.00     0.051 C 
HETATM   19  C   UNL     1       8.733  20.054  55.320  1.00  0.00     0.018 C 
HETATM   20  C   UNL     1       8.321  20.671  52.918  1.00  0.00     0.018 C 
ENDBRANCH  15  18
ENDBRANCH   7   9
ENDBRANCH   1   7
BRANCH   3  21
HETATM   21  N   UNL     1       3.093  29.887  53.291  1.00  0.00    -0.271 NA
HETATM   22  H   UNL     1       2.258  29.600  53.783  1.00  0.00     0.127 HD
HETATM   23  H   UNL     1       3.748  30.462  53.804  1.00  0.00     0.127 HD
ENDBRANCH   3  21
BRANCH   5  24
HETATM   24  N   UNL     1       4.774  27.464  49.635  1.00  0.00    -0.227 N 
HETATM   25  N   UNL     1       4.371  26.355  48.953  1.00  0.00    -0.179 NA
HETATM   26  C   UNL     1       4.702  26.608  47.685  1.00  0.00     0.141 A 
HETATM   27  C   UNL     1       5.309  27.862  47.523  1.00  0.00     0.040 A 
HETATM   28  C   UNL     1       5.344  28.393  48.788  1.00  0.00     0.122 A 
ENDBRANCH   5  24
TORSDOF 5
ENDMDL
MODEL 4
REMARK VINA RESULT:      -8.7      3.425      7.064
REMARK  5 active torsions:
REMARK  status: ('A' for Active; 'I' for Inactive)
REMARK    1  A    between atoms: C_2  and  C_3 
REMARK    2  A    between atoms: C_7  and  N_8 
REMARK    3  A    between atoms: N_8  and  C_9 
REMARK    4  A    between atoms: C_11  and  N_12 
REMARK    5  A    between atoms: C_14  and  N_15 
ROOT
HETATM    1  C   UNL     1       7.227  25.780  54.625  1.00  0.00     0.111 A 
HETATM    2  N   UNL     1       7.480  26.029  55.919  1.00  0.00    -0.206 NA
HETATM    3  C   UNL     1       7.951  25.032  56.671  1.00  0.00     0.202 A 
HETATM    4  N   UNL     1       8.170  23.792  56.244  1.00  0.00    -0.199 NA
HETATM    5  C   UNL     1       7.890  23.552  54.944  1.00  0.00     0.156 A 
HETATM    6  C   UNL     1       7.394  24.520  54.093  1.00  0.00     0.096 A 
ENDROOT
BRANCH   1   7
HETATM    7  N   UNL     1       6.718  26.786  53.801  1.00  0.00    -0.265 NA
HETATM    8  H   UNL     1       7.075  27.703  54.039  1.00  0.00     0.130 HD
BRANCH   7   9
HETATM    9  C   UNL     1       5.278  26.774  53.503  1.00  0.00     0.133 C 
HETATM   10  C   UNL     1       5.005  27.016  52.042  1.00  0.00     0.142 A 
HETATM   11  N   UNL     1       4.598  28.233  51.575  1.00  0.00    -0.253 N 
HETATM   12  N   UNL     1       5.104  26.187  51.020  1.00  0.00    -0.215 NA
HETATM   13  N   UNL     1       4.413  28.224  50.248  1.00  0.00    -0.155 NA
HETATM   14  C   UNL     1       4.272  29.393  52.371  1.00  0.00     0.153 C 
HETATM   15  C   UNL     1       4.739  26.959  49.944  1.00  0.00     0.151 A 
HETATM   16  C   UNL     1       4.767  29.262  53.808  1.00  0.00     0.024 C 
HETATM   17  C   UNL     1       4.530  27.845  54.343  1.00  0.00     0.029 C 
BRANCH  15  18
HETATM   18  C   UNL     1       4.686  26.429  48.549  1.00  0.00     0.051 C 
HETATM   19  C   UNL     1       5.003  27.524  47.530  1.00  0.00     0.018 C 
HETATM   20  C   UNL     1       3.331  25.789  48.246  1.00  0.00     0.018 C 
ENDBRANCH  15  18
ENDBRANCH   7   9
ENDBRANCH   1   7
BRANCH   3  21
HETATM   21  N   UNL     1       8.194  25.300  58.001  1.00  0.00    -0.271 NA
HETATM   22  H   UNL     1       7.788  24.569  58.570  1.00  0.00     0.127 HD
HETATM   23  H   UNL     1       9.179  25.488  58.135  1.00  0.00     0.127 HD
ENDBRANCH   3  21
BRANCH   5  24
HETATM   24  N   UNL     1       8.137  22.246  54.433  1.00  0.00    -0.227 N 
HETATM   25  N   UNL     1       8.621  21.237  55.211  1.00  0.00    -0.179 NA
HETATM   26  C   UNL     1       8.696  20.190  54.387  1.00  0.00     0.141 A 
HETATM   27  C   UNL     1       8.266  20.492  53.086  1.00  0.00     0.040 A 
HETATM   28  C   UNL     1       7.912  21.818  53.140  1.00  0.00     0.122 A 
ENDBRANCH   5  24
TORSDOF 5
ENDMDL
MODEL 5
REMARK VINA RESULT:      -8.5      6.395      9.515
REMARK  5 active torsions:
REMARK  status: ('A' for Active; 'I' for Inactive)
REMARK    1  A    between atoms: C_2  and  C_3 
REMARK    2  A    between atoms: C_7  and  N_8 
REMARK    3  A    between atoms: N_8  and  C_9 
REMARK    4  A    between atoms: C_11  and  N_12 
REMARK    5  A    between atoms: C_14  and  N_15 
ROOT
HETATM    1  C   UNL     1       4.782  32.569  62.796  1.00  0.00     0.111 A 
HETATM    2  N   UNL     1       3.560  33.021  62.476  1.00  0.00    -0.206 NA
HETATM    3  C   UNL     1       2.906  33.757  63.377  1.00  0.00     0.202 A 
HETATM    4  N   UNL     1       3.362  34.063  64.588  1.00  0.00    -0.199 NA
HETATM    5  C   UNL     1       4.585  33.582  64.902  1.00  0.00     0.156 A 
HETATM    6  C   UNL     1       5.331  32.808  64.037  1.00  0.00     0.096 A 
ENDROOT
BRANCH   1   7
HETATM    7  N   UNL     1       5.500  31.781  61.893  1.00  0.00    -0.265 NA
HETATM    8  H   UNL     1       5.787  30.895  62.291  1.00  0.00     0.130 HD
BRANCH   7   9
HETATM    9  C   UNL     1       6.545  32.430  61.087  1.00  0.00     0.133 C 
HETATM   10  C   UNL     1       7.202  31.463  60.137  1.00  0.00     0.142 A 
HETATM   11  N   UNL     1       8.425  30.914  60.398  1.00  0.00    -0.253 N 
HETATM   12  N   UNL     1       6.768  30.993  58.984  1.00  0.00    -0.215 NA
HETATM   13  N   UNL     1       8.820  30.085  59.421  1.00  0.00    -0.155 NA
HETATM   14  C   UNL     1       9.292  31.233  61.508  1.00  0.00     0.153 C 
HETATM   15  C   UNL     1       7.779  30.154  58.579  1.00  0.00     0.151 A 
HETATM   16  C   UNL     1       8.562  32.009  62.602  1.00  0.00     0.024 C 
HETATM   17  C   UNL     1       7.630  33.065  61.997  1.00  0.00     0.029 C 
BRANCH  15  18
HETATM   18  C   UNL     1       7.735  29.396  57.293  1.00  0.00     0.051 C 
HETATM   19  C   UNL     1       6.703  28.269  57.352  1.00  0.00     0.018 C 
HETATM   20  C   UNL     1       9.111  28.844  56.922  1.00  0.00     0.018 C 
ENDBRANCH  15  18
ENDBRANCH   7   9
ENDBRANCH   1   7
BRANCH   3  21
HETATM   21  N   UNL     1       1.647  34.204  63.038  1.00  0.00    -0.271 NA
HETATM   22  H   UNL     1       1.724  35.085  62.548  1.00  0.00     0.127 HD
HETATM   23  H   UNL     1       1.139  33.465  62.570  1.00  0.00     0.127 HD
ENDBRANCH   3  21
BRANCH   5  24
HETATM   24  N   UNL     1       5.129  33.910  66.178  1.00  0.00    -0.227 N 
HETATM   25  N   UNL     1       6.469  34.037  66.389  1.00  0.00    -0.179 NA
HETATM   26  C   UNL     1       6.571  34.362  67.680  1.00  0.00     0.141 A 
HETATM   27  C   UNL     1       5.324  34.454  68.316  1.00  0.00     0.040 A 
HETATM   28  C   UNL     1       4.413  34.160  67.331  1.00  0.00     0.122 A 
ENDBRANCH   5  24
TORSDOF 5
ENDMDL
MODEL 6
REMARK VINA RESULT:      -8.5      1.852      7.427
REMARK  5 active torsions:
REMARK  status: ('A' for Active; 'I' for Inactive)
REMARK    1  A    between atoms: C_2  and  C_3 
REMARK    2  A    between atoms: C_7  and  N_8 
REMARK    3  A    between atoms: N_8  and  C_9 
REMARK    4  A    between atoms: C_11  and  N_12 
REMARK    5  A    between atoms: C_14  and  N_15 
ROOT
HETATM    1  C   UNL     1       5.489  26.235  54.469  1.00  0.00     0.111 A 
HETATM    2  N   UNL     1       4.889  26.291  53.270  1.00  0.00    -0.206 NA
HETATM    3  C   UNL     1       5.213  25.369  52.361  1.00  0.00     0.202 A 
HETATM    4  N   UNL     1       6.108  24.402  52.539  1.00  0.00    -0.199 NA
HETATM    5  C   UNL     1       6.718  24.373  53.745  1.00  0.00     0.156 A 
HETATM    6  C   UNL     1       6.452  25.289  54.743  1.00  0.00     0.096 A 
ENDROOT
BRANCH   1   7
HETATM    7  N   UNL     1       5.196  27.187  55.448  1.00  0.00    -0.265 NA
HETATM    8  H   UNL     1       4.280  27.055  55.859  1.00  0.00     0.130 HD
BRANCH   7   9
HETATM    9  C   UNL     1       5.514  28.594  55.161  1.00  0.00     0.133 C 
HETATM   10  C   UNL     1       6.527  29.148  56.129  1.00  0.00     0.142 A 
HETATM   11  N   UNL     1       6.164  29.948  57.174  1.00  0.00    -0.253 N 
HETATM   12  N   UNL     1       7.835  28.980  56.163  1.00  0.00    -0.215 NA
HETATM   13  N   UNL     1       7.221  30.328  57.905  1.00  0.00    -0.155 NA
HETATM   14  C   UNL     1       4.841  30.459  57.447  1.00  0.00     0.153 C 
HETATM   15  C   UNL     1       8.222  29.711  57.261  1.00  0.00     0.151 A 
HETATM   16  C   UNL     1       3.767  29.728  56.645  1.00  0.00     0.024 C 
HETATM   17  C   UNL     1       4.235  29.472  55.208  1.00  0.00     0.029 C 
BRANCH  15  18
HETATM   18  C   UNL     1       9.648  29.830  57.691  1.00  0.00     0.051 C 
HETATM   19  C   UNL     1       9.906  31.168  58.384  1.00  0.00     0.018 C 
HETATM   20  C   UNL     1      10.604  29.641  56.513  1.00  0.00     0.018 C 
ENDBRANCH  15  18
ENDBRANCH   7   9
ENDBRANCH   1   7
BRANCH   3  21
HETATM   21  N   UNL     1       4.597  25.448  51.129  1.00  0.00    -0.271 NA
HETATM   22  H   UNL     1       5.050  26.161  50.573  1.00  0.00     0.127 HD
HETATM   23  H   UNL     1       4.533  24.525  50.722  1.00  0.00     0.127 HD
ENDBRANCH   3  21
BRANCH   5  24
HETATM   24  N   UNL     1       7.663  23.336  53.994  1.00  0.00    -0.227 N 
HETATM   25  N   UNL     1       8.549  23.389  55.028  1.00  0.00    -0.179 NA
HETATM   26  C   UNL     1       9.234  22.247  54.936  1.00  0.00     0.141 A 
HETATM   27  C   UNL     1       8.810  21.446  53.866  1.00  0.00     0.040 A 
HETATM   28  C   UNL     1       7.800  22.166  53.276  1.00  0.00     0.122 A 
ENDBRANCH   5  24
TORSDOF 5
ENDMDL
MODEL 7
REMARK VINA RESULT:      -8.2      3.433      4.940
REMARK  5 active torsions:
REMARK  status: ('A' for Active; 'I' for Inactive)
REMARK    1  A    between atoms: C_2  and  C_3 
REMARK    2  A    between atoms: C_7  and  N_8 
REMARK    3  A    between atoms: N_8  and  C_9 
REMARK    4  A    between atoms: C_11  and  N_12 
REMARK    5  A    between atoms: C_14  and  N_15 
ROOT
HETATM    1  C   UNL     1       7.289  27.283  55.005  1.00  0.00     0.111 A 
HETATM    2  N   UNL     1       7.137  26.168  55.736  1.00  0.00    -0.206 NA
HETATM    3  C   UNL     1       7.636  26.155  56.973  1.00  0.00     0.202 A 
HETATM    4  N   UNL     1       8.300  27.158  57.540  1.00  0.00    -0.199 NA
HETATM    5  C   UNL     1       8.463  28.265  56.783  1.00  0.00     0.156 A 
HETATM    6  C   UNL     1       7.987  28.367  55.491  1.00  0.00     0.096 A 
ENDROOT
BRANCH   1   7
HETATM    7  N   UNL     1       6.799  27.341  53.698  1.00  0.00    -0.265 NA
HETATM    8  H   UNL     1       7.117  28.161  53.198  1.00  0.00     0.130 HD
BRANCH   7   9
HETATM    9  C   UNL     1       5.378  27.033  53.479  1.00  0.00     0.133 C 
HETATM   10  C   UNL     1       4.992  27.163  52.029  1.00  0.00     0.142 A 
HETATM   11  N   UNL     1       4.328  28.258  51.554  1.00  0.00    -0.253 N 
HETATM   12  N   UNL     1       5.206  26.334  51.025  1.00  0.00    -0.215 NA
HETATM   13  N   UNL     1       4.085  28.165  50.239  1.00  0.00    -0.155 NA
HETATM   14  C   UNL     1       3.815  29.358  52.336  1.00  0.00     0.153 C 
HETATM   15  C   UNL     1       4.643  26.980  49.951  1.00  0.00     0.151 A 
HETATM   16  C   UNL     1       4.396  29.379  53.748  1.00  0.00     0.024 C 
HETATM   17  C   UNL     1       4.472  27.963  54.330  1.00  0.00     0.029 C 
BRANCH  15  18
HETATM   18  C   UNL     1       4.630  26.400  48.575  1.00  0.00     0.051 C 
HETATM   19  C   UNL     1       5.016  27.448  47.530  1.00  0.00     0.018 C 
HETATM   20  C   UNL     1       3.272  25.784  48.240  1.00  0.00     0.018 C 
ENDBRANCH  15  18
ENDBRANCH   7   9
ENDBRANCH   1   7
BRANCH   3  21
HETATM   21  N   UNL     1       7.483  24.997  57.707  1.00  0.00    -0.271 NA
HETATM   22  H   UNL     1       7.717  25.180  58.674  1.00  0.00     0.127 HD
HETATM   23  H   UNL     1       6.571  24.599  57.527  1.00  0.00     0.127 HD
ENDBRANCH   3  21
BRANCH   5  24
HETATM   24  N   UNL     1       9.141  29.378  57.358  1.00  0.00    -0.227 N 
HETATM   25  N   UNL     1       8.685  30.014  58.474  1.00  0.00    -0.179 NA
HETATM   26  C   UNL     1       9.588  30.971  58.702  1.00  0.00     0.141 A 
HETATM   27  C   UNL     1      10.627  30.971  57.760  1.00  0.00     0.040 A 
HETATM   28  C   UNL     1      10.319  29.939  56.907  1.00  0.00     0.122 A 
ENDBRANCH   5  24
TORSDOF 5
ENDMDL
MODEL 8
REMARK VINA RESULT:      -8.1      1.839      2.268
REMARK  5 active torsions:
REMARK  status: ('A' for Active; 'I' for Inactive)
REMARK    1  A    between atoms: C_2  and  C_3 
REMARK    2  A    between atoms: C_7  and  N_8 
REMARK    3  A    between atoms: N_8  and  C_9 
REMARK    4  A    between atoms: C_11  and  N_12 
REMARK    5  A    between atoms: C_14  and  N_15 
ROOT
HETATM    1  C   UNL     1       7.386  28.251  56.601  1.00  0.00     0.111 A 
HETATM    2  N   UNL     1       6.576  28.996  55.834  1.00  0.00    -0.206 NA
HETATM    3  C   UNL     1       6.240  30.212  56.270  1.00  0.00     0.202 A 
HETATM    4  N   UNL     1       6.628  30.742  57.426  1.00  0.00    -0.199 NA
HETATM    5  C   UNL     1       7.427  29.971  58.196  1.00  0.00     0.156 A 
HETATM    6  C   UNL     1       7.821  28.699  57.829  1.00  0.00     0.096 A 
ENDROOT
BRANCH   1   7
HETATM    7  N   UNL     1       7.753  26.965  56.196  1.00  0.00    -0.265 NA
HETATM    8  H   UNL     1       8.185  26.953  55.280  1.00  0.00     0.130 HD
BRANCH   7   9
HETATM    9  C   UNL     1       6.792  25.873  56.407  1.00  0.00     0.133 C 
HETATM   10  C   UNL     1       7.241  24.595  55.748  1.00  0.00     0.142 A 
HETATM   11  N   UNL     1       6.719  24.174  54.558  1.00  0.00    -0.253 N 
HETATM   12  N   UNL     1       8.145  23.719  56.142  1.00  0.00    -0.215 NA
HETATM   13  N   UNL     1       7.258  23.015  54.156  1.00  0.00    -0.155 NA
HETATM   14  C   UNL     1       5.633  24.789  53.830  1.00  0.00     0.153 C 
HETATM   15  C   UNL     1       8.130  22.773  55.146  1.00  0.00     0.151 A 
HETATM   16  C   UNL     1       5.329  26.197  54.334  1.00  0.00     0.024 C 
HETATM   17  C   UNL     1       5.389  26.258  55.865  1.00  0.00     0.029 C 
BRANCH  15  18
HETATM   18  C   UNL     1       8.998  21.558  55.172  1.00  0.00     0.051 C 
HETATM   19  C   UNL     1       8.757  20.681  53.943  1.00  0.00     0.018 C 
HETATM   20  C   UNL     1       8.794  20.753  56.455  1.00  0.00     0.018 C 
ENDBRANCH  15  18
ENDBRANCH   7   9
ENDBRANCH   1   7
BRANCH   3  21
HETATM   21  N   UNL     1       5.396  30.960  55.477  1.00  0.00    -0.271 NA
HETATM   22  H   UNL     1       5.542  31.942  55.666  1.00  0.00     0.127 HD
HETATM   23  H   UNL     1       5.483  30.664  54.514  1.00  0.00     0.127 HD
ENDBRANCH   3  21
BRANCH   5  24
HETATM   24  N   UNL     1       7.894  30.508  59.429  1.00  0.00    -0.227 N 
HETATM   25  N   UNL     1       8.979  30.003  60.082  1.00  0.00    -0.179 NA
HETATM   26  C   UNL     1       9.102  30.774  61.164  1.00  0.00     0.141 A 
HETATM   27  C   UNL     1       8.124  31.777  61.230  1.00  0.00     0.040 A 
HETATM   28  C   UNL     1       7.360  31.586  60.105  1.00  0.00     0.122 A 
ENDBRANCH   5  24
TORSDOF 5
ENDMDL
MODEL 9
REMARK VINA RESULT:      -8.0      4.751      7.374
REMARK  5 active torsions:
REMARK  status: ('A' for Active; 'I' for Inactive)
REMARK    1  A    between atoms: C_2  and  C_3 
REMARK    2  A    between atoms: C_7  and  N_8 
REMARK    3  A    between atoms: N_8  and  C_9 
REMARK    4  A    between atoms: C_11  and  N_12 
REMARK    5  A    between atoms: C_14  and  N_15 
ROOT
HETATM    1  C   UNL     1       5.410  26.734  50.988  1.00  0.00     0.111 A 
HETATM    2  N   UNL     1       5.939  27.940  51.246  1.00  0.00    -0.206 NA
HETATM    3  C   UNL     1       5.449  28.994  50.590  1.00  0.00     0.202 A 
HETATM    4  N   UNL     1       4.485  28.945  49.676  1.00  0.00    -0.199 NA
HETATM    5  C   UNL     1       3.978  27.720  49.413  1.00  0.00     0.156 A 
HETATM    6  C   UNL     1       4.427  26.573  50.036  1.00  0.00     0.096 A 
ENDROOT
BRANCH   1   7
HETATM    7  N   UNL     1       5.899  25.597  51.636  1.00  0.00    -0.265 NA
HETATM    8  H   UNL     1       5.162  24.969  51.932  1.00  0.00     0.130 HD
BRANCH   7   9
HETATM    9  C   UNL     1       6.958  25.776  52.640  1.00  0.00     0.133 C 
HETATM   10  C   UNL     1       7.277  24.489  53.355  1.00  0.00     0.142 A 
HETATM   11  N   UNL     1       6.804  24.223  54.608  1.00  0.00    -0.253 N 
HETATM   12  N   UNL     1       7.996  23.460  52.951  1.00  0.00    -0.215 NA
HETATM   13  N   UNL     1       7.209  23.026  55.053  1.00  0.00    -0.155 NA
HETATM   14  C   UNL     1       6.056  25.124  55.454  1.00  0.00     0.153 C 
HETATM   15  C   UNL     1       7.929  22.587  54.011  1.00  0.00     0.151 A 
HETATM   16  C   UNL     1       5.512  26.321  54.679  1.00  0.00     0.024 C 
HETATM   17  C   UNL     1       6.553  26.851  53.686  1.00  0.00     0.029 C 
BRANCH  15  18
HETATM   18  C   UNL     1       8.621  21.264  54.012  1.00  0.00     0.051 C 
HETATM   19  C   UNL     1       8.311  20.477  52.739  1.00  0.00     0.018 C 
HETATM   20  C   UNL     1       8.258  20.445  55.251  1.00  0.00     0.018 C 
ENDBRANCH  15  18
ENDBRANCH   7   9
ENDBRANCH   1   7
BRANCH   3  21
HETATM   21  N   UNL     1       6.011  30.225  50.857  1.00  0.00    -0.271 NA
HETATM   22  H   UNL     1       5.277  30.904  51.002  1.00  0.00     0.127 HD
HETATM   23  H   UNL     1       6.698  30.132  51.594  1.00  0.00     0.127 HD
ENDBRANCH   3  21
BRANCH   5  24
HETATM   24  N   UNL     1       2.922  27.620  48.462  1.00  0.00    -0.227 N 
HETATM   25  N   UNL     1       2.059  28.647  48.219  1.00  0.00    -0.179 NA
HETATM   26  C   UNL     1       1.245  28.178  47.271  1.00  0.00     0.141 A 
HETATM   27  C   UNL     1       1.561  26.866  46.886  1.00  0.00     0.040 A 
HETATM   28  C   UNL     1       2.641  26.530  47.664  1.00  0.00     0.122 A 
ENDBRANCH   5  24
TORSDOF 5
ENDMDL
MODEL 10
REMARK VINA RESULT:      -8.0      2.297      8.097
REMARK  5 active torsions:
REMARK  status: ('A' for Active; 'I' for Inactive)
REMARK    1  A    between atoms: C_2  and  C_3 
REMARK    2  A    between atoms: C_7  and  N_8 
REMARK    3  A    between atoms: N_8  and  C_9 
REMARK    4  A    between atoms: C_11  and  N_12 
REMARK    5  A    between atoms: C_14  and  N_15 
ROOT
HETATM    1  C   UNL     1       6.711  27.816  54.832  1.00  0.00     0.111 A 
HETATM    2  N   UNL     1       5.492  28.003  54.304  1.00  0.00    -0.206 NA
HETATM    3  C   UNL     1       4.922  26.981  53.662  1.00  0.00     0.202 A 
HETATM    4  N   UNL     1       5.479  25.788  53.479  1.00  0.00    -0.199 NA
HETATM    5  C   UNL     1       6.716  25.624  53.998  1.00  0.00     0.156 A 
HETATM    6  C   UNL     1       7.385  26.625  54.673  1.00  0.00     0.096 A 
ENDROOT
BRANCH   1   7
HETATM    7  N   UNL     1       7.356  28.860  55.500  1.00  0.00    -0.265 NA
HETATM    8  H   UNL     1       8.192  29.172  55.021  1.00  0.00     0.130 HD
BRANCH   7   9
HETATM    9  C   UNL     1       7.518  28.752  56.957  1.00  0.00     0.133 C 
HETATM   10  C   UNL     1       7.092  30.012  57.664  1.00  0.00     0.142 A 
HETATM   11  N   UNL     1       7.998  30.926  58.119  1.00  0.00    -0.253 N 
HETATM   12  N   UNL     1       5.879  30.445  57.949  1.00  0.00    -0.215 NA
HETATM   13  N   UNL     1       7.402  31.967  58.716  1.00  0.00    -0.155 NA
HETATM   14  C   UNL     1       9.436  30.794  58.100  1.00  0.00     0.153 C 
HETATM   15  C   UNL     1       6.108  31.641  58.586  1.00  0.00     0.151 A 
HETATM   16  C   UNL     1       9.897  29.665  57.182  1.00  0.00     0.024 C 
HETATM   17  C   UNL     1       8.992  28.436  57.329  1.00  0.00     0.029 C 
BRANCH  15  18
HETATM   18  C   UNL     1       5.006  32.500  59.114  1.00  0.00     0.051 C 
HETATM   19  C   UNL     1       3.700  31.714  59.229  1.00  0.00     0.018 C 
HETATM   20  C   UNL     1       4.808  33.747  58.251  1.00  0.00     0.018 C 
ENDBRANCH  15  18
ENDBRANCH   7   9
ENDBRANCH   1   7
BRANCH   3  21
HETATM   21  N   UNL     1       3.674  27.192  53.114  1.00  0.00    -0.271 NA
HETATM   22  H   UNL     1       3.776  27.582  52.187  1.00  0.00     0.127 HD
HETATM   23  H   UNL     1       3.120  26.350  53.196  1.00  0.00     0.127 HD
ENDBRANCH   3  21
BRANCH   5  24
HETATM   24  N   UNL     1       7.342  24.352  53.854  1.00  0.00    -0.227 N 
HETATM   25  N   UNL     1       7.078  23.523  52.805  1.00  0.00    -0.179 NA
HETATM   26  C   UNL     1       7.859  22.462  53.017  1.00  0.00     0.141 A 
HETATM   27  C   UNL     1       8.632  22.581  54.182  1.00  0.00     0.040 A 
HETATM   28  C   UNL     1       8.283  23.803  54.702  1.00  0.00     0.122 A 
ENDBRANCH   5  24
TORSDOF 5
ENDMDL
