MODEL 1
REMARK VINA RESULT:      -8.1      0.000      0.000
REMARK  9 active torsions:
REMARK  status: ('A' for Active; 'I' for Inactive)
REMARK    1  A    between atoms: C_2  and  C_3 
REMARK    2  A    between atoms: C_7  and  C_8 
REMARK    3  A    between atoms: C_8  and  C_9 
REMARK       I    between atoms: C_9  and  N_10 
REMARK    4  A    between atoms: N_10  and  C_11 
REMARK    5  A    between atoms: C_11  and  C_12 
REMARK    6  A    between atoms: C_12  and  N_13 
REMARK    7  A    between atoms: C_21  and  C_22 
REMARK    8  A    between atoms: C_32  and  C_33 
REMARK    9  A    between atoms: C_33  and  O_34 
ROOT
HETATM    1  C   UNL     1       6.838  29.762  57.821  1.00  0.00     0.037 C 
HETATM    2  N   UNL     1       6.113  30.813  57.299  1.00  0.00    -0.232 NA
HETATM    3  C   UNL     1       5.634  30.683  56.111  1.00  0.00     0.169 C 
HETATM    4  N   UNL     1       5.491  29.321  55.341  1.00  0.00    -0.321 N 
HETATM    5  C   UNL     1       4.641  29.491  54.379  1.00  0.00     0.011 C 
HETATM    6  C   UNL     1       5.999  28.169  56.111  1.00  0.00     0.151 C 
HETATM    7  S   UNL     1       4.881  32.001  55.261  1.00  0.00    -0.086 SA
HETATM    8  C   UNL     1       4.564  30.908  53.848  1.00  0.00     0.135 C 
HETATM    9  C   UNL     1       7.017  28.612  57.133  1.00  0.00     0.138 C 
ENDROOT
BRANCH   5  10
HETATM   10  C   UNL     1       3.601  28.460  54.030  1.00  0.00     0.156 C 
BRANCH  10  11
HETATM   11  C   UNL     1       3.596  28.278  52.513  1.00  0.00     0.223 C 
HETATM   12  N   UNL     1       4.583  27.507  51.976  1.00  0.00    -0.359 N 
HETATM   13  H   UNL     1       5.276  27.111  52.611  1.00  0.00     0.162 HD
HETATM   14  O   UNL     1       2.745  28.837  51.820  1.00  0.00    -0.273 OA
BRANCH  12  15
HETATM   15  C   UNL     1       4.969  27.482  50.555  1.00  0.00     0.150 C 
BRANCH  15  16
HETATM   16  C   UNL     1       4.148  26.613  49.564  1.00  0.00     0.254 C 
BRANCH  16  17
HETATM   17  N   UNL     1       2.947  27.328  48.966  1.00  0.00    -0.070 N 
HETATM   18  H   UNL     1       2.285  27.450  49.757  1.00  0.00     0.279 HD
HETATM   19  C   UNL     1       3.245  28.697  48.398  1.00  0.00     0.235 C 
HETATM   20  C   UNL     1       1.940  29.379  48.005  1.00  0.00     0.028 C 
HETATM   21  C   UNL     1       1.137  28.540  47.020  1.00  0.00     0.003 C 
HETATM   22  C   UNL     1       0.918  27.128  47.551  1.00  0.00     0.028 C 
HETATM   23  C   UNL     1       2.228  26.462  47.950  1.00  0.00     0.235 C 
ENDBRANCH  16  17
ENDBRANCH  15  16
ENDBRANCH  12  15
ENDBRANCH  10  11
ENDBRANCH   5  10
BRANCH   6  24
HETATM   24  C   UNL     1       6.426  26.961  55.271  1.00  0.00    -0.027 A 
HETATM   25  C   UNL     1       6.119  25.641  55.688  1.00  0.00    -0.053 A 
HETATM   26  C   UNL     1       5.313  25.329  56.925  1.00  0.00     0.049 C 
HETATM   27  C   UNL     1       6.568  24.546  54.924  1.00  0.00     0.014 A 
HETATM   28  C   UNL     1       7.336  24.725  53.772  1.00  0.00    -0.061 A 
HETATM   29  C   UNL     1       7.885  23.541  53.028  1.00  0.00     0.048 C 
HETATM   30  C   UNL     1       7.666  26.019  53.379  1.00  0.00     0.007 A 
HETATM   31  C   UNL     1       7.220  27.120  54.114  1.00  0.00     0.010 A 
ENDBRANCH   6  24
BRANCH   9  32
HETATM   32  C   UNL     1       8.430  28.545  56.694  1.00  0.00     0.277 C 
HETATM   33  O   UNL     1       9.122  27.586  57.021  1.00  0.00    -0.264 OA
BRANCH  32  34
HETATM   34  O   UNL     1       8.762  29.558  55.878  1.00  0.00    -0.325 OA
HETATM   35  C   UNL     1      10.174  29.806  55.821  1.00  0.00     0.213 C 
ENDBRANCH  32  34
ENDBRANCH   9  32
BRANCH   1  36
HETATM   36  C   UNL     1       7.560  30.081  59.122  1.00  0.00     0.052 C 
HETATM   37  C   UNL     1       8.290  31.423  59.078  1.00  0.00     0.011 C 
ENDBRANCH   1  36
TORSDOF 9
ENDMDL
MODEL 2
REMARK VINA RESULT:      -7.5      2.385      8.450
REMARK  9 active torsions:
REMARK  status: ('A' for Active; 'I' for Inactive)
REMARK    1  A    between atoms: C_2  and  C_3 
REMARK    2  A    between atoms: C_7  and  C_8 
REMARK    3  A    between atoms: C_8  and  C_9 
REMARK       I    between atoms: C_9  and  N_10 
REMARK    4  A    between atoms: N_10  and  C_11 
REMARK    5  A    between atoms: C_11  and  C_12 
REMARK    6  A    between atoms: C_12  and  N_13 
REMARK    7  A    between atoms: C_21  and  C_22 
REMARK    8  A    between atoms: C_32  and  C_33 
REMARK    9  A    between atoms: C_33  and  O_34 
ROOT
HETATM    1  C   UNL     1       5.583  28.420  52.676  1.00  0.00     0.037 C 
HETATM    2  N   UNL     1       5.266  29.305  53.686  1.00  0.00    -0.232 NA
HETATM    3  C   UNL     1       5.413  28.909  54.902  1.00  0.00     0.169 C 
HETATM    4  N   UNL     1       6.248  27.655  55.347  1.00  0.00    -0.321 N 
HETATM    5  C   UNL     1       6.508  27.772  56.609  1.00  0.00     0.011 C 
HETATM    6  C   UNL     1       6.844  26.926  54.209  1.00  0.00     0.151 C 
HETATM    7  S   UNL     1       4.861  29.846  56.261  1.00  0.00    -0.086 SA
HETATM    8  C   UNL     1       5.488  28.574  57.392  1.00  0.00     0.135 C 
HETATM    9  C   UNL     1       6.069  27.186  52.940  1.00  0.00     0.138 C 
ENDROOT
BRANCH   5  10
HETATM   10  C   UNL     1       7.851  27.420  57.193  1.00  0.00     0.156 C 
BRANCH  10  11
HETATM   11  C   UNL     1       8.641  28.713  57.391  1.00  0.00     0.223 C 
HETATM   12  N   UNL     1       8.282  29.506  58.441  1.00  0.00    -0.359 N 
HETATM   13  H   UNL     1       7.500  29.203  59.020  1.00  0.00     0.162 HD
HETATM   14  O   UNL     1       9.541  29.022  56.609  1.00  0.00    -0.273 OA
BRANCH  12  15
HETATM   15  C   UNL     1       8.659  30.920  58.610  1.00  0.00     0.150 C 
BRANCH  15  16
HETATM   16  C   UNL     1       9.433  31.349  59.885  1.00  0.00     0.254 C 
BRANCH  16  17
HETATM   17  N   UNL     1       8.586  32.105  60.896  1.00  0.00    -0.070 N 
HETATM   18  H   UNL     1       9.014  33.050  60.953  1.00  0.00     0.279 HD
HETATM   19  C   UNL     1       7.137  32.276  60.503  1.00  0.00     0.235 C 
HETATM   20  C   UNL     1       6.447  33.201  61.498  1.00  0.00     0.028 C 
HETATM   21  C   UNL     1       6.570  32.689  62.927  1.00  0.00     0.003 C 
HETATM   22  C   UNL     1       8.026  32.426  63.293  1.00  0.00     0.028 C 
HETATM   23  C   UNL     1       8.707  31.508  62.284  1.00  0.00     0.235 C 
ENDBRANCH  16  17
ENDBRANCH  15  16
ENDBRANCH  12  15
ENDBRANCH  10  11
ENDBRANCH   5  10
BRANCH   6  24
HETATM   24  C   UNL     1       7.158  25.451  54.472  1.00  0.00    -0.027 A 
HETATM   25  C   UNL     1       7.893  24.685  53.531  1.00  0.00    -0.053 A 
HETATM   26  C   UNL     1       8.465  25.263  52.259  1.00  0.00     0.049 C 
HETATM   27  C   UNL     1       8.123  23.317  53.773  1.00  0.00     0.014 A 
HETATM   28  C   UNL     1       7.621  22.682  54.910  1.00  0.00    -0.061 A 
HETATM   29  C   UNL     1       7.796  21.201  55.099  1.00  0.00     0.048 C 
HETATM   30  C   UNL     1       6.872  23.424  55.819  1.00  0.00     0.007 A 
HETATM   31  C   UNL     1       6.643  24.786  55.606  1.00  0.00     0.010 A 
ENDBRANCH   6  24
BRANCH   9  32
HETATM   32  C   UNL     1       5.016  26.193  52.624  1.00  0.00     0.277 C 
HETATM   33  O   UNL     1       3.968  26.198  53.260  1.00  0.00    -0.264 OA
BRANCH  32  34
HETATM   34  O   UNL     1       5.332  25.429  51.566  1.00  0.00    -0.325 OA
HETATM   35  C   UNL     1       4.650  25.810  50.363  1.00  0.00     0.213 C 
ENDBRANCH  32  34
ENDBRANCH   9  32
BRANCH   1  36
HETATM   36  C   UNL     1       5.164  28.876  51.286  1.00  0.00     0.052 C 
HETATM   37  C   UNL     1       3.720  29.375  51.239  1.00  0.00     0.011 C 
ENDBRANCH   1  36
TORSDOF 9
ENDMDL
MODEL 3
REMARK VINA RESULT:      -7.5      2.549      5.090
REMARK  9 active torsions:
REMARK  status: ('A' for Active; 'I' for Inactive)
REMARK    1  A    between atoms: C_2  and  C_3 
REMARK    2  A    between atoms: C_7  and  C_8 
REMARK    3  A    between atoms: C_8  and  C_9 
REMARK       I    between atoms: C_9  and  N_10 
REMARK    4  A    between atoms: N_10  and  C_11 
REMARK    5  A    between atoms: C_11  and  C_12 
REMARK    6  A    between atoms: C_12  and  N_13 
REMARK    7  A    between atoms: C_21  and  C_22 
REMARK    8  A    between atoms: C_32  and  C_33 
REMARK    9  A    between atoms: C_33  and  O_34 
ROOT
HETATM    1  C   UNL     1       7.399  25.358  53.017  1.00  0.00     0.037 C 
HETATM    2  N   UNL     1       6.839  25.389  51.756  1.00  0.00    -0.232 NA
HETATM    3  C   UNL     1       5.933  26.272  51.521  1.00  0.00     0.169 C 
HETATM    4  N   UNL     1       5.657  27.539  52.409  1.00  0.00    -0.321 N 
HETATM    5  C   UNL     1       4.982  28.386  51.701  1.00  0.00     0.011 C 
HETATM    6  C   UNL     1       6.536  27.615  53.593  1.00  0.00     0.151 C 
HETATM    7  S   UNL     1       5.006  26.288  50.049  1.00  0.00    -0.086 SA
HETATM    8  C   UNL     1       4.120  27.763  50.623  1.00  0.00     0.135 C 
HETATM    9  C   UNL     1       7.044  26.246  53.973  1.00  0.00     0.138 C 
ENDROOT
BRANCH   5  10
HETATM   10  C   UNL     1       5.263  29.866  51.729  1.00  0.00     0.156 C 
BRANCH  10  11
HETATM   11  C   UNL     1       5.393  30.357  50.289  1.00  0.00     0.223 C 
HETATM   12  N   UNL     1       4.277  30.884  49.707  1.00  0.00    -0.359 N 
HETATM   13  H   UNL     1       3.419  30.903  50.257  1.00  0.00     0.162 HD
HETATM   14  O   UNL     1       6.461  30.247  49.685  1.00  0.00    -0.273 OA
BRANCH  12  15
HETATM   15  C   UNL     1       4.084  31.089  48.261  1.00  0.00     0.150 C 
BRANCH  15  16
HETATM   16  C   UNL     1       3.975  29.851  47.331  1.00  0.00     0.254 C 
BRANCH  16  17
HETATM   17  N   UNL     1       2.628  29.149  47.394  1.00  0.00    -0.070 N 
HETATM   18  H   UNL     1       2.297  29.286  48.369  1.00  0.00     0.279 HD
HETATM   19  C   UNL     1       1.577  29.715  46.466  1.00  0.00     0.235 C 
HETATM   20  C   UNL     1       0.234  29.055  46.756  1.00  0.00     0.028 C 
HETATM   21  C   UNL     1       0.311  27.539  46.637  1.00  0.00     0.003 C 
HETATM   22  C   UNL     1       1.434  26.976  47.500  1.00  0.00     0.028 C 
HETATM   23  C   UNL     1       2.768  27.651  47.208  1.00  0.00     0.235 C 
ENDBRANCH  16  17
ENDBRANCH  15  16
ENDBRANCH  12  15
ENDBRANCH  10  11
ENDBRANCH   5  10
BRANCH   6  24
HETATM   24  C   UNL     1       5.986  28.436  54.762  1.00  0.00    -0.027 A 
HETATM   25  C   UNL     1       6.861  29.057  55.690  1.00  0.00    -0.053 A 
HETATM   26  C   UNL     1       8.364  29.013  55.567  1.00  0.00     0.049 C 
HETATM   27  C   UNL     1       6.328  29.763  56.786  1.00  0.00     0.014 A 
HETATM   28  C   UNL     1       4.951  29.848  57.001  1.00  0.00    -0.061 A 
HETATM   29  C   UNL     1       4.409  30.523  58.229  1.00  0.00     0.048 C 
HETATM   30  C   UNL     1       4.091  29.212  56.109  1.00  0.00     0.007 A 
HETATM   31  C   UNL     1       4.598  28.517  55.007  1.00  0.00     0.010 A 
ENDBRANCH   6  24
BRANCH   9  32
HETATM   32  C   UNL     1       6.245  25.533  54.997  1.00  0.00     0.277 C 
HETATM   33  O   UNL     1       5.141  25.088  54.702  1.00  0.00    -0.264 OA
BRANCH  32  34
HETATM   34  O   UNL     1       6.909  25.386  56.155  1.00  0.00    -0.325 OA
HETATM   35  C   UNL     1       6.130  25.735  57.308  1.00  0.00     0.213 C 
ENDBRANCH  32  34
ENDBRANCH   9  32
BRANCH   1  36
HETATM   36  C   UNL     1       8.283  24.148  53.282  1.00  0.00     0.052 C 
HETATM   37  C   UNL     1       7.607  22.829  52.909  1.00  0.00     0.011 C 
ENDBRANCH   1  36
TORSDOF 9
ENDMDL
MODEL 4
REMARK VINA RESULT:      -7.3      5.072      8.952
REMARK  9 active torsions:
REMARK  status: ('A' for Active; 'I' for Inactive)
REMARK    1  A    between atoms: C_2  and  C_3 
REMARK    2  A    between atoms: C_7  and  C_8 
REMARK    3  A    between atoms: C_8  and  C_9 
REMARK       I    between atoms: C_9  and  N_10 
REMARK    4  A    between atoms: N_10  and  C_11 
REMARK    5  A    between atoms: C_11  and  C_12 
REMARK    6  A    between atoms: C_12  and  N_13 
REMARK    7  A    between atoms: C_21  and  C_22 
REMARK    8  A    between atoms: C_32  and  C_33 
REMARK    9  A    between atoms: C_33  and  O_34 
ROOT
HETATM    1  C   UNL     1       4.620  35.130  62.691  1.00  0.00     0.037 C 
HETATM    2  N   UNL     1       5.701  34.695  63.430  1.00  0.00    -0.232 NA
HETATM    3  C   UNL     1       6.362  33.681  62.992  1.00  0.00     0.169 C 
HETATM    4  N   UNL     1       6.278  33.115  61.529  1.00  0.00    -0.321 N 
HETATM    5  C   UNL     1       7.322  32.379  61.323  1.00  0.00     0.011 C 
HETATM    6  C   UNL     1       5.320  33.852  60.681  1.00  0.00     0.151 C 
HETATM    7  S   UNL     1       7.612  32.910  63.924  1.00  0.00    -0.086 SA
HETATM    8  C   UNL     1       7.900  31.739  62.568  1.00  0.00     0.135 C 
HETATM    9  C   UNL     1       4.276  34.542  61.523  1.00  0.00     0.138 C 
ENDROOT
BRANCH   5  10
HETATM   10  C   UNL     1       8.084  32.404  60.023  1.00  0.00     0.156 C 
BRANCH  10  11
HETATM   11  C   UNL     1       8.248  30.966  59.536  1.00  0.00     0.223 C 
HETATM   12  N   UNL     1       7.631  30.631  58.367  1.00  0.00    -0.359 N 
HETATM   13  H   UNL     1       7.083  31.350  57.895  1.00  0.00     0.162 HD
HETATM   14  O   UNL     1       8.890  30.150  60.199  1.00  0.00    -0.273 OA
BRANCH  12  15
HETATM   15  C   UNL     1       7.369  29.258  57.903  1.00  0.00     0.150 C 
BRANCH  15  16
HETATM   16  C   UNL     1       8.503  28.472  57.188  1.00  0.00     0.254 C 
BRANCH  16  17
HETATM   17  N   UNL     1       8.067  27.124  56.639  1.00  0.00    -0.070 N 
HETATM   18  H   UNL     1       8.942  26.669  56.315  1.00  0.00     0.279 HD
HETATM   19  C   UNL     1       7.418  26.209  57.652  1.00  0.00     0.235 C 
HETATM   20  C   UNL     1       7.201  24.835  57.030  1.00  0.00     0.028 C 
HETATM   21  C   UNL     1       6.371  24.916  55.756  1.00  0.00     0.003 C 
HETATM   22  C   UNL     1       6.973  25.911  54.770  1.00  0.00     0.028 C 
HETATM   23  C   UNL     1       7.195  27.276  55.408  1.00  0.00     0.235 C 
ENDBRANCH  16  17
ENDBRANCH  15  16
ENDBRANCH  12  15
ENDBRANCH  10  11
ENDBRANCH   5  10
BRANCH   6  24
HETATM   24  C   UNL     1       4.759  33.062  59.494  1.00  0.00    -0.027 A 
HETATM   25  C   UNL     1       4.388  33.721  58.293  1.00  0.00    -0.053 A 
HETATM   26  C   UNL     1       4.572  35.202  58.070  1.00  0.00     0.049 C 
HETATM   27  C   UNL     1       3.827  32.979  57.236  1.00  0.00     0.014 A 
HETATM   28  C   UNL     1       3.599  31.606  57.347  1.00  0.00    -0.061 A 
HETATM   29  C   UNL     1       2.910  30.853  56.244  1.00  0.00     0.048 C 
HETATM   30  C   UNL     1       3.932  30.963  58.537  1.00  0.00     0.007 A 
HETATM   31  C   UNL     1       4.503  31.677  59.594  1.00  0.00     0.010 A 
ENDBRANCH   6  24
BRANCH   9  32
HETATM   32  C   UNL     1       3.024  33.779  61.736  1.00  0.00     0.277 C 
HETATM   33  O   UNL     1       2.973  32.934  62.624  1.00  0.00    -0.264 OA
BRANCH  32  34
HETATM   34  O   UNL     1       2.027  34.195  60.939  1.00  0.00    -0.325 OA
HETATM   35  C   UNL     1       0.896  34.704  61.658  1.00  0.00     0.213 C 
ENDBRANCH  32  34
ENDBRANCH   9  32
BRANCH   1  36
HETATM   36  C   UNL     1       3.760  36.174  63.390  1.00  0.00     0.052 C 
HETATM   37  C   UNL     1       3.478  37.391  62.510  1.00  0.00     0.011 C 
ENDBRANCH   1  36
TORSDOF 9
ENDMDL
MODEL 5
REMARK VINA RESULT:      -7.3      2.358      4.902
REMARK  9 active torsions:
REMARK  status: ('A' for Active; 'I' for Inactive)
REMARK    1  A    between atoms: C_2  and  C_3 
REMARK    2  A    between atoms: C_7  and  C_8 
REMARK    3  A    between atoms: C_8  and  C_9 
REMARK       I    between atoms: C_9  and  N_10 
REMARK    4  A    between atoms: N_10  and  C_11 
REMARK    5  A    between atoms: C_11  and  C_12 
REMARK    6  A    between atoms: C_12  and  N_13 
REMARK    7  A    between atoms: C_21  and  C_22 
REMARK    8  A    between atoms: C_32  and  C_33 
REMARK    9  A    between atoms: C_33  and  O_34 
ROOT
HETATM    1  C   UNL     1       7.935  24.811  55.157  1.00  0.00     0.037 C 
HETATM    2  N   UNL     1       7.189  24.526  54.032  1.00  0.00    -0.232 NA
HETATM    3  C   UNL     1       6.305  25.385  53.660  1.00  0.00     0.169 C 
HETATM    4  N   UNL     1       6.237  26.876  54.150  1.00  0.00    -0.321 N 
HETATM    5  C   UNL     1       5.506  27.540  53.313  1.00  0.00     0.011 C 
HETATM    6  C   UNL     1       7.291  27.209  55.129  1.00  0.00     0.151 C 
HETATM    7  S   UNL     1       5.164  25.058  52.388  1.00  0.00    -0.086 SA
HETATM    8  C   UNL     1       4.456  26.715  52.599  1.00  0.00     0.135 C 
HETATM    9  C   UNL     1       7.779  25.969  55.836  1.00  0.00     0.138 C 
ENDROOT
BRANCH   5  10
HETATM   10  C   UNL     1       5.865  28.929  52.855  1.00  0.00     0.156 C 
BRANCH  10  11
HETATM   11  C   UNL     1       5.277  29.141  51.460  1.00  0.00     0.223 C 
HETATM   12  N   UNL     1       4.077  29.784  51.382  1.00  0.00    -0.359 N 
HETATM   13  H   UNL     1       3.634  30.070  52.255  1.00  0.00     0.162 HD
HETATM   14  O   UNL     1       5.862  28.714  50.464  1.00  0.00    -0.273 OA
BRANCH  12  15
HETATM   15  C   UNL     1       3.184  29.785  50.211  1.00  0.00     0.150 C 
BRANCH  15  16
HETATM   16  C   UNL     1       1.884  28.936  50.251  1.00  0.00     0.254 C 
BRANCH  16  17
HETATM   17  N   UNL     1       1.845  27.821  49.219  1.00  0.00    -0.070 N 
HETATM   18  H   UNL     1       1.249  27.083  49.642  1.00  0.00     0.279 HD
HETATM   19  C   UNL     1       1.230  28.208  47.893  1.00  0.00     0.235 C 
HETATM   20  C   UNL     1       1.080  26.967  47.022  1.00  0.00     0.028 C 
HETATM   21  C   UNL     1       2.409  26.252  46.821  1.00  0.00     0.003 C 
HETATM   22  C   UNL     1       3.076  25.946  48.156  1.00  0.00     0.028 C 
HETATM   23  C   UNL     1       3.210  27.192  49.022  1.00  0.00     0.235 C 
ENDBRANCH  16  17
ENDBRANCH  15  16
ENDBRANCH  12  15
ENDBRANCH  10  11
ENDBRANCH   5  10
BRANCH   6  24
HETATM   24  C   UNL     1       6.971  28.386  56.056  1.00  0.00    -0.027 A 
HETATM   25  C   UNL     1       7.997  29.256  56.506  1.00  0.00    -0.053 A 
HETATM   26  C   UNL     1       9.436  29.136  56.069  1.00  0.00     0.049 C 
HETATM   27  C   UNL     1       7.684  30.299  57.399  1.00  0.00     0.014 A 
HETATM   28  C   UNL     1       6.386  30.486  57.878  1.00  0.00    -0.061 A 
HETATM   29  C   UNL     1       6.095  31.545  58.905  1.00  0.00     0.048 C 
HETATM   30  C   UNL     1       5.384  29.613  57.463  1.00  0.00     0.007 A 
HETATM   31  C   UNL     1       5.669  28.580  56.567  1.00  0.00     0.010 A 
ENDBRANCH   6  24
BRANCH   9  32
HETATM   32  C   UNL     1       7.111  25.668  57.124  1.00  0.00     0.277 C 
HETATM   33  O   UNL     1       7.533  26.176  58.158  1.00  0.00    -0.264 OA
BRANCH  32  34
HETATM   34  O   UNL     1       6.020  24.902  56.970  1.00  0.00    -0.325 OA
HETATM   35  C   UNL     1       4.825  25.498  57.494  1.00  0.00     0.213 C 
ENDBRANCH  32  34
ENDBRANCH   9  32
BRANCH   1  36
HETATM   36  C   UNL     1       8.785  23.652  55.658  1.00  0.00     0.052 C 
HETATM   37  C   UNL     1       8.603  22.383  54.826  1.00  0.00     0.011 C 
ENDBRANCH   1  36
TORSDOF 9
ENDMDL
MODEL 6
REMARK VINA RESULT:      -7.1      3.170      8.082
REMARK  9 active torsions:
REMARK  status: ('A' for Active; 'I' for Inactive)
REMARK    1  A    between atoms: C_2  and  C_3 
REMARK    2  A    between atoms: C_7  and  C_8 
REMARK    3  A    between atoms: C_8  and  C_9 
REMARK       I    between atoms: C_9  and  N_10 
REMARK    4  A    between atoms: N_10  and  C_11 
REMARK    5  A    between atoms: C_11  and  C_12 
REMARK    6  A    between atoms: C_12  and  N_13 
REMARK    7  A    between atoms: C_21  and  C_22 
REMARK    8  A    between atoms: C_32  and  C_33 
REMARK    9  A    between atoms: C_33  and  O_34 
ROOT
HETATM    1  C   UNL     1       5.986  32.501  49.118  1.00  0.00     0.037 C 
HETATM    2  N   UNL     1       5.801  32.951  50.410  1.00  0.00    -0.232 NA
HETATM    3  C   UNL     1       4.820  32.462  51.084  1.00  0.00     0.169 C 
HETATM    4  N   UNL     1       4.033  31.154  50.711  1.00  0.00    -0.321 N 
HETATM    5  C   UNL     1       3.406  30.748  51.767  1.00  0.00     0.011 C 
HETATM    6  C   UNL     1       4.512  30.531  49.461  1.00  0.00     0.151 C 
HETATM    7  S   UNL     1       4.355  33.087  52.640  1.00  0.00    -0.086 SA
HETATM    8  C   UNL     1       3.036  31.845  52.744  1.00  0.00     0.135 C 
HETATM    9  C   UNL     1       5.191  31.550  48.578  1.00  0.00     0.138 C 
ENDROOT
BRANCH   5  10
HETATM   10  C   UNL     1       3.327  29.292  52.148  1.00  0.00     0.156 C 
BRANCH  10  11
HETATM   11  C   UNL     1       4.255  29.057  53.339  1.00  0.00     0.223 C 
HETATM   12  N   UNL     1       5.583  28.898  53.070  1.00  0.00    -0.359 N 
HETATM   13  H   UNL     1       5.877  28.927  52.094  1.00  0.00     0.162 HD
HETATM   14  O   UNL     1       3.802  28.988  54.482  1.00  0.00    -0.273 OA
BRANCH  12  15
HETATM   15  C   UNL     1       6.579  28.330  53.994  1.00  0.00     0.150 C 
BRANCH  15  16
HETATM   16  C   UNL     1       6.290  26.960  54.667  1.00  0.00     0.254 C 
BRANCH  16  17
HETATM   17  N   UNL     1       7.116  25.813  54.108  1.00  0.00    -0.070 N 
HETATM   18  H   UNL     1       8.104  26.108  54.229  1.00  0.00     0.279 HD
HETATM   19  C   UNL     1       6.936  24.496  54.829  1.00  0.00     0.235 C 
HETATM   20  C   UNL     1       7.946  23.485  54.300  1.00  0.00     0.028 C 
HETATM   21  C   UNL     1       7.830  23.305  52.793  1.00  0.00     0.003 C 
HETATM   22  C   UNL     1       7.916  24.644  52.070  1.00  0.00     0.028 C 
HETATM   23  C   UNL     1       6.908  25.648  52.616  1.00  0.00     0.235 C 
ENDBRANCH  16  17
ENDBRANCH  15  16
ENDBRANCH  12  15
ENDBRANCH  10  11
ENDBRANCH   5  10
BRANCH   6  24
HETATM   24  C   UNL     1       3.491  29.646  48.741  1.00  0.00    -0.027 A 
HETATM   25  C   UNL     1       3.910  28.528  47.976  1.00  0.00    -0.053 A 
HETATM   26  C   UNL     1       5.351  28.093  47.865  1.00  0.00     0.049 C 
HETATM   27  C   UNL     1       2.955  27.760  47.281  1.00  0.00     0.014 A 
HETATM   28  C   UNL     1       1.598  28.088  47.303  1.00  0.00    -0.061 A 
HETATM   29  C   UNL     1       0.611  27.314  46.476  1.00  0.00     0.048 C 
HETATM   30  C   UNL     1       1.188  29.205  48.027  1.00  0.00     0.007 A 
HETATM   31  C   UNL     1       2.117  29.973  48.735  1.00  0.00     0.010 A 
ENDBRANCH   6  24
BRANCH   9  32
HETATM   32  C   UNL     1       4.323  32.189  47.562  1.00  0.00     0.277 C 
HETATM   33  O   UNL     1       3.511  33.041  47.908  1.00  0.00    -0.264 OA
BRANCH  32  34
HETATM   34  O   UNL     1       4.615  31.792  46.314  1.00  0.00    -0.325 OA
HETATM   35  C   UNL     1       3.464  31.396  45.556  1.00  0.00     0.213 C 
ENDBRANCH  32  34
ENDBRANCH   9  32
BRANCH   1  36
HETATM   36  C   UNL     1       7.012  33.291  48.318  1.00  0.00     0.052 C 
HETATM   37  C   UNL     1       7.038  34.773  48.691  1.00  0.00     0.011 C 
ENDBRANCH   1  36
TORSDOF 9
ENDMDL
MODEL 7
REMARK VINA RESULT:      -6.7      4.130      9.491
REMARK  9 active torsions:
REMARK  status: ('A' for Active; 'I' for Inactive)
REMARK    1  A    between atoms: C_2  and  C_3 
REMARK    2  A    between atoms: C_7  and  C_8 
REMARK    3  A    between atoms: C_8  and  C_9 
REMARK       I    between atoms: C_9  and  N_10 
REMARK    4  A    between atoms: N_10  and  C_11 
REMARK    5  A    between atoms: C_11  and  C_12 
REMARK    6  A    between atoms: C_12  and  N_13 
REMARK    7  A    between atoms: C_21  and  C_22 
REMARK    8  A    between atoms: C_32  and  C_33 
REMARK    9  A    between atoms: C_33  and  O_34 
ROOT
HETATM    1  C   UNL     1       1.063  28.867  47.437  1.00  0.00     0.037 C 
HETATM    2  N   UNL     1       1.463  27.548  47.515  1.00  0.00    -0.232 NA
HETATM    3  C   UNL     1       2.578  27.291  48.105  1.00  0.00     0.169 C 
HETATM    4  N   UNL     1       3.348  28.282  49.049  1.00  0.00    -0.321 N 
HETATM    5  C   UNL     1       4.183  27.594  49.759  1.00  0.00     0.011 C 
HETATM    6  C   UNL     1       2.676  29.591  49.181  1.00  0.00     0.151 C 
HETATM    7  S   UNL     1       3.294  25.705  48.094  1.00  0.00    -0.086 SA
HETATM    8  C   UNL     1       4.672  26.321  49.101  1.00  0.00     0.135 C 
HETATM    9  C   UNL     1       1.791  29.863  47.990  1.00  0.00     0.138 C 
ENDROOT
BRANCH   5  10
HETATM   10  C   UNL     1       4.409  27.862  51.224  1.00  0.00     0.156 C 
BRANCH  10  11
HETATM   11  C   UNL     1       5.129  26.656  51.826  1.00  0.00     0.223 C 
HETATM   12  N   UNL     1       4.391  25.820  52.612  1.00  0.00    -0.359 N 
HETATM   13  H   UNL     1       3.411  26.055  52.766  1.00  0.00     0.162 HD
HETATM   14  O   UNL     1       6.331  26.480  51.624  1.00  0.00    -0.273 OA
BRANCH  12  15
HETATM   15  C   UNL     1       4.938  24.825  53.550  1.00  0.00     0.150 C 
BRANCH  15  16
HETATM   16  C   UNL     1       6.112  25.232  54.482  1.00  0.00     0.254 C 
BRANCH  16  17
HETATM   17  N   UNL     1       7.247  24.222  54.519  1.00  0.00    -0.070 N 
HETATM   18  H   UNL     1       8.115  24.788  54.448  1.00  0.00     0.279 HD
HETATM   19  C   UNL     1       7.329  23.411  55.792  1.00  0.00     0.235 C 
HETATM   20  C   UNL     1       8.605  22.578  55.784  1.00  0.00     0.028 C 
HETATM   21  C   UNL     1       8.687  21.681  54.556  1.00  0.00     0.003 C 
HETATM   22  C   UNL     1       8.509  22.485  53.274  1.00  0.00     0.028 C 
HETATM   23  C   UNL     1       7.236  23.321  53.300  1.00  0.00     0.235 C 
ENDBRANCH  16  17
ENDBRANCH  15  16
ENDBRANCH  12  15
ENDBRANCH  10  11
ENDBRANCH   5  10
BRANCH   6  24
HETATM   24  C   UNL     1       3.588  30.756  49.575  1.00  0.00    -0.027 A 
HETATM   25  C   UNL     1       3.090  31.843  50.337  1.00  0.00    -0.053 A 
HETATM   26  C   UNL     1       1.677  31.908  50.863  1.00  0.00     0.049 C 
HETATM   27  C   UNL     1       3.937  32.927  50.642  1.00  0.00     0.014 A 
HETATM   28  C   UNL     1       5.257  32.973  50.188  1.00  0.00    -0.061 A 
HETATM   29  C   UNL     1       6.111  34.183  50.443  1.00  0.00     0.048 C 
HETATM   30  C   UNL     1       5.738  31.922  49.412  1.00  0.00     0.007 A 
HETATM   31  C   UNL     1       4.919  30.830  49.110  1.00  0.00     0.010 A 
ENDBRANCH   6  24
BRANCH   9  32
HETATM   32  C   UNL     1       2.417  30.644  46.898  1.00  0.00     0.277 C 
HETATM   33  O   UNL     1       3.222  30.101  46.149  1.00  0.00    -0.264 OA
BRANCH  32  34
HETATM   34  O   UNL     1       1.930  31.892  46.815  1.00  0.00    -0.325 OA
HETATM   35  C   UNL     1       2.944  32.891  46.637  1.00  0.00     0.213 C 
ENDBRANCH  32  34
ENDBRANCH   9  32
BRANCH   1  36
HETATM   36  C   UNL     1      -0.135  29.107  46.530  1.00  0.00     0.052 C 
HETATM   37  C   UNL     1      -0.615  27.833  45.835  1.00  0.00     0.011 C 
ENDBRANCH   1  36
TORSDOF 9
ENDMDL
MODEL 8
REMARK VINA RESULT:      -6.7      3.807      6.233
REMARK  9 active torsions:
REMARK  status: ('A' for Active; 'I' for Inactive)
REMARK    1  A    between atoms: C_2  and  C_3 
REMARK    2  A    between atoms: C_7  and  C_8 
REMARK    3  A    between atoms: C_8  and  C_9 
REMARK       I    between atoms: C_9  and  N_10 
REMARK    4  A    between atoms: N_10  and  C_11 
REMARK    5  A    between atoms: C_11  and  C_12 
REMARK    6  A    between atoms: C_12  and  N_13 
REMARK    7  A    between atoms: C_21  and  C_22 
REMARK    8  A    between atoms: C_32  and  C_33 
REMARK    9  A    between atoms: C_33  and  O_34 
ROOT
HETATM    1  C   UNL     1       7.375  25.336  52.966  1.00  0.00     0.037 C 
HETATM    2  N   UNL     1       6.844  25.372  51.694  1.00  0.00    -0.232 NA
HETATM    3  C   UNL     1       5.956  26.268  51.437  1.00  0.00     0.169 C 
HETATM    4  N   UNL     1       5.679  27.541  52.316  1.00  0.00    -0.321 N 
HETATM    5  C   UNL     1       5.032  28.396  51.592  1.00  0.00     0.011 C 
HETATM    6  C   UNL     1       6.533  27.605  53.520  1.00  0.00     0.151 C 
HETATM    7  S   UNL     1       5.063  26.295  49.944  1.00  0.00    -0.086 SA
HETATM    8  C   UNL     1       4.185  27.784  50.496  1.00  0.00     0.135 C 
HETATM    9  C   UNL     1       7.012  26.230  53.913  1.00  0.00     0.138 C 
ENDROOT
BRANCH   5  10
HETATM   10  C   UNL     1       5.334  29.872  51.625  1.00  0.00     0.156 C 
BRANCH  10  11
HETATM   11  C   UNL     1       4.407  30.573  50.633  1.00  0.00     0.223 C 
HETATM   12  N   UNL     1       4.923  30.875  49.407  1.00  0.00    -0.359 N 
HETATM   13  H   UNL     1       5.897  30.633  49.229  1.00  0.00     0.162 HD
HETATM   14  O   UNL     1       3.256  30.870  50.955  1.00  0.00    -0.273 OA
BRANCH  12  15
HETATM   15  C   UNL     1       4.342  31.831  48.449  1.00  0.00     0.150 C 
BRANCH  15  16
HETATM   16  C   UNL     1       5.277  32.548  47.437  1.00  0.00     0.254 C 
BRANCH  16  17
HETATM   17  N   UNL     1       6.317  33.445  48.087  1.00  0.00    -0.070 N 
HETATM   18  H   UNL     1       6.833  32.829  48.744  1.00  0.00     0.279 HD
HETATM   19  C   UNL     1       7.322  34.043  47.129  1.00  0.00     0.235 C 
HETATM   20  C   UNL     1       8.410  34.762  47.917  1.00  0.00     0.028 C 
HETATM   21  C   UNL     1       7.831  35.827  48.839  1.00  0.00     0.003 C 
HETATM   22  C   UNL     1       6.749  35.245  49.740  1.00  0.00     0.028 C 
HETATM   23  C   UNL     1       5.674  34.520  48.940  1.00  0.00     0.235 C 
ENDBRANCH  16  17
ENDBRANCH  15  16
ENDBRANCH  12  15
ENDBRANCH  10  11
ENDBRANCH   5  10
BRANCH   6  24
HETATM   24  C   UNL     1       5.968  28.437  54.675  1.00  0.00    -0.027 A 
HETATM   25  C   UNL     1       6.831  29.059  55.612  1.00  0.00    -0.053 A 
HETATM   26  C   UNL     1       8.336  29.009  55.513  1.00  0.00     0.049 C 
HETATM   27  C   UNL     1       6.285  29.775  56.695  1.00  0.00     0.014 A 
HETATM   28  C   UNL     1       4.905  29.867  56.889  1.00  0.00    -0.061 A 
HETATM   29  C   UNL     1       4.348  30.553  58.104  1.00  0.00     0.048 C 
HETATM   30  C   UNL     1       4.056  29.229  55.988  1.00  0.00     0.007 A 
HETATM   31  C   UNL     1       4.576  28.525  54.899  1.00  0.00     0.010 A 
ENDBRANCH   6  24
BRANCH   9  32
HETATM   32  C   UNL     1       6.180  25.530  54.920  1.00  0.00     0.277 C 
HETATM   33  O   UNL     1       5.112  25.030  54.582  1.00  0.00    -0.264 OA
BRANCH  32  34
HETATM   34  O   UNL     1       6.778  25.459  56.120  1.00  0.00    -0.325 OA
HETATM   35  C   UNL     1       5.885  25.692  57.218  1.00  0.00     0.213 C 
ENDBRANCH  32  34
ENDBRANCH   9  32
BRANCH   1  36
HETATM   36  C   UNL     1       8.236  24.113  53.253  1.00  0.00     0.052 C 
HETATM   37  C   UNL     1       7.550  22.804  52.863  1.00  0.00     0.011 C 
ENDBRANCH   1  36
TORSDOF 9
ENDMDL
MODEL 9
REMARK VINA RESULT:      -6.7      4.233      9.305
REMARK  9 active torsions:
REMARK  status: ('A' for Active; 'I' for Inactive)
REMARK    1  A    between atoms: C_2  and  C_3 
REMARK    2  A    between atoms: C_7  and  C_8 
REMARK    3  A    between atoms: C_8  and  C_9 
REMARK       I    between atoms: C_9  and  N_10 
REMARK    4  A    between atoms: N_10  and  C_11 
REMARK    5  A    between atoms: C_11  and  C_12 
REMARK    6  A    between atoms: C_12  and  N_13 
REMARK    7  A    between atoms: C_21  and  C_22 
REMARK    8  A    between atoms: C_32  and  C_33 
REMARK    9  A    between atoms: C_33  and  O_34 
ROOT
HETATM    1  C   UNL     1       1.413  31.584  49.725  1.00  0.00     0.037 C 
HETATM    2  N   UNL     1       1.108  30.246  49.587  1.00  0.00    -0.232 NA
HETATM    3  C   UNL     1       1.873  29.526  48.842  1.00  0.00     0.169 C 
HETATM    4  N   UNL     1       3.312  29.939  48.365  1.00  0.00    -0.321 N 
HETATM    5  C   UNL     1       3.931  28.868  47.986  1.00  0.00     0.011 C 
HETATM    6  C   UNL     1       3.711  31.281  48.834  1.00  0.00     0.151 C 
HETATM    7  S   UNL     1       1.488  27.882  48.422  1.00  0.00    -0.086 SA
HETATM    8  C   UNL     1       3.029  27.765  47.473  1.00  0.00     0.135 C 
HETATM    9  C   UNL     1       2.499  32.129  49.132  1.00  0.00     0.138 C 
ENDROOT
BRANCH   5  10
HETATM   10  C   UNL     1       5.380  28.615  48.313  1.00  0.00     0.156 C 
BRANCH  10  11
HETATM   11  C   UNL     1       5.470  28.166  49.771  1.00  0.00     0.223 C 
HETATM   12  N   UNL     1       5.501  26.823  50.008  1.00  0.00    -0.359 N 
HETATM   13  H   UNL     1       5.446  26.198  49.205  1.00  0.00     0.162 HD
HETATM   14  O   UNL     1       5.482  28.996  50.681  1.00  0.00    -0.273 OA
BRANCH  12  15
HETATM   15  C   UNL     1       5.240  26.179  51.306  1.00  0.00     0.150 C 
BRANCH  15  16
HETATM   16  C   UNL     1       6.296  26.304  52.438  1.00  0.00     0.254 C 
BRANCH  16  17
HETATM   17  N   UNL     1       6.687  24.976  53.066  1.00  0.00    -0.070 N 
HETATM   18  H   UNL     1       5.824  24.400  53.039  1.00  0.00     0.279 HD
HETATM   19  C   UNL     1       7.769  24.222  52.326  1.00  0.00     0.235 C 
HETATM   20  C   UNL     1       7.936  22.839  52.942  1.00  0.00     0.028 C 
HETATM   21  C   UNL     1       8.243  22.916  54.432  1.00  0.00     0.003 C 
HETATM   22  C   UNL     1       7.204  23.756  55.164  1.00  0.00     0.028 C 
HETATM   23  C   UNL     1       7.039  25.132  54.532  1.00  0.00     0.235 C 
ENDBRANCH  16  17
ENDBRANCH  15  16
ENDBRANCH  12  15
ENDBRANCH  10  11
ENDBRANCH   5  10
BRANCH   6  24
HETATM   24  C   UNL     1       4.781  31.976  47.986  1.00  0.00    -0.027 A 
HETATM   25  C   UNL     1       5.765  32.799  48.591  1.00  0.00    -0.053 A 
HETATM   26  C   UNL     1       5.876  33.000  50.082  1.00  0.00     0.049 C 
HETATM   27  C   UNL     1       6.705  33.468  47.783  1.00  0.00     0.014 A 
HETATM   28  C   UNL     1       6.679  33.364  46.391  1.00  0.00    -0.061 A 
HETATM   29  C   UNL     1       7.631  34.164  45.547  1.00  0.00     0.048 C 
HETATM   30  C   UNL     1       5.693  32.583  45.794  1.00  0.00     0.007 A 
HETATM   31  C   UNL     1       4.759  31.899  46.577  1.00  0.00     0.010 A 
ENDBRANCH   6  24
BRANCH   9  32
HETATM   32  C   UNL     1       2.040  32.994  48.021  1.00  0.00     0.277 C 
HETATM   33  O   UNL     1       1.419  32.500  47.085  1.00  0.00    -0.264 OA
BRANCH  32  34
HETATM   34  O   UNL     1       2.304  34.292  48.237  1.00  0.00    -0.325 OA
HETATM   35  C   UNL     1       2.798  34.976  47.077  1.00  0.00     0.213 C 
ENDBRANCH  32  34
ENDBRANCH   9  32
BRANCH   1  36
HETATM   36  C   UNL     1       0.338  32.405  50.423  1.00  0.00     0.052 C 
HETATM   37  C   UNL     1      -1.064  31.827  50.233  1.00  0.00     0.011 C 
ENDBRANCH   1  36
TORSDOF 9
ENDMDL
MODEL 10
REMARK VINA RESULT:      -6.6      2.914      7.504
REMARK  9 active torsions:
REMARK  status: ('A' for Active; 'I' for Inactive)
REMARK    1  A    between atoms: C_2  and  C_3 
REMARK    2  A    between atoms: C_7  and  C_8 
REMARK    3  A    between atoms: C_8  and  C_9 
REMARK       I    between atoms: C_9  and  N_10 
REMARK    4  A    between atoms: N_10  and  C_11 
REMARK    5  A    between atoms: C_11  and  C_12 
REMARK    6  A    between atoms: C_12  and  N_13 
REMARK    7  A    between atoms: C_21  and  C_22 
REMARK    8  A    between atoms: C_32  and  C_33 
REMARK    9  A    between atoms: C_33  and  O_34 
ROOT
HETATM    1  C   UNL     1       5.263  33.197  51.208  1.00  0.00     0.037 C 
HETATM    2  N   UNL     1       5.086  33.390  52.562  1.00  0.00    -0.232 NA
HETATM    3  C   UNL     1       4.321  32.570  53.194  1.00  0.00     0.169 C 
HETATM    4  N   UNL     1       3.855  31.172  52.650  1.00  0.00    -0.321 N 
HETATM    5  C   UNL     1       3.444  30.467  53.655  1.00  0.00     0.011 C 
HETATM    6  C   UNL     1       4.363  30.884  51.294  1.00  0.00     0.151 C 
HETATM    7  S   UNL     1       3.853  32.819  54.851  1.00  0.00    -0.086 SA
HETATM    8  C   UNL     1       2.900  31.276  54.813  1.00  0.00     0.135 C 
HETATM    9  C   UNL     1       4.686  32.161  50.558  1.00  0.00     0.138 C 
ENDROOT
BRANCH   5  10
HETATM   10  C   UNL     1       3.764  29.002  53.797  1.00  0.00     0.156 C 
BRANCH  10  11
HETATM   11  C   UNL     1       5.211  28.871  54.269  1.00  0.00     0.223 C 
HETATM   12  N   UNL     1       5.980  27.921  53.663  1.00  0.00    -0.359 N 
HETATM   13  H   UNL     1       5.544  27.344  52.945  1.00  0.00     0.162 HD
HETATM   14  O   UNL     1       5.638  29.581  55.181  1.00  0.00    -0.273 OA
BRANCH  12  15
HETATM   15  C   UNL     1       7.255  27.397  54.181  1.00  0.00     0.150 C 
BRANCH  15  16
HETATM   16  C   UNL     1       7.234  26.185  55.152  1.00  0.00     0.254 C 
BRANCH  16  17
HETATM   17  N   UNL     1       7.827  24.914  54.564  1.00  0.00    -0.070 N 
HETATM   18  H   UNL     1       8.724  25.209  54.133  1.00  0.00     0.279 HD
HETATM   19  C   UNL     1       8.131  23.833  55.575  1.00  0.00     0.235 C 
HETATM   20  C   UNL     1       8.886  22.698  54.893  1.00  0.00     0.028 C 
HETATM   21  C   UNL     1       8.113  22.136  53.708  1.00  0.00     0.003 C 
HETATM   22  C   UNL     1       7.721  23.241  52.733  1.00  0.00     0.028 C 
HETATM   23  C   UNL     1       6.978  24.374  53.430  1.00  0.00     0.235 C 
ENDBRANCH  16  17
ENDBRANCH  15  16
ENDBRANCH  12  15
ENDBRANCH  10  11
ENDBRANCH   5  10
BRANCH   6  24
HETATM   24  C   UNL     1       3.535  29.877  50.488  1.00  0.00    -0.027 A 
HETATM   25  C   UNL     1       4.154  29.015  49.547  1.00  0.00    -0.053 A 
HETATM   26  C   UNL     1       5.645  28.975  49.317  1.00  0.00     0.049 C 
HETATM   27  C   UNL     1       3.364  28.136  48.782  1.00  0.00     0.014 A 
HETATM   28  C   UNL     1       1.974  28.107  48.906  1.00  0.00    -0.061 A 
HETATM   29  C   UNL     1       1.144  27.230  48.011  1.00  0.00     0.048 C 
HETATM   30  C   UNL     1       1.361  28.976  49.806  1.00  0.00     0.007 A 
HETATM   31  C   UNL     1       2.127  29.847  50.585  1.00  0.00     0.010 A 
ENDBRANCH   6  24
BRANCH   9  32
HETATM   32  C   UNL     1       3.600  32.693  49.702  1.00  0.00     0.277 C 
HETATM   33  O   UNL     1       2.660  33.289  50.217  1.00  0.00    -0.264 OA
BRANCH  32  34
HETATM   34  O   UNL     1       3.845  32.517  48.394  1.00  0.00    -0.325 OA
HETATM   35  C   UNL     1       3.128  33.429  47.551  1.00  0.00     0.213 C 
ENDBRANCH  32  34
ENDBRANCH   9  32
BRANCH   1  36
HETATM   36  C   UNL     1       5.985  34.333  50.499  1.00  0.00     0.052 C 
HETATM   37  C   UNL     1       6.525  35.385  51.468  1.00  0.00     0.011 C 
ENDBRANCH   1  36
TORSDOF 9
ENDMDL
