MODEL 1
REMARK VINA RESULT:      -9.7      0.000      0.000
REMARK  6 active torsions:
REMARK  status: ('A' for Active; 'I' for Inactive)
REMARK    1  A    between atoms: C_3  and  C_4 
REMARK    2  A    between atoms: C_9  and  N_10 
REMARK       I    between atoms: N_10  and  C_11 
REMARK       I    between atoms: C_11  and  N_12 
REMARK    3  A    between atoms: N_12  and  C_13 
REMARK    4  A    between atoms: C_13  and  C_14 
REMARK    5  A    between atoms: C_14  and  C_15 
REMARK    6  A    between atoms: C_18  and  N_19 
ROOT
HETATM    1  N   UNL     1       7.796  30.723  60.078  1.00  0.00    -0.309 N 
HETATM    2  C   UNL     1       8.589  30.952  58.988  1.00  0.00     0.320 C 
HETATM    3  N   UNL     1       8.651  29.938  58.078  1.00  0.00    -0.343 N 
HETATM    4  O   UNL     1       9.222  31.975  58.747  1.00  0.00    -0.247 OA
HETATM    5  H   UNL     1       7.272  29.864  60.076  1.00  0.00     0.170 HD
HETATM    6  H   UNL     1       9.208  30.187  57.268  1.00  0.00     0.164 HD
ENDROOT
BRANCH   3   7
HETATM    7  C   UNL     1       7.993  28.641  58.059  1.00  0.00     0.129 C 
BRANCH   7   8
HETATM    8  C   UNL     1       7.531  28.206  56.664  1.00  0.00     0.058 C 
BRANCH   8   9
HETATM    9  C   UNL     1       7.658  26.720  56.424  1.00  0.00    -0.057 A 
HETATM   10  C   UNL     1       8.372  25.917  57.320  1.00  0.00     0.009 A 
HETATM   11  C   UNL     1       8.474  24.539  57.109  1.00  0.00     0.032 A 
HETATM   12  C   UNL     1       7.870  23.944  55.992  1.00  0.00     0.058 A 
HETATM   13  C   UNL     1       7.168  24.747  55.085  1.00  0.00     0.032 A 
HETATM   14  C   UNL     1       7.063  26.125  55.305  1.00  0.00     0.009 A 
BRANCH  12  15
HETATM   15  N   UNL     1       7.975  22.537  55.807  1.00  0.00    -0.246 N 
HETATM   16  N   UNL     1       7.735  21.971  54.593  1.00  0.00    -0.180 NA
HETATM   17  C   UNL     1       7.938  20.666  54.778  1.00  0.00     0.140 A 
HETATM   18  C   UNL     1       8.300  20.362  56.096  1.00  0.00     0.040 A 
HETATM   19  C   UNL     1       8.316  21.576  56.739  1.00  0.00     0.120 A 
ENDBRANCH  12  15
ENDBRANCH   8   9
ENDBRANCH   7   8
ENDBRANCH   3   7
BRANCH   1  20
HETATM   20  C   UNL     1       7.556  31.582  61.169  1.00  0.00     0.036 A 
HETATM   21  C   UNL     1       8.366  31.651  62.299  1.00  0.00     0.030 A 
HETATM   22  C   UNL     1       8.048  32.523  63.346  1.00  0.00     0.018 A 
HETATM   23  C   UNL     1       6.921  33.354  63.273  1.00  0.00     0.015 A 
HETATM   24  C   UNL     1       6.098  33.305  62.131  1.00  0.00    -0.046 A 
HETATM   25  C   UNL     1       4.877  34.172  61.974  1.00  0.00     0.049 C 
HETATM   26  C   UNL     1       6.421  32.403  61.100  1.00  0.00     0.037 A 
BRANCH  23  27
HETATM   27  C   UNL     1       6.609  34.254  64.424  1.00  0.00     0.156 C 
HETATM   28  C   UNL     1       6.893  33.758  65.818  1.00  0.00     0.097 C 
HETATM   29  O   UNL     1       6.108  35.359  64.235  1.00  0.00    -0.293 OA
ENDBRANCH  23  27
ENDBRANCH   1  20
TORSDOF 6
ENDMDL
MODEL 2
REMARK VINA RESULT:      -9.6      3.503     10.813
REMARK  6 active torsions:
REMARK  status: ('A' for Active; 'I' for Inactive)
REMARK    1  A    between atoms: C_3  and  C_4 
REMARK    2  A    between atoms: C_9  and  N_10 
REMARK       I    between atoms: N_10  and  C_11 
REMARK       I    between atoms: C_11  and  N_12 
REMARK    3  A    between atoms: N_12  and  C_13 
REMARK    4  A    between atoms: C_13  and  C_14 
REMARK    5  A    between atoms: C_14  and  C_15 
REMARK    6  A    between atoms: C_18  and  N_19 
ROOT
HETATM    1  N   UNL     1       8.864  29.571  57.178  1.00  0.00    -0.309 N 
HETATM    2  C   UNL     1      10.134  30.075  57.218  1.00  0.00     0.320 C 
HETATM    3  N   UNL     1      10.332  31.114  58.080  1.00  0.00    -0.343 N 
HETATM    4  O   UNL     1      11.101  29.671  56.579  1.00  0.00    -0.247 OA
HETATM    5  H   UNL     1       8.210  29.959  57.836  1.00  0.00     0.170 HD
HETATM    6  H   UNL     1      11.303  31.407  58.106  1.00  0.00     0.164 HD
ENDROOT
BRANCH   3   7
HETATM    7  C   UNL     1       9.412  31.777  58.990  1.00  0.00     0.129 C 
BRANCH   7   8
HETATM    8  C   UNL     1       9.169  31.003  60.290  1.00  0.00     0.058 C 
BRANCH   8   9
HETATM    9  C   UNL     1       8.294  31.741  61.276  1.00  0.00    -0.057 A 
HETATM   10  C   UNL     1       7.031  32.205  60.892  1.00  0.00     0.009 A 
HETATM   11  C   UNL     1       6.213  32.871  61.808  1.00  0.00     0.032 A 
HETATM   12  C   UNL     1       6.649  33.090  63.123  1.00  0.00     0.058 A 
HETATM   13  C   UNL     1       7.918  32.640  63.507  1.00  0.00     0.032 A 
HETATM   14  C   UNL     1       8.731  31.968  62.587  1.00  0.00     0.009 A 
BRANCH  12  15
HETATM   15  N   UNL     1       5.791  33.757  64.042  1.00  0.00    -0.246 N 
HETATM   16  N   UNL     1       4.946  33.055  64.845  1.00  0.00    -0.180 NA
HETATM   17  C   UNL     1       4.320  33.980  65.573  1.00  0.00     0.140 A 
HETATM   18  C   UNL     1       4.731  35.281  65.257  1.00  0.00     0.040 A 
HETATM   19  C   UNL     1       5.675  35.114  64.271  1.00  0.00     0.120 A 
ENDBRANCH  12  15
ENDBRANCH   8   9
ENDBRANCH   7   8
ENDBRANCH   3   7
BRANCH   1  20
HETATM   20  C   UNL     1       8.377  28.516  56.382  1.00  0.00     0.036 A 
HETATM   21  C   UNL     1       8.068  28.637  55.029  1.00  0.00     0.030 A 
HETATM   22  C   UNL     1       7.575  27.541  54.314  1.00  0.00     0.018 A 
HETATM   23  C   UNL     1       7.396  26.298  54.937  1.00  0.00     0.015 A 
HETATM   24  C   UNL     1       7.714  26.155  56.301  1.00  0.00    -0.046 A 
HETATM   25  C   UNL     1       7.560  24.851  57.038  1.00  0.00     0.049 C 
HETATM   26  C   UNL     1       8.186  27.277  57.009  1.00  0.00     0.037 A 
BRANCH  23  27
HETATM   27  C   UNL     1       6.846  25.161  54.139  1.00  0.00     0.156 C 
HETATM   28  C   UNL     1       7.808  24.304  53.356  1.00  0.00     0.097 C 
HETATM   29  O   UNL     1       5.637  24.950  54.103  1.00  0.00    -0.293 OA
ENDBRANCH  23  27
ENDBRANCH   1  20
TORSDOF 6
ENDMDL
MODEL 3
REMARK VINA RESULT:      -9.6      3.017     11.081
REMARK  6 active torsions:
REMARK  status: ('A' for Active; 'I' for Inactive)
REMARK    1  A    between atoms: C_3  and  C_4 
REMARK    2  A    between atoms: C_9  and  N_10 
REMARK       I    between atoms: N_10  and  C_11 
REMARK       I    between atoms: C_11  and  N_12 
REMARK    3  A    between atoms: N_12  and  C_13 
REMARK    4  A    between atoms: C_13  and  C_14 
REMARK    5  A    between atoms: C_14  and  C_15 
REMARK    6  A    between atoms: C_18  and  N_19 
ROOT
HETATM    1  N   UNL     1       8.142  27.230  57.422  1.00  0.00    -0.309 N 
HETATM    2  C   UNL     1       7.068  28.041  57.667  1.00  0.00     0.320 C 
HETATM    3  N   UNL     1       7.356  29.247  58.235  1.00  0.00    -0.343 N 
HETATM    4  O   UNL     1       5.895  27.797  57.408  1.00  0.00    -0.247 OA
HETATM    5  H   UNL     1       9.049  27.622  57.611  1.00  0.00     0.170 HD
HETATM    6  H   UNL     1       6.529  29.824  58.341  1.00  0.00     0.164 HD
ENDROOT
BRANCH   3   7
HETATM    7  C   UNL     1       8.631  29.835  58.614  1.00  0.00     0.129 C 
BRANCH   7   8
HETATM    8  C   UNL     1       8.582  31.359  58.775  1.00  0.00     0.058 C 
BRANCH   8   9
HETATM    9  C   UNL     1       8.016  31.806  60.101  1.00  0.00    -0.057 A 
HETATM   10  C   UNL     1       8.802  31.765  61.257  1.00  0.00     0.009 A 
HETATM   11  C   UNL     1       8.285  32.196  62.482  1.00  0.00     0.032 A 
HETATM   12  C   UNL     1       6.968  32.670  62.570  1.00  0.00     0.058 A 
HETATM   13  C   UNL     1       6.173  32.700  61.418  1.00  0.00     0.032 A 
HETATM   14  C   UNL     1       6.698  32.272  60.193  1.00  0.00     0.009 A 
BRANCH  12  15
HETATM   15  N   UNL     1       6.470  33.119  63.825  1.00  0.00    -0.246 N 
HETATM   16  N   UNL     1       5.148  33.015  64.130  1.00  0.00    -0.180 NA
HETATM   17  C   UNL     1       5.042  33.507  65.365  1.00  0.00     0.140 A 
HETATM   18  C   UNL     1       6.272  33.942  65.876  1.00  0.00     0.040 A 
HETATM   19  C   UNL     1       7.173  33.685  64.870  1.00  0.00     0.120 A 
ENDBRANCH  12  15
ENDBRANCH   8   9
ENDBRANCH   7   8
ENDBRANCH   3   7
BRANCH   1  20
HETATM   20  C   UNL     1       8.139  25.939  56.858  1.00  0.00     0.036 A 
HETATM   21  C   UNL     1       8.770  24.837  57.429  1.00  0.00     0.030 A 
HETATM   22  C   UNL     1       8.730  23.591  56.795  1.00  0.00     0.018 A 
HETATM   23  C   UNL     1       8.045  23.421  55.584  1.00  0.00     0.015 A 
HETATM   24  C   UNL     1       7.391  24.522  54.999  1.00  0.00    -0.046 A 
HETATM   25  C   UNL     1       6.627  24.419  53.706  1.00  0.00     0.049 C 
HETATM   26  C   UNL     1       7.464  25.774  55.640  1.00  0.00     0.037 A 
BRANCH  23  27
HETATM   27  C   UNL     1       8.048  22.077  54.932  1.00  0.00     0.156 C 
HETATM   28  C   UNL     1       8.824  21.903  53.653  1.00  0.00     0.097 C 
HETATM   29  O   UNL     1       7.409  21.147  55.417  1.00  0.00    -0.293 OA
ENDBRANCH  23  27
ENDBRANCH   1  20
TORSDOF 6
ENDMDL
MODEL 4
REMARK VINA RESULT:      -9.4      1.175      2.124
REMARK  6 active torsions:
REMARK  status: ('A' for Active; 'I' for Inactive)
REMARK    1  A    between atoms: C_3  and  C_4 
REMARK    2  A    between atoms: C_9  and  N_10 
REMARK       I    between atoms: N_10  and  C_11 
REMARK       I    between atoms: C_11  and  N_12 
REMARK    3  A    between atoms: N_12  and  C_13 
REMARK    4  A    between atoms: C_13  and  C_14 
REMARK    5  A    between atoms: C_14  and  C_15 
REMARK    6  A    between atoms: C_18  and  N_19 
ROOT
HETATM    1  N   UNL     1       7.354  31.245  59.920  1.00  0.00    -0.309 N 
HETATM    2  C   UNL     1       8.465  31.375  59.134  1.00  0.00     0.320 C 
HETATM    3  N   UNL     1       8.769  30.297  58.356  1.00  0.00    -0.343 N 
HETATM    4  O   UNL     1       9.188  32.363  59.050  1.00  0.00    -0.247 OA
HETATM    5  H   UNL     1       6.820  30.400  59.801  1.00  0.00     0.170 HD
HETATM    6  H   UNL     1       9.568  30.474  57.757  1.00  0.00     0.164 HD
ENDROOT
BRANCH   3   7
HETATM    7  C   UNL     1       8.093  29.019  58.203  1.00  0.00     0.129 C 
BRANCH   7   8
HETATM    8  C   UNL     1       7.335  28.878  56.878  1.00  0.00     0.058 C 
BRANCH   8   9
HETATM    9  C   UNL     1       7.433  27.498  56.273  1.00  0.00    -0.057 A 
HETATM   10  C   UNL     1       7.223  27.310  54.902  1.00  0.00     0.009 A 
HETATM   11  C   UNL     1       7.331  26.037  54.337  1.00  0.00     0.032 A 
HETATM   12  C   UNL     1       7.644  24.928  55.137  1.00  0.00     0.058 A 
HETATM   13  C   UNL     1       7.840  25.110  56.512  1.00  0.00     0.032 A 
HETATM   14  C   UNL     1       7.737  26.389  57.071  1.00  0.00     0.009 A 
BRANCH  12  15
HETATM   15  N   UNL     1       7.764  23.644  54.537  1.00  0.00    -0.246 N 
HETATM   16  N   UNL     1       7.684  22.510  55.285  1.00  0.00    -0.180 NA
HETATM   17  C   UNL     1       7.820  21.513  54.412  1.00  0.00     0.140 A 
HETATM   18  C   UNL     1       7.998  21.970  53.099  1.00  0.00     0.040 A 
HETATM   19  C   UNL     1       7.960  23.340  53.204  1.00  0.00     0.120 A 
ENDBRANCH  12  15
ENDBRANCH   8   9
ENDBRANCH   7   8
ENDBRANCH   3   7
BRANCH   1  20
HETATM   20  C   UNL     1       6.816  32.185  60.821  1.00  0.00     0.036 A 
HETATM   21  C   UNL     1       5.737  33.015  60.532  1.00  0.00     0.030 A 
HETATM   22  C   UNL     1       5.273  33.932  61.481  1.00  0.00     0.018 A 
HETATM   23  C   UNL     1       5.874  34.025  62.744  1.00  0.00     0.015 A 
HETATM   24  C   UNL     1       6.960  33.185  63.058  1.00  0.00    -0.046 A 
HETATM   25  C   UNL     1       7.651  33.218  64.395  1.00  0.00     0.049 C 
HETATM   26  C   UNL     1       7.427  32.286  62.080  1.00  0.00     0.037 A 
BRANCH  23  27
HETATM   27  C   UNL     1       5.360  35.034  63.718  1.00  0.00     0.156 C 
HETATM   28  C   UNL     1       4.211  34.647  64.613  1.00  0.00     0.097 C 
HETATM   29  O   UNL     1       5.847  36.161  63.766  1.00  0.00    -0.293 OA
ENDBRANCH  23  27
ENDBRANCH   1  20
TORSDOF 6
ENDMDL
MODEL 5
REMARK VINA RESULT:      -9.1      5.541      9.504
REMARK  6 active torsions:
REMARK  status: ('A' for Active; 'I' for Inactive)
REMARK    1  A    between atoms: C_3  and  C_4 
REMARK    2  A    between atoms: C_9  and  N_10 
REMARK       I    between atoms: N_10  and  C_11 
REMARK       I    between atoms: C_11  and  N_12 
REMARK    3  A    between atoms: N_12  and  C_13 
REMARK    4  A    between atoms: C_13  and  C_14 
REMARK    5  A    between atoms: C_14  and  C_15 
REMARK    6  A    between atoms: C_18  and  N_19 
ROOT
HETATM    1  N   UNL     1       6.002  28.077  53.453  1.00  0.00    -0.309 N 
HETATM    2  C   UNL     1       5.319  28.894  54.312  1.00  0.00     0.320 C 
HETATM    3  N   UNL     1       5.940  29.160  55.496  1.00  0.00    -0.343 N 
HETATM    4  O   UNL     1       4.228  29.417  54.109  1.00  0.00    -0.247 OA
HETATM    5  H   UNL     1       6.928  27.808  53.737  1.00  0.00     0.170 HD
HETATM    6  H   UNL     1       5.412  29.813  56.064  1.00  0.00     0.164 HD
ENDROOT
BRANCH   3   7
HETATM    7  C   UNL     1       7.235  28.731  56.003  1.00  0.00     0.129 C 
BRANCH   7   8
HETATM    8  C   UNL     1       7.141  27.758  57.183  1.00  0.00     0.058 C 
BRANCH   8   9
HETATM    9  C   UNL     1       7.364  26.316  56.793  1.00  0.00    -0.057 A 
HETATM   10  C   UNL     1       8.412  25.583  57.361  1.00  0.00     0.009 A 
HETATM   11  C   UNL     1       8.608  24.243  57.016  1.00  0.00     0.032 A 
HETATM   12  C   UNL     1       7.762  23.617  56.089  1.00  0.00     0.058 A 
HETATM   13  C   UNL     1       6.721  24.351  55.508  1.00  0.00     0.032 A 
HETATM   14  C   UNL     1       6.525  25.691  55.862  1.00  0.00     0.009 A 
BRANCH  12  15
HETATM   15  N   UNL     1       7.972  22.248  55.765  1.00  0.00    -0.246 N 
HETATM   16  N   UNL     1       7.724  21.779  54.512  1.00  0.00    -0.180 NA
HETATM   17  C   UNL     1       8.040  20.484  54.562  1.00  0.00     0.140 A 
HETATM   18  C   UNL     1       8.483  20.090  55.831  1.00  0.00     0.040 A 
HETATM   19  C   UNL     1       8.430  21.236  56.587  1.00  0.00     0.120 A 
ENDBRANCH  12  15
ENDBRANCH   8   9
ENDBRANCH   7   8
ENDBRANCH   3   7
BRANCH   1  20
HETATM   20  C   UNL     1       5.599  27.631  52.179  1.00  0.00     0.036 A 
HETATM   21  C   UNL     1       5.362  26.298  51.858  1.00  0.00     0.030 A 
HETATM   22  C   UNL     1       4.977  25.938  50.562  1.00  0.00     0.018 A 
HETATM   23  C   UNL     1       4.809  26.911  49.566  1.00  0.00     0.015 A 
HETATM   24  C   UNL     1       5.034  28.266  49.877  1.00  0.00    -0.046 A 
HETATM   25  C   UNL     1       4.865  29.369  48.866  1.00  0.00     0.049 C 
HETATM   26  C   UNL     1       5.444  28.604  51.181  1.00  0.00     0.037 A 
BRANCH  23  27
HETATM   27  C   UNL     1       4.419  26.479  48.191  1.00  0.00     0.156 C 
HETATM   28  C   UNL     1       2.999  26.030  47.956  1.00  0.00     0.097 C 
HETATM   29  O   UNL     1       5.245  26.465  47.282  1.00  0.00    -0.293 OA
ENDBRANCH  23  27
ENDBRANCH   1  20
TORSDOF 6
ENDMDL
MODEL 6
REMARK VINA RESULT:      -9.1      4.826      8.652
REMARK  6 active torsions:
REMARK  status: ('A' for Active; 'I' for Inactive)
REMARK    1  A    between atoms: C_3  and  C_4 
REMARK    2  A    between atoms: C_9  and  N_10 
REMARK       I    between atoms: N_10  and  C_11 
REMARK       I    between atoms: C_11  and  N_12 
REMARK    3  A    between atoms: N_12  and  C_13 
REMARK    4  A    between atoms: C_13  and  C_14 
REMARK    5  A    between atoms: C_14  and  C_15 
REMARK    6  A    between atoms: C_18  and  N_19 
ROOT
HETATM    1  N   UNL     1       6.475  34.289  67.088  1.00  0.00    -0.309 N 
HETATM    2  C   UNL     1       5.373  34.088  66.305  1.00  0.00     0.320 C 
HETATM    3  N   UNL     1       5.614  33.940  64.970  1.00  0.00    -0.343 N 
HETATM    4  O   UNL     1       4.210  34.007  66.687  1.00  0.00    -0.247 OA
HETATM    5  H   UNL     1       7.367  34.237  66.625  1.00  0.00     0.170 HD
HETATM    6  H   UNL     1       4.767  33.739  64.451  1.00  0.00     0.164 HD
ENDROOT
BRANCH   3   7
HETATM    7  C   UNL     1       6.865  33.943  64.229  1.00  0.00     0.129 C 
BRANCH   7   8
HETATM    8  C   UNL     1       7.609  32.603  64.273  1.00  0.00     0.058 C 
BRANCH   8   9
HETATM    9  C   UNL     1       8.039  32.108  62.913  1.00  0.00    -0.057 A 
HETATM   10  C   UNL     1       8.805  30.942  62.794  1.00  0.00     0.009 A 
HETATM   11  C   UNL     1       9.187  30.472  61.535  1.00  0.00     0.032 A 
HETATM   12  C   UNL     1       8.816  31.166  60.374  1.00  0.00     0.058 A 
HETATM   13  C   UNL     1       8.062  32.340  60.490  1.00  0.00     0.032 A 
HETATM   14  C   UNL     1       7.676  32.803  61.753  1.00  0.00     0.009 A 
BRANCH  12  15
HETATM   15  N   UNL     1       9.204  30.658  59.103  1.00  0.00    -0.246 N 
HETATM   16  N   UNL     1       8.605  29.555  58.577  1.00  0.00    -0.180 NA
HETATM   17  C   UNL     1       9.193  29.378  57.393  1.00  0.00     0.140 A 
HETATM   18  C   UNL     1      10.176  30.342  57.134  1.00  0.00     0.040 A 
HETATM   19  C   UNL     1      10.167  31.151  58.244  1.00  0.00     0.120 A 
ENDBRANCH  12  15
ENDBRANCH   8   9
ENDBRANCH   7   8
ENDBRANCH   3   7
BRANCH   1  20
HETATM   20  C   UNL     1       6.522  34.482  68.483  1.00  0.00     0.036 A 
HETATM   21  C   UNL     1       5.936  33.623  69.409  1.00  0.00     0.030 A 
HETATM   22  C   UNL     1       6.018  33.895  70.778  1.00  0.00     0.018 A 
HETATM   23  C   UNL     1       6.701  35.027  71.247  1.00  0.00     0.015 A 
HETATM   24  C   UNL     1       7.309  35.899  70.325  1.00  0.00    -0.046 A 
HETATM   25  C   UNL     1       8.068  37.128  70.750  1.00  0.00     0.049 C 
HETATM   26  C   UNL     1       7.194  35.621  68.949  1.00  0.00     0.037 A 
BRANCH  23  27
HETATM   27  C   UNL     1       6.743  35.289  72.717  1.00  0.00     0.156 C 
HETATM   28  C   UNL     1       7.796  34.591  73.540  1.00  0.00     0.097 C 
HETATM   29  O   UNL     1       5.921  36.035  73.242  1.00  0.00    -0.293 OA
ENDBRANCH  23  27
ENDBRANCH   1  20
TORSDOF 6
ENDMDL
MODEL 7
REMARK VINA RESULT:      -9.0      3.210      4.835
REMARK  6 active torsions:
REMARK  status: ('A' for Active; 'I' for Inactive)
REMARK    1  A    between atoms: C_3  and  C_4 
REMARK    2  A    between atoms: C_9  and  N_10 
REMARK       I    between atoms: N_10  and  C_11 
REMARK       I    between atoms: C_11  and  N_12 
REMARK    3  A    between atoms: N_12  and  C_13 
REMARK    4  A    between atoms: C_13  and  C_14 
REMARK    5  A    between atoms: C_14  and  C_15 
REMARK    6  A    between atoms: C_18  and  N_19 
ROOT
HETATM    1  N   UNL     1       6.206  28.755  55.361  1.00  0.00    -0.309 N 
HETATM    2  C   UNL     1       4.988  28.134  55.381  1.00  0.00     0.320 C 
HETATM    3  N   UNL     1       4.594  27.565  54.206  1.00  0.00    -0.343 N 
HETATM    4  O   UNL     1       4.240  28.025  56.347  1.00  0.00    -0.247 OA
HETATM    5  H   UNL     1       6.734  28.673  54.508  1.00  0.00     0.170 HD
HETATM    6  H   UNL     1       3.711  27.074  54.298  1.00  0.00     0.164 HD
ENDROOT
BRANCH   3   7
HETATM    7  C   UNL     1       5.267  27.489  52.919  1.00  0.00     0.129 C 
BRANCH   7   8
HETATM    8  C   UNL     1       6.783  27.292  53.028  1.00  0.00     0.058 C 
BRANCH   8   9
HETATM    9  C   UNL     1       7.182  25.886  53.406  1.00  0.00    -0.057 A 
HETATM   10  C   UNL     1       7.365  25.539  54.750  1.00  0.00     0.009 A 
HETATM   11  C   UNL     1       7.715  24.233  55.102  1.00  0.00     0.032 A 
HETATM   12  C   UNL     1       7.896  23.254  54.115  1.00  0.00     0.058 A 
HETATM   13  C   UNL     1       7.728  23.601  52.768  1.00  0.00     0.032 A 
HETATM   14  C   UNL     1       7.371  24.909  52.421  1.00  0.00     0.009 A 
BRANCH  12  15
HETATM   15  N   UNL     1       8.238  21.928  54.500  1.00  0.00    -0.246 N 
HETATM   16  N   UNL     1       8.512  20.976  53.566  1.00  0.00    -0.180 NA
HETATM   17  C   UNL     1       8.802  19.881  54.268  1.00  0.00     0.140 A 
HETATM   18  C   UNL     1       8.714  20.091  55.650  1.00  0.00     0.040 A 
HETATM   19  C   UNL     1       8.350  21.411  55.775  1.00  0.00     0.120 A 
ENDBRANCH  12  15
ENDBRANCH   8   9
ENDBRANCH   7   8
ENDBRANCH   3   7
BRANCH   1  20
HETATM   20  C   UNL     1       6.852  29.428  56.417  1.00  0.00     0.036 A 
HETATM   21  C   UNL     1       6.190  30.184  57.381  1.00  0.00     0.030 A 
HETATM   22  C   UNL     1       6.910  30.832  58.390  1.00  0.00     0.018 A 
HETATM   23  C   UNL     1       8.306  30.723  58.461  1.00  0.00     0.015 A 
HETATM   24  C   UNL     1       8.990  29.953  57.501  1.00  0.00    -0.046 A 
HETATM   25  C   UNL     1      10.485  29.779  57.516  1.00  0.00     0.049 C 
HETATM   26  C   UNL     1       8.249  29.328  56.479  1.00  0.00     0.037 A 
BRANCH  23  27
HETATM   27  C   UNL     1       9.035  31.451  59.543  1.00  0.00     0.156 C 
HETATM   28  C   UNL     1       9.218  30.763  60.872  1.00  0.00     0.097 C 
HETATM   29  O   UNL     1       9.449  32.592  59.359  1.00  0.00    -0.293 OA
ENDBRANCH  23  27
ENDBRANCH   1  20
TORSDOF 6
ENDMDL
MODEL 8
REMARK VINA RESULT:      -8.9      2.682      3.404
REMARK  6 active torsions:
REMARK  status: ('A' for Active; 'I' for Inactive)
REMARK    1  A    between atoms: C_3  and  C_4 
REMARK    2  A    between atoms: C_9  and  N_10 
REMARK       I    between atoms: N_10  and  C_11 
REMARK       I    between atoms: C_11  and  N_12 
REMARK    3  A    between atoms: N_12  and  C_13 
REMARK    4  A    between atoms: C_13  and  C_14 
REMARK    5  A    between atoms: C_14  and  C_15 
REMARK    6  A    between atoms: C_18  and  N_19 
ROOT
HETATM    1  N   UNL     1       6.950  31.533  60.632  1.00  0.00    -0.309 N 
HETATM    2  C   UNL     1       6.934  31.848  59.302  1.00  0.00     0.320 C 
HETATM    3  N   UNL     1       7.674  31.038  58.492  1.00  0.00    -0.343 N 
HETATM    4  O   UNL     1       6.309  32.763  58.776  1.00  0.00    -0.247 OA
HETATM    5  H   UNL     1       7.442  30.693  60.885  1.00  0.00     0.170 HD
HETATM    6  H   UNL     1       7.579  31.287  57.514  1.00  0.00     0.164 HD
ENDROOT
BRANCH   3   7
HETATM    7  C   UNL     1       8.477  29.865  58.805  1.00  0.00     0.129 C 
BRANCH   7   8
HETATM    8  C   UNL     1       9.329  29.372  57.631  1.00  0.00     0.058 C 
BRANCH   8   9
HETATM    9  C   UNL     1       8.559  28.537  56.636  1.00  0.00    -0.057 A 
HETATM   10  C   UNL     1       8.492  28.920  55.292  1.00  0.00     0.009 A 
HETATM   11  C   UNL     1       7.795  28.138  54.367  1.00  0.00     0.032 A 
HETATM   12  C   UNL     1       7.146  26.963  54.775  1.00  0.00     0.058 A 
HETATM   13  C   UNL     1       7.199  26.585  56.122  1.00  0.00     0.032 A 
HETATM   14  C   UNL     1       7.904  27.368  57.043  1.00  0.00     0.009 A 
BRANCH  12  15
HETATM   15  N   UNL     1       6.457  26.176  53.811  1.00  0.00    -0.246 N 
HETATM   16  N   UNL     1       6.799  26.221  52.495  1.00  0.00    -0.180 NA
HETATM   17  C   UNL     1       5.973  25.362  51.897  1.00  0.00     0.140 A 
HETATM   18  C   UNL     1       5.085  24.758  52.796  1.00  0.00     0.040 A 
HETATM   19  C   UNL     1       5.412  25.295  54.017  1.00  0.00     0.120 A 
ENDBRANCH  12  15
ENDBRANCH   8   9
ENDBRANCH   7   8
ENDBRANCH   3   7
BRANCH   1  20
HETATM   20  C   UNL     1       6.292  32.196  61.686  1.00  0.00     0.036 A 
HETATM   21  C   UNL     1       4.927  32.467  61.706  1.00  0.00     0.030 A 
HETATM   22  C   UNL     1       4.354  33.144  62.788  1.00  0.00     0.018 A 
HETATM   23  C   UNL     1       5.137  33.549  63.878  1.00  0.00     0.015 A 
HETATM   24  C   UNL     1       6.517  33.273  63.880  1.00  0.00    -0.046 A 
HETATM   25  C   UNL     1       7.423  33.667  65.017  1.00  0.00     0.049 C 
HETATM   26  C   UNL     1       7.079  32.613  62.770  1.00  0.00     0.037 A 
BRANCH  23  27
HETATM   27  C   UNL     1       4.486  34.289  65.002  1.00  0.00     0.156 C 
HETATM   28  C   UNL     1       4.325  35.782  64.878  1.00  0.00     0.097 C 
HETATM   29  O   UNL     1       4.118  33.694  66.011  1.00  0.00    -0.293 OA
ENDBRANCH  23  27
ENDBRANCH   1  20
TORSDOF 6
ENDMDL
MODEL 9
REMARK VINA RESULT:      -8.7      4.610     10.590
REMARK  6 active torsions:
REMARK  status: ('A' for Active; 'I' for Inactive)
REMARK    1  A    between atoms: C_3  and  C_4 
REMARK    2  A    between atoms: C_9  and  N_10 
REMARK       I    between atoms: N_10  and  C_11 
REMARK       I    between atoms: C_11  and  N_12 
REMARK    3  A    between atoms: N_12  and  C_13 
REMARK    4  A    between atoms: C_13  and  C_14 
REMARK    5  A    between atoms: C_14  and  C_15 
REMARK    6  A    between atoms: C_18  and  N_19 
ROOT
HETATM    1  N   UNL     1       5.886  26.898  53.233  1.00  0.00    -0.309 N 
HETATM    2  C   UNL     1       5.006  27.283  52.260  1.00  0.00     0.320 C 
HETATM    3  N   UNL     1       4.429  28.506  52.435  1.00  0.00    -0.343 N 
HETATM    4  O   UNL     1       4.709  26.651  51.252  1.00  0.00    -0.247 OA
HETATM    5  H   UNL     1       6.086  27.577  53.947  1.00  0.00     0.170 HD
HETATM    6  H   UNL     1       3.831  28.760  51.657  1.00  0.00     0.164 HD
ENDROOT
BRANCH   3   7
HETATM    7  C   UNL     1       4.607  29.495  53.487  1.00  0.00     0.129 C 
BRANCH   7   8
HETATM    8  C   UNL     1       4.167  29.005  54.871  1.00  0.00     0.058 C 
BRANCH   8   9
HETATM    9  C   UNL     1       5.058  29.486  55.992  1.00  0.00    -0.057 A 
HETATM   10  C   UNL     1       5.916  28.596  56.646  1.00  0.00     0.009 A 
HETATM   11  C   UNL     1       6.755  29.044  57.670  1.00  0.00     0.032 A 
HETATM   12  C   UNL     1       6.742  30.391  58.062  1.00  0.00     0.058 A 
HETATM   13  C   UNL     1       5.874  31.282  57.419  1.00  0.00     0.032 A 
HETATM   14  C   UNL     1       5.041  30.829  56.389  1.00  0.00     0.009 A 
BRANCH  12  15
HETATM   15  N   UNL     1       7.616  30.826  59.096  1.00  0.00    -0.246 N 
HETATM   16  N   UNL     1       8.540  29.984  59.633  1.00  0.00    -0.180 NA
HETATM   17  C   UNL     1       9.182  30.715  60.544  1.00  0.00     0.140 A 
HETATM   18  C   UNL     1       8.691  32.025  60.623  1.00  0.00     0.040 A 
HETATM   19  C   UNL     1       7.686  32.073  59.687  1.00  0.00     0.120 A 
ENDBRANCH  12  15
ENDBRANCH   8   9
ENDBRANCH   7   8
ENDBRANCH   3   7
BRANCH   1  20
HETATM   20  C   UNL     1       6.613  25.694  53.314  1.00  0.00     0.036 A 
HETATM   21  C   UNL     1       7.321  25.136  52.252  1.00  0.00     0.030 A 
HETATM   22  C   UNL     1       8.006  23.928  52.414  1.00  0.00     0.018 A 
HETATM   23  C   UNL     1       8.007  23.261  53.648  1.00  0.00     0.015 A 
HETATM   24  C   UNL     1       7.305  23.816  54.735  1.00  0.00    -0.046 A 
HETATM   25  C   UNL     1       7.266  23.167  56.092  1.00  0.00     0.049 C 
HETATM   26  C   UNL     1       6.601  25.021  54.545  1.00  0.00     0.037 A 
BRANCH  23  27
HETATM   27  C   UNL     1       8.734  21.962  53.768  1.00  0.00     0.156 C 
HETATM   28  C   UNL     1       8.124  20.738  53.134  1.00  0.00     0.097 C 
HETATM   29  O   UNL     1       9.789  21.892  54.393  1.00  0.00    -0.293 OA
ENDBRANCH  23  27
ENDBRANCH   1  20
TORSDOF 6
ENDMDL
MODEL 10
REMARK VINA RESULT:      -8.7      5.533      9.192
REMARK  6 active torsions:
REMARK  status: ('A' for Active; 'I' for Inactive)
REMARK    1  A    between atoms: C_3  and  C_4 
REMARK    2  A    between atoms: C_9  and  N_10 
REMARK       I    between atoms: N_10  and  C_11 
REMARK       I    between atoms: C_11  and  N_12 
REMARK    3  A    between atoms: N_12  and  C_13 
REMARK    4  A    between atoms: C_13  and  C_14 
REMARK    5  A    between atoms: C_14  and  C_15 
REMARK    6  A    between atoms: C_18  and  N_19 
ROOT
HETATM    1  N   UNL     1       6.223  28.535  53.840  1.00  0.00    -0.309 N 
HETATM    2  C   UNL     1       5.585  29.106  54.905  1.00  0.00     0.320 C 
HETATM    3  N   UNL     1       6.219  28.991  56.107  1.00  0.00    -0.343 N 
HETATM    4  O   UNL     1       4.524  29.721  54.877  1.00  0.00    -0.247 OA
HETATM    5  H   UNL     1       7.134  28.148  54.021  1.00  0.00     0.170 HD
HETATM    6  H   UNL     1       5.727  29.480  56.846  1.00  0.00     0.164 HD
ENDROOT
BRANCH   3   7
HETATM    7  C   UNL     1       7.488  28.369  56.451  1.00  0.00     0.129 C 
BRANCH   7   8
HETATM    8  C   UNL     1       7.346  27.148  57.367  1.00  0.00     0.058 C 
BRANCH   8   9
HETATM    9  C   UNL     1       7.554  25.833  56.655  1.00  0.00    -0.057 A 
HETATM   10  C   UNL     1       6.734  25.473  55.580  1.00  0.00     0.009 A 
HETATM   11  C   UNL     1       6.938  24.265  54.908  1.00  0.00     0.032 A 
HETATM   12  C   UNL     1       7.960  23.393  55.307  1.00  0.00     0.058 A 
HETATM   13  C   UNL     1       8.773  23.743  56.392  1.00  0.00     0.032 A 
HETATM   14  C   UNL     1       8.570  24.957  57.057  1.00  0.00     0.009 A 
BRANCH  12  15
HETATM   15  N   UNL     1       8.158  22.176  54.597  1.00  0.00    -0.246 N 
HETATM   16  N   UNL     1       8.720  21.095  55.204  1.00  0.00    -0.180 NA
HETATM   17  C   UNL     1       8.736  20.146  54.267  1.00  0.00     0.140 A 
HETATM   18  C   UNL     1       8.201  20.586  53.049  1.00  0.00     0.040 A 
HETATM   19  C   UNL     1       7.838  21.891  53.284  1.00  0.00     0.120 A 
ENDBRANCH  12  15
ENDBRANCH   8   9
ENDBRANCH   7   8
ENDBRANCH   3   7
BRANCH   1  20
HETATM   20  C   UNL     1       5.798  28.493  52.497  1.00  0.00     0.036 A 
HETATM   21  C   UNL     1       5.716  29.610  51.669  1.00  0.00     0.030 A 
HETATM   22  C   UNL     1       5.270  29.483  50.350  1.00  0.00     0.018 A 
HETATM   23  C   UNL     1       4.911  28.231  49.830  1.00  0.00     0.015 A 
HETATM   24  C   UNL     1       4.999  27.090  50.650  1.00  0.00    -0.046 A 
HETATM   25  C   UNL     1       4.641  25.711  50.162  1.00  0.00     0.049 C 
HETATM   26  C   UNL     1       5.427  27.243  51.983  1.00  0.00     0.037 A 
BRANCH  23  27
HETATM   27  C   UNL     1       4.419  28.146  48.422  1.00  0.00     0.156 C 
HETATM   28  C   UNL     1       5.427  27.932  47.322  1.00  0.00     0.097 C 
HETATM   29  O   UNL     1       3.224  28.276  48.169  1.00  0.00    -0.293 OA
ENDBRANCH  23  27
ENDBRANCH   1  20
TORSDOF 6
ENDMDL
