MODEL 1
REMARK VINA RESULT:     -10.0      0.000      0.000
REMARK  8 active torsions:
REMARK  status: ('A' for Active; 'I' for Inactive)
REMARK    1  A    between atoms: O_2  and  C_3 
REMARK    2  A    between atoms: C_4  and  O_5 
REMARK    3  A    between atoms: C_6  and  O_7 
REMARK    4  A    between atoms: C_10  and  C_11 
REMARK    5  A    between atoms: C_11  and  N_12 
REMARK    6  A    between atoms: C_16  and  C_17 
REMARK       I    between atoms: C_17  and  N_18 
REMARK    7  A    between atoms: N_21  and  C_23 
REMARK    8  A    between atoms: C_23  and  C_24 
ROOT
HETATM    1  N   UNL     1       7.767  27.336  56.921  1.00  0.00    -0.067 N 
HETATM    2  H   UNL     1       7.413  27.295  55.955  1.00  0.00     0.280 HD
HETATM    3  C   UNL     1       6.694  27.961  57.774  1.00  0.00     0.236 C 
HETATM    4  C   UNL     1       6.452  29.412  57.359  1.00  0.00     0.042 C 
HETATM    5  C   UNL     1       7.728  30.254  57.419  1.00  0.00     0.081 C 
HETATM    6  C   UNL     1       8.827  29.579  56.584  1.00  0.00     0.042 C 
HETATM    7  C   UNL     1       9.062  28.110  56.910  1.00  0.00     0.236 C 
ENDROOT
BRANCH   5   8
HETATM    8  C   UNL     1       8.143  30.435  58.883  1.00  0.00     0.224 C 
HETATM    9  N   UNL     1       7.313  31.148  59.751  1.00  0.00    -0.349 N 
HETATM   10  C   UNL     1       7.779  31.220  61.145  1.00  0.00     0.153 C 
HETATM   11  C   UNL     1       6.489  32.284  59.306  1.00  0.00     0.153 C 
HETATM   12  C   UNL     1       6.672  31.569  62.146  1.00  0.00     0.255 C 
HETATM   13  N   UNL     1       5.965  32.848  61.722  1.00  0.00    -0.064 N 
HETATM   14  H   UNL     1       6.667  33.600  61.729  1.00  0.00     0.280 HD
HETATM   15  C   UNL     1       5.405  32.711  60.318  1.00  0.00     0.255 C 
HETATM   16  O   UNL     1       9.125  29.824  59.310  1.00  0.00    -0.273 OA
BRANCH  13  17
HETATM   17  C   UNL     1       4.880  33.279  62.696  1.00  0.00     0.273 C 
BRANCH  17  18
HETATM   18  C   UNL     1       5.396  33.606  64.072  1.00  0.00    -0.030 A 
HETATM   19  C   UNL     1       4.497  33.694  65.151  1.00  0.00     0.048 A 
HETATM   20  C   UNL     1       5.009  33.940  66.407  1.00  0.00     0.105 A 
HETATM   21  C   UNL     1       6.354  34.105  66.623  1.00  0.00     0.105 A 
HETATM   22  O   UNL     1       4.282  34.033  67.550  1.00  0.00    -0.323 OA
HETATM   23  O   UNL     1       6.643  34.330  67.930  1.00  0.00    -0.323 OA
HETATM   24  C   UNL     1       7.264  34.037  65.592  1.00  0.00     0.040 A 
HETATM   25  C   UNL     1       5.322  34.323  68.514  1.00  0.00     0.352 A 
HETATM   26  C   UNL     1       6.780  33.784  64.304  1.00  0.00     0.012 A 
ENDBRANCH  17  18
ENDBRANCH  13  17
ENDBRANCH   5   8
BRANCH   1  27
HETATM   27  C   UNL     1       8.051  25.891  57.322  1.00  0.00     0.273 C 
BRANCH  27  28
HETATM   28  C   UNL     1       7.915  24.911  56.190  1.00  0.00    -0.027 A 
HETATM   29  C   UNL     1       8.613  23.697  56.230  1.00  0.00     0.048 A 
HETATM   30  C   UNL     1       8.509  22.798  55.173  1.00  0.00     0.104 A 
HETATM   31  C   UNL     1       7.735  23.116  54.057  1.00  0.00     0.133 A 
HETATM   32  C   UNL     1       7.028  24.321  53.995  1.00  0.00     0.104 A 
HETATM   33  C   UNL     1       7.117  25.213  55.067  1.00  0.00     0.048 A 
BRANCH  30  34
HETATM   34  O   UNL     1       9.245  21.648  55.225  1.00  0.00    -0.353 OA
HETATM   35  C   UNL     1       8.621  20.698  56.090  1.00  0.00     0.210 C 
ENDBRANCH  30  34
BRANCH  31  36
HETATM   36  O   UNL     1       7.666  22.232  53.012  1.00  0.00    -0.356 OA
HETATM   37  H   UNL     1       7.470  21.358  53.403  1.00  0.00     0.218 HD
ENDBRANCH  31  36
BRANCH  32  38
HETATM   38  O   UNL     1       6.313  24.514  52.843  1.00  0.00    -0.353 OA
HETATM   39  C   UNL     1       4.919  24.767  52.967  1.00  0.00     0.210 C 
ENDBRANCH  32  38
ENDBRANCH  27  28
ENDBRANCH   1  27
TORSDOF 8
ENDMDL
MODEL 2
REMARK VINA RESULT:      -9.9      0.373      2.073
REMARK  8 active torsions:
REMARK  status: ('A' for Active; 'I' for Inactive)
REMARK    1  A    between atoms: O_2  and  C_3 
REMARK    2  A    between atoms: C_4  and  O_5 
REMARK    3  A    between atoms: C_6  and  O_7 
REMARK    4  A    between atoms: C_10  and  C_11 
REMARK    5  A    between atoms: C_11  and  N_12 
REMARK    6  A    between atoms: C_16  and  C_17 
REMARK       I    between atoms: C_17  and  N_18 
REMARK    7  A    between atoms: N_21  and  C_23 
REMARK    8  A    between atoms: C_23  and  C_24 
ROOT
HETATM    1  N   UNL     1       7.580  27.308  56.903  1.00  0.00    -0.067 N 
HETATM    2  H   UNL     1       7.219  27.263  55.940  1.00  0.00     0.280 HD
HETATM    3  C   UNL     1       6.542  28.002  57.747  1.00  0.00     0.236 C 
HETATM    4  C   UNL     1       6.367  29.454  57.302  1.00  0.00     0.042 C 
HETATM    5  C   UNL     1       7.682  30.234  57.338  1.00  0.00     0.081 C 
HETATM    6  C   UNL     1       8.743  29.491  56.513  1.00  0.00     0.042 C 
HETATM    7  C   UNL     1       8.910  28.019  56.869  1.00  0.00     0.236 C 
ENDROOT
BRANCH   5   8
HETATM    8  C   UNL     1       8.113  30.426  58.796  1.00  0.00     0.224 C 
HETATM    9  N   UNL     1       7.293  31.146  59.667  1.00  0.00    -0.349 N 
HETATM   10  C   UNL     1       7.774  31.229  61.056  1.00  0.00     0.153 C 
HETATM   11  C   UNL     1       6.464  32.279  59.223  1.00  0.00     0.153 C 
HETATM   12  C   UNL     1       6.678  31.585  62.066  1.00  0.00     0.255 C 
HETATM   13  N   UNL     1       5.967  32.860  61.641  1.00  0.00    -0.064 N 
HETATM   14  H   UNL     1       6.668  33.613  61.635  1.00  0.00     0.280 HD
HETATM   15  C   UNL     1       5.390  32.712  60.244  1.00  0.00     0.255 C 
HETATM   16  O   UNL     1       9.100  29.819  59.216  1.00  0.00    -0.273 OA
BRANCH  13  17
HETATM   17  C   UNL     1       4.892  33.299  62.624  1.00  0.00     0.273 C 
BRANCH  17  18
HETATM   18  C   UNL     1       5.419  33.608  63.999  1.00  0.00    -0.030 A 
HETATM   19  C   UNL     1       4.528  33.699  65.084  1.00  0.00     0.048 A 
HETATM   20  C   UNL     1       5.049  33.928  66.339  1.00  0.00     0.105 A 
HETATM   21  C   UNL     1       6.397  34.076  66.549  1.00  0.00     0.105 A 
HETATM   22  O   UNL     1       4.329  34.022  67.487  1.00  0.00    -0.323 OA
HETATM   23  O   UNL     1       6.695  34.287  67.856  1.00  0.00    -0.323 OA
HETATM   24  C   UNL     1       7.301  34.005  65.512  1.00  0.00     0.040 A 
HETATM   25  C   UNL     1       5.377  34.291  68.447  1.00  0.00     0.352 A 
HETATM   26  C   UNL     1       6.807  33.768  64.225  1.00  0.00     0.012 A 
ENDBRANCH  17  18
ENDBRANCH  13  17
ENDBRANCH   5   8
BRANCH   1  27
HETATM   27  C   UNL     1       7.797  25.860  57.333  1.00  0.00     0.273 C 
BRANCH  27  28
HETATM   28  C   UNL     1       7.852  24.890  56.186  1.00  0.00    -0.027 A 
HETATM   29  C   UNL     1       7.018  25.073  55.075  1.00  0.00     0.048 A 
HETATM   30  C   UNL     1       7.049  24.164  54.023  1.00  0.00     0.104 A 
HETATM   31  C   UNL     1       7.885  23.050  54.084  1.00  0.00     0.133 A 
HETATM   32  C   UNL     1       8.728  22.846  55.182  1.00  0.00     0.104 A 
HETATM   33  C   UNL     1       8.712  23.773  56.228  1.00  0.00     0.048 A 
BRANCH  30  34
HETATM   34  O   UNL     1       6.184  24.349  52.981  1.00  0.00    -0.353 OA
HETATM   35  C   UNL     1       6.631  25.421  52.149  1.00  0.00     0.210 C 
ENDBRANCH  30  34
BRANCH  31  36
HETATM   36  O   UNL     1       7.883  22.149  53.052  1.00  0.00    -0.356 OA
HETATM   37  H   UNL     1       7.609  21.293  53.435  1.00  0.00     0.218 HD
ENDBRANCH  31  36
BRANCH  32  38
HETATM   38  O   UNL     1       9.494  21.712  55.121  1.00  0.00    -0.353 OA
HETATM   39  C   UNL     1       9.156  20.641  55.993  1.00  0.00     0.210 C 
ENDBRANCH  32  38
ENDBRANCH  27  28
ENDBRANCH   1  27
TORSDOF 8
ENDMDL
MODEL 3
REMARK VINA RESULT:      -9.6      2.805     12.303
REMARK  8 active torsions:
REMARK  status: ('A' for Active; 'I' for Inactive)
REMARK    1  A    between atoms: O_2  and  C_3 
REMARK    2  A    between atoms: C_4  and  O_5 
REMARK    3  A    between atoms: C_6  and  O_7 
REMARK    4  A    between atoms: C_10  and  C_11 
REMARK    5  A    between atoms: C_11  and  N_12 
REMARK    6  A    between atoms: C_16  and  C_17 
REMARK       I    between atoms: C_17  and  N_18 
REMARK    7  A    between atoms: N_21  and  C_23 
REMARK    8  A    between atoms: C_23  and  C_24 
ROOT
HETATM    1  N   UNL     1       4.107  32.832  58.289  1.00  0.00    -0.067 N 
HETATM    2  H   UNL     1       3.142  33.171  58.170  1.00  0.00     0.280 HD
HETATM    3  C   UNL     1       4.801  32.956  56.957  1.00  0.00     0.236 C 
HETATM    4  C   UNL     1       4.160  32.027  55.926  1.00  0.00     0.042 C 
HETATM    5  C   UNL     1       4.155  30.567  56.383  1.00  0.00     0.081 C 
HETATM    6  C   UNL     1       3.486  30.464  57.762  1.00  0.00     0.042 C 
HETATM    7  C   UNL     1       4.043  31.418  58.812  1.00  0.00     0.236 C 
ENDROOT
BRANCH   5   8
HETATM    8  C   UNL     1       5.593  30.039  56.395  1.00  0.00     0.224 C 
HETATM    9  N   UNL     1       5.926  28.932  55.614  1.00  0.00    -0.349 N 
HETATM   10  C   UNL     1       7.344  28.537  55.659  1.00  0.00     0.153 C 
HETATM   11  C   UNL     1       4.980  27.837  55.343  1.00  0.00     0.153 C 
HETATM   12  C   UNL     1       7.778  27.665  54.475  1.00  0.00     0.255 C 
HETATM   13  N   UNL     1       6.861  26.458  54.349  1.00  0.00    -0.064 N 
HETATM   14  H   UNL     1       6.957  25.911  55.215  1.00  0.00     0.280 HD
HETATM   15  C   UNL     1       5.415  26.896  54.200  1.00  0.00     0.255 C 
HETATM   16  O   UNL     1       6.466  30.687  56.977  1.00  0.00    -0.273 OA
BRANCH  13  17
HETATM   17  C   UNL     1       7.261  25.523  53.217  1.00  0.00     0.273 C 
BRANCH  17  18
HETATM   18  C   UNL     1       7.606  24.132  53.675  1.00  0.00    -0.030 A 
HETATM   19  C   UNL     1       7.832  23.883  55.042  1.00  0.00     0.048 A 
HETATM   20  C   UNL     1       8.091  22.588  55.436  1.00  0.00     0.105 A 
HETATM   21  C   UNL     1       8.141  21.553  54.536  1.00  0.00     0.105 A 
HETATM   22  O   UNL     1       8.308  22.180  56.712  1.00  0.00    -0.323 OA
HETATM   23  O   UNL     1       8.403  20.363  55.133  1.00  0.00    -0.323 OA
HETATM   24  C   UNL     1       7.937  21.757  53.189  1.00  0.00     0.040 A 
HETATM   25  C   UNL     1       8.547  20.767  56.512  1.00  0.00     0.352 A 
HETATM   26  C   UNL     1       7.666  23.059  52.755  1.00  0.00     0.012 A 
ENDBRANCH  17  18
ENDBRANCH  13  17
ENDBRANCH   5   8
BRANCH   1  27
HETATM   27  C   UNL     1       4.735  33.730  59.351  1.00  0.00     0.273 C 
BRANCH  27  28
HETATM   28  C   UNL     1       3.926  33.830  60.614  1.00  0.00    -0.027 A 
HETATM   29  C   UNL     1       4.495  33.456  61.839  1.00  0.00     0.048 A 
HETATM   30  C   UNL     1       3.741  33.525  63.006  1.00  0.00     0.104 A 
HETATM   31  C   UNL     1       2.410  33.936  62.958  1.00  0.00     0.133 A 
HETATM   32  C   UNL     1       1.821  34.316  61.748  1.00  0.00     0.104 A 
HETATM   33  C   UNL     1       2.586  34.267  60.579  1.00  0.00     0.048 A 
BRANCH  30  34
HETATM   34  O   UNL     1       4.314  33.102  64.173  1.00  0.00    -0.353 OA
HETATM   35  C   UNL     1       5.730  33.296  64.129  1.00  0.00     0.210 C 
ENDBRANCH  30  34
BRANCH  31  36
HETATM   36  O   UNL     1       1.674  33.971  64.113  1.00  0.00    -0.356 OA
HETATM   37  H   UNL     1       1.227  34.840  64.128  1.00  0.00     0.218 HD
ENDBRANCH  31  36
BRANCH  32  38
HETATM   38  O   UNL     1       0.507  34.692  61.836  1.00  0.00    -0.353 OA
HETATM   39  C   UNL     1      -0.257  34.707  60.636  1.00  0.00     0.210 C 
ENDBRANCH  32  38
ENDBRANCH  27  28
ENDBRANCH   1  27
TORSDOF 8
ENDMDL
MODEL 4
REMARK VINA RESULT:      -9.6      2.489     11.508
REMARK  8 active torsions:
REMARK  status: ('A' for Active; 'I' for Inactive)
REMARK    1  A    between atoms: O_2  and  C_3 
REMARK    2  A    between atoms: C_4  and  O_5 
REMARK    3  A    between atoms: C_6  and  O_7 
REMARK    4  A    between atoms: C_10  and  C_11 
REMARK    5  A    between atoms: C_11  and  N_12 
REMARK    6  A    between atoms: C_16  and  C_17 
REMARK       I    between atoms: C_17  and  N_18 
REMARK    7  A    between atoms: N_21  and  C_23 
REMARK    8  A    between atoms: C_23  and  C_24 
ROOT
HETATM    1  N   UNL     1       3.820  32.813  58.009  1.00  0.00    -0.067 N 
HETATM    2  H   UNL     1       2.865  33.142  57.809  1.00  0.00     0.280 HD
HETATM    3  C   UNL     1       4.636  32.991  56.755  1.00  0.00     0.236 C 
HETATM    4  C   UNL     1       4.112  32.088  55.638  1.00  0.00     0.042 C 
HETATM    5  C   UNL     1       4.089  30.614  56.046  1.00  0.00     0.081 C 
HETATM    6  C   UNL     1       3.294  30.455  57.351  1.00  0.00     0.042 C 
HETATM    7  C   UNL     1       3.731  31.382  58.479  1.00  0.00     0.236 C 
ENDROOT
BRANCH   5   8
HETATM    8  C   UNL     1       5.529  30.106  56.180  1.00  0.00     0.224 C 
HETATM    9  N   UNL     1       5.941  29.001  55.433  1.00  0.00    -0.349 N 
HETATM   10  C   UNL     1       7.356  28.627  55.597  1.00  0.00     0.153 C 
HETATM   11  C   UNL     1       5.036  27.893  55.089  1.00  0.00     0.153 C 
HETATM   12  C   UNL     1       7.899  27.759  54.457  1.00  0.00     0.255 C 
HETATM   13  N   UNL     1       7.013  26.538  54.260  1.00  0.00    -0.064 N 
HETATM   14  H   UNL     1       7.044  25.995  55.133  1.00  0.00     0.280 HD
HETATM   15  C   UNL     1       5.578  26.954  53.990  1.00  0.00     0.255 C 
HETATM   16  O   UNL     1       6.341  30.768  56.829  1.00  0.00    -0.273 OA
BRANCH  13  17
HETATM   17  C   UNL     1       7.518  25.606  53.169  1.00  0.00     0.273 C 
BRANCH  17  18
HETATM   18  C   UNL     1       7.759  24.197  53.641  1.00  0.00    -0.030 A 
HETATM   19  C   UNL     1       7.956  23.945  55.011  1.00  0.00     0.048 A 
HETATM   20  C   UNL     1       8.118  22.638  55.417  1.00  0.00     0.105 A 
HETATM   21  C   UNL     1       8.100  21.594  54.526  1.00  0.00     0.105 A 
HETATM   22  O   UNL     1       8.296  22.226  56.699  1.00  0.00    -0.323 OA
HETATM   23  O   UNL     1       8.272  20.393  55.134  1.00  0.00    -0.323 OA
HETATM   24  C   UNL     1       7.922  21.801  53.175  1.00  0.00     0.040 A 
HETATM   25  C   UNL     1       8.434  20.798  56.511  1.00  0.00     0.352 A 
HETATM   26  C   UNL     1       7.749  23.115  52.729  1.00  0.00     0.012 A 
ENDBRANCH  17  18
ENDBRANCH  13  17
ENDBRANCH   5   8
BRANCH   1  27
HETATM   27  C   UNL     1       4.327  33.684  59.154  1.00  0.00     0.273 C 
BRANCH  27  28
HETATM   28  C   UNL     1       5.200  32.950  60.133  1.00  0.00    -0.027 A 
HETATM   29  C   UNL     1       4.758  32.746  61.447  1.00  0.00     0.048 A 
HETATM   30  C   UNL     1       5.573  32.088  62.362  1.00  0.00     0.104 A 
HETATM   31  C   UNL     1       6.844  31.657  61.985  1.00  0.00     0.133 A 
HETATM   32  C   UNL     1       7.307  31.847  60.679  1.00  0.00     0.104 A 
HETATM   33  C   UNL     1       6.479  32.489  59.755  1.00  0.00     0.048 A 
BRANCH  30  34
HETATM   34  O   UNL     1       5.128  31.955  63.648  1.00  0.00    -0.353 OA
HETATM   35  C   UNL     1       5.184  33.212  64.325  1.00  0.00     0.210 C 
ENDBRANCH  30  34
BRANCH  31  36
HETATM   36  O   UNL     1       7.646  31.036  62.907  1.00  0.00    -0.356 OA
HETATM   37  H   UNL     1       7.567  31.552  63.733  1.00  0.00     0.218 HD
ENDBRANCH  31  36
BRANCH  32  38
HETATM   38  O   UNL     1       8.573  31.384  60.440  1.00  0.00    -0.353 OA
HETATM   39  C   UNL     1       8.730  30.371  59.454  1.00  0.00     0.210 C 
ENDBRANCH  32  38
ENDBRANCH  27  28
ENDBRANCH   1  27
TORSDOF 8
ENDMDL
MODEL 5
REMARK VINA RESULT:      -9.5      2.542     11.503
REMARK  8 active torsions:
REMARK  status: ('A' for Active; 'I' for Inactive)
REMARK    1  A    between atoms: O_2  and  C_3 
REMARK    2  A    between atoms: C_4  and  O_5 
REMARK    3  A    between atoms: C_6  and  O_7 
REMARK    4  A    between atoms: C_10  and  C_11 
REMARK    5  A    between atoms: C_11  and  N_12 
REMARK    6  A    between atoms: C_16  and  C_17 
REMARK       I    between atoms: C_17  and  N_18 
REMARK    7  A    between atoms: N_21  and  C_23 
REMARK    8  A    between atoms: C_23  and  C_24 
ROOT
HETATM    1  N   UNL     1       4.045  32.835  57.819  1.00  0.00    -0.067 N 
HETATM    2  H   UNL     1       3.116  33.228  57.613  1.00  0.00     0.280 HD
HETATM    3  C   UNL     1       4.854  32.887  56.549  1.00  0.00     0.236 C 
HETATM    4  C   UNL     1       4.245  31.975  55.484  1.00  0.00     0.042 C 
HETATM    5  C   UNL     1       4.114  30.529  55.965  1.00  0.00     0.081 C 
HETATM    6  C   UNL     1       3.327  30.497  57.284  1.00  0.00     0.042 C 
HETATM    7  C   UNL     1       3.851  31.440  58.360  1.00  0.00     0.236 C 
ENDROOT
BRANCH   5   8
HETATM    8  C   UNL     1       5.511  29.917  56.108  1.00  0.00     0.224 C 
HETATM    9  N   UNL     1       5.846  28.784  55.364  1.00  0.00    -0.349 N 
HETATM   10  C   UNL     1       7.228  28.307  55.538  1.00  0.00     0.153 C 
HETATM   11  C   UNL     1       4.865  27.745  55.014  1.00  0.00     0.153 C 
HETATM   12  C   UNL     1       7.713  27.401  54.401  1.00  0.00     0.255 C 
HETATM   13  N   UNL     1       6.742  26.248  54.198  1.00  0.00    -0.064 N 
HETATM   14  H   UNL     1       6.727  25.705  55.071  1.00  0.00     0.280 HD
HETATM   15  C   UNL     1       5.343  26.769  53.918  1.00  0.00     0.255 C 
HETATM   16  O   UNL     1       6.365  30.517  56.763  1.00  0.00    -0.273 OA
BRANCH  13  17
HETATM   17  C   UNL     1       7.185  25.281  53.111  1.00  0.00     0.273 C 
BRANCH  17  18
HETATM   18  C   UNL     1       7.581  23.926  53.632  1.00  0.00    -0.030 A 
HETATM   19  C   UNL     1       7.774  23.738  55.013  1.00  0.00     0.048 A 
HETATM   20  C   UNL     1       8.082  22.473  55.463  1.00  0.00     0.105 A 
HETATM   21  C   UNL     1       8.210  21.409  54.605  1.00  0.00     0.105 A 
HETATM   22  O   UNL     1       8.277  22.122  56.760  1.00  0.00    -0.323 OA
HETATM   23  O   UNL     1       8.510  20.256  55.254  1.00  0.00    -0.323 OA
HETATM   24  C   UNL     1       8.041  21.554  53.245  1.00  0.00     0.040 A 
HETATM   25  C   UNL     1       8.590  20.716  56.621  1.00  0.00     0.352 A 
HETATM   26  C   UNL     1       7.723  22.825  52.754  1.00  0.00     0.012 A 
ENDBRANCH  17  18
ENDBRANCH  13  17
ENDBRANCH   5   8
BRANCH   1  27
HETATM   27  C   UNL     1       4.635  33.718  58.914  1.00  0.00     0.273 C 
BRANCH  27  28
HETATM   28  C   UNL     1       5.399  32.956  59.961  1.00  0.00    -0.027 A 
HETATM   29  C   UNL     1       6.596  32.312  59.621  1.00  0.00     0.048 A 
HETATM   30  C   UNL     1       7.293  31.585  60.581  1.00  0.00     0.104 A 
HETATM   31  C   UNL     1       6.788  31.469  61.875  1.00  0.00     0.133 A 
HETATM   32  C   UNL     1       5.596  32.104  62.239  1.00  0.00     0.104 A 
HETATM   33  C   UNL     1       4.908  32.852  61.279  1.00  0.00     0.048 A 
BRANCH  30  34
HETATM   34  O   UNL     1       8.428  30.928  60.198  1.00  0.00    -0.353 OA
HETATM   35  C   UNL     1       9.257  31.786  59.412  1.00  0.00     0.210 C 
ENDBRANCH  30  34
BRANCH  31  36
HETATM   36  O   UNL     1       7.472  30.726  62.801  1.00  0.00    -0.356 OA
HETATM   37  H   UNL     1       8.000  30.077  62.297  1.00  0.00     0.218 HD
ENDBRANCH  31  36
BRANCH  32  38
HETATM   38  O   UNL     1       5.206  31.907  63.537  1.00  0.00    -0.353 OA
HETATM   39  C   UNL     1       5.121  33.048  64.381  1.00  0.00     0.210 C 
ENDBRANCH  32  38
ENDBRANCH  27  28
ENDBRANCH   1  27
TORSDOF 8
ENDMDL
MODEL 6
REMARK VINA RESULT:      -9.4      2.008      2.349
REMARK  8 active torsions:
REMARK  status: ('A' for Active; 'I' for Inactive)
REMARK    1  A    between atoms: O_2  and  C_3 
REMARK    2  A    between atoms: C_4  and  O_5 
REMARK    3  A    between atoms: C_6  and  O_7 
REMARK    4  A    between atoms: C_10  and  C_11 
REMARK    5  A    between atoms: C_11  and  N_12 
REMARK    6  A    between atoms: C_16  and  C_17 
REMARK       I    between atoms: C_17  and  N_18 
REMARK    7  A    between atoms: N_21  and  C_23 
REMARK    8  A    between atoms: C_23  and  C_24 
ROOT
HETATM    1  N   UNL     1       7.792  27.309  56.914  1.00  0.00    -0.067 N 
HETATM    2  H   UNL     1       7.410  27.249  55.959  1.00  0.00     0.280 HD
HETATM    3  C   UNL     1       6.750  27.965  57.782  1.00  0.00     0.236 C 
HETATM    4  C   UNL     1       6.510  29.409  57.340  1.00  0.00     0.042 C 
HETATM    5  C   UNL     1       7.796  30.238  57.344  1.00  0.00     0.081 C 
HETATM    6  C   UNL     1       8.863  29.533  56.494  1.00  0.00     0.042 C 
HETATM    7  C   UNL     1       9.094  28.069  56.848  1.00  0.00     0.236 C 
ENDROOT
BRANCH   5   8
HETATM    8  C   UNL     1       8.254  30.448  58.791  1.00  0.00     0.224 C 
HETATM    9  N   UNL     1       7.422  31.127  59.684  1.00  0.00    -0.349 N 
HETATM   10  C   UNL     1       7.934  31.231  61.060  1.00  0.00     0.153 C 
HETATM   11  C   UNL     1       6.529  32.219  59.264  1.00  0.00     0.153 C 
HETATM   12  C   UNL     1       6.848  31.533  62.099  1.00  0.00     0.255 C 
HETATM   13  N   UNL     1       6.066  32.773  61.695  1.00  0.00    -0.064 N 
HETATM   14  H   UNL     1       6.730  33.558  61.673  1.00  0.00     0.280 HD
HETATM   15  C   UNL     1       5.462  32.600  60.313  1.00  0.00     0.255 C 
HETATM   16  O   UNL     1       9.279  29.889  59.184  1.00  0.00    -0.273 OA
BRANCH  13  17
HETATM   17  C   UNL     1       4.997  33.158  62.706  1.00  0.00     0.273 C 
BRANCH  17  18
HETATM   18  C   UNL     1       5.135  34.564  63.226  1.00  0.00    -0.030 A 
HETATM   19  C   UNL     1       5.780  35.538  62.442  1.00  0.00     0.048 A 
HETATM   20  C   UNL     1       5.840  36.828  62.923  1.00  0.00     0.105 A 
HETATM   21  C   UNL     1       5.299  37.176  64.136  1.00  0.00     0.105 A 
HETATM   22  O   UNL     1       6.407  37.883  62.283  1.00  0.00    -0.323 OA
HETATM   23  O   UNL     1       5.463  38.494  64.414  1.00  0.00    -0.323 OA
HETATM   24  C   UNL     1       4.669  36.250  64.937  1.00  0.00     0.040 A 
HETATM   25  C   UNL     1       6.201  38.936  63.254  1.00  0.00     0.352 A 
HETATM   26  C   UNL     1       4.585  34.931  64.477  1.00  0.00     0.012 A 
ENDBRANCH  17  18
ENDBRANCH  13  17
ENDBRANCH   5   8
BRANCH   1  27
HETATM   27  C   UNL     1       8.073  25.871  57.340  1.00  0.00     0.273 C 
BRANCH  27  28
HETATM   28  C   UNL     1       7.930  24.871  56.227  1.00  0.00    -0.027 A 
HETATM   29  C   UNL     1       8.705  23.704  56.232  1.00  0.00     0.048 A 
HETATM   30  C   UNL     1       8.593  22.788  55.192  1.00  0.00     0.104 A 
HETATM   31  C   UNL     1       7.733  23.041  54.124  1.00  0.00     0.133 A 
HETATM   32  C   UNL     1       6.947  24.199  54.097  1.00  0.00     0.104 A 
HETATM   33  C   UNL     1       7.045  25.108  55.154  1.00  0.00     0.048 A 
BRANCH  30  34
HETATM   34  O   UNL     1       9.404  21.688  55.207  1.00  0.00    -0.353 OA
HETATM   35  C   UNL     1       8.898  20.710  56.118  1.00  0.00     0.210 C 
ENDBRANCH  30  34
BRANCH  31  36
HETATM   36  O   UNL     1       7.655  22.143  53.094  1.00  0.00    -0.356 OA
HETATM   37  H   UNL     1       7.074  21.420  53.402  1.00  0.00     0.218 HD
ENDBRANCH  31  36
BRANCH  32  38
HETATM   38  O   UNL     1       6.150  24.332  52.992  1.00  0.00    -0.353 OA
HETATM   39  C   UNL     1       4.854  24.888  53.176  1.00  0.00     0.210 C 
ENDBRANCH  32  38
ENDBRANCH  27  28
ENDBRANCH   1  27
TORSDOF 8
ENDMDL
MODEL 7
REMARK VINA RESULT:      -9.1      3.635      5.649
REMARK  8 active torsions:
REMARK  status: ('A' for Active; 'I' for Inactive)
REMARK    1  A    between atoms: O_2  and  C_3 
REMARK    2  A    between atoms: C_4  and  O_5 
REMARK    3  A    between atoms: C_6  and  O_7 
REMARK    4  A    between atoms: C_10  and  C_11 
REMARK    5  A    between atoms: C_11  and  N_12 
REMARK    6  A    between atoms: C_16  and  C_17 
REMARK       I    between atoms: C_17  and  N_18 
REMARK    7  A    between atoms: N_21  and  C_23 
REMARK    8  A    between atoms: C_23  and  C_24 
ROOT
HETATM    1  N   UNL     1       6.096  26.592  53.094  1.00  0.00    -0.067 N 
HETATM    2  H   UNL     1       6.838  26.113  52.565  1.00  0.00     0.280 HD
HETATM    3  C   UNL     1       6.509  28.032  53.257  1.00  0.00     0.236 C 
HETATM    4  C   UNL     1       7.767  28.138  54.119  1.00  0.00     0.042 C 
HETATM    5  C   UNL     1       7.588  27.484  55.490  1.00  0.00     0.081 C 
HETATM    6  C   UNL     1       7.122  26.032  55.308  1.00  0.00     0.042 C 
HETATM    7  C   UNL     1       5.910  25.862  54.401  1.00  0.00     0.236 C 
ENDROOT
BRANCH   5   8
HETATM    8  C   UNL     1       6.598  28.311  56.317  1.00  0.00     0.224 C 
HETATM    9  N   UNL     1       7.080  29.267  57.213  1.00  0.00    -0.349 N 
HETATM   10  C   UNL     1       6.045  30.040  57.920  1.00  0.00     0.153 C 
HETATM   11  C   UNL     1       8.347  29.103  57.944  1.00  0.00     0.153 C 
HETATM   12  C   UNL     1       6.558  31.360  58.508  1.00  0.00     0.255 C 
HETATM   13  N   UNL     1       7.770  31.105  59.390  1.00  0.00    -0.064 N 
HETATM   14  H   UNL     1       7.464  30.496  60.161  1.00  0.00     0.280 HD
HETATM   15  C   UNL     1       8.863  30.397  58.609  1.00  0.00     0.255 C 
HETATM   16  O   UNL     1       5.393  28.226  56.073  1.00  0.00    -0.273 OA
BRANCH  13  17
HETATM   17  C   UNL     1       8.307  32.369  60.044  1.00  0.00     0.273 C 
BRANCH  17  18
HETATM   18  C   UNL     1       7.709  32.652  61.396  1.00  0.00    -0.030 A 
HETATM   19  C   UNL     1       6.401  33.163  61.486  1.00  0.00     0.048 A 
HETATM   20  C   UNL     1       5.862  33.359  62.739  1.00  0.00     0.105 A 
HETATM   21  C   UNL     1       6.565  33.078  63.883  1.00  0.00     0.105 A 
HETATM   22  O   UNL     1       4.612  33.823  62.996  1.00  0.00    -0.323 OA
HETATM   23  O   UNL     1       5.848  33.336  65.006  1.00  0.00    -0.323 OA
HETATM   24  C   UNL     1       7.852  32.587  63.837  1.00  0.00     0.040 A 
HETATM   25  C   UNL     1       4.620  33.847  64.443  1.00  0.00     0.352 A 
HETATM   26  C   UNL     1       8.428  32.371  62.581  1.00  0.00     0.012 A 
ENDBRANCH  17  18
ENDBRANCH  13  17
ENDBRANCH   5   8
BRANCH   1  27
HETATM   27  C   UNL     1       4.829  26.448  52.256  1.00  0.00     0.273 C 
BRANCH  27  28
HETATM   28  C   UNL     1       4.960  26.997  50.863  1.00  0.00    -0.027 A 
HETATM   29  C   UNL     1       5.447  28.296  50.666  1.00  0.00     0.048 A 
HETATM   30  C   UNL     1       5.546  28.816  49.380  1.00  0.00     0.104 A 
HETATM   31  C   UNL     1       5.132  28.060  48.284  1.00  0.00     0.133 A 
HETATM   32  C   UNL     1       4.643  26.760  48.455  1.00  0.00     0.104 A 
HETATM   33  C   UNL     1       4.565  26.231  49.746  1.00  0.00     0.048 A 
BRANCH  30  34
HETATM   34  O   UNL     1       5.976  30.105  49.233  1.00  0.00    -0.353 OA
HETATM   35  C   UNL     1       5.325  30.956  50.178  1.00  0.00     0.210 C 
ENDBRANCH  30  34
BRANCH  31  36
HETATM   36  O   UNL     1       5.209  28.597  47.027  1.00  0.00    -0.356 OA
HETATM   37  H   UNL     1       4.428  28.270  46.539  1.00  0.00     0.218 HD
ENDBRANCH  31  36
BRANCH  32  38
HETATM   38  O   UNL     1       4.265  26.127  47.301  1.00  0.00    -0.353 OA
HETATM   39  C   UNL     1       3.063  25.368  47.329  1.00  0.00     0.210 C 
ENDBRANCH  32  38
ENDBRANCH  27  28
ENDBRANCH   1  27
TORSDOF 8
ENDMDL
MODEL 8
REMARK VINA RESULT:      -9.1      8.943     13.261
REMARK  8 active torsions:
REMARK  status: ('A' for Active; 'I' for Inactive)
REMARK    1  A    between atoms: O_2  and  C_3 
REMARK    2  A    between atoms: C_4  and  O_5 
REMARK    3  A    between atoms: C_6  and  O_7 
REMARK    4  A    between atoms: C_10  and  C_11 
REMARK    5  A    between atoms: C_11  and  N_12 
REMARK    6  A    between atoms: C_16  and  C_17 
REMARK       I    between atoms: C_17  and  N_18 
REMARK    7  A    between atoms: N_21  and  C_23 
REMARK    8  A    between atoms: C_23  and  C_24 
ROOT
HETATM    1  N   UNL     1       4.559  30.989  48.308  1.00  0.00    -0.067 N 
HETATM    2  H   UNL     1       4.734  30.896  47.297  1.00  0.00     0.280 HD
HETATM    3  C   UNL     1       5.578  30.145  49.028  1.00  0.00     0.236 C 
HETATM    4  C   UNL     1       5.374  28.664  48.708  1.00  0.00     0.042 C 
HETATM    5  C   UNL     1       3.961  28.186  49.046  1.00  0.00     0.081 C 
HETATM    6  C   UNL     1       2.934  29.085  48.343  1.00  0.00     0.042 C 
HETATM    7  C   UNL     1       3.131  30.579  48.573  1.00  0.00     0.236 C 
ENDROOT
BRANCH   5   8
HETATM    8  C   UNL     1       3.782  28.182  50.568  1.00  0.00     0.224 C 
HETATM    9  N   UNL     1       4.707  27.509  51.368  1.00  0.00    -0.349 N 
HETATM   10  C   UNL     1       4.472  27.610  52.818  1.00  0.00     0.153 C 
HETATM   11  C   UNL     1       5.393  26.283  50.928  1.00  0.00     0.153 C 
HETATM   12  C   UNL     1       5.709  27.293  53.665  1.00  0.00     0.255 C 
HETATM   13  N   UNL     1       6.276  25.936  53.280  1.00  0.00    -0.064 N 
HETATM   14  H   UNL     1       5.551  25.235  53.480  1.00  0.00     0.280 HD
HETATM   15  C   UNL     1       6.607  25.893  51.799  1.00  0.00     0.255 C 
HETATM   16  O   UNL     1       2.913  28.895  51.072  1.00  0.00    -0.273 OA
BRANCH  13  17
HETATM   17  C   UNL     1       7.484  25.537  54.114  1.00  0.00     0.273 C 
BRANCH  17  18
HETATM   18  C   UNL     1       7.729  24.052  54.153  1.00  0.00    -0.030 A 
HETATM   19  C   UNL     1       7.814  23.392  55.393  1.00  0.00     0.048 A 
HETATM   20  C   UNL     1       7.982  22.025  55.394  1.00  0.00     0.105 A 
HETATM   21  C   UNL     1       8.076  21.305  54.229  1.00  0.00     0.105 A 
HETATM   22  O   UNL     1       8.062  21.240  56.500  1.00  0.00    -0.323 OA
HETATM   23  O   UNL     1       8.232  19.975  54.455  1.00  0.00    -0.323 OA
HETATM   24  C   UNL     1       8.009  21.915  52.996  1.00  0.00     0.040 A 
HETATM   25  C   UNL     1       8.262  19.939  55.899  1.00  0.00     0.352 A 
HETATM   26  C   UNL     1       7.832  23.302  52.958  1.00  0.00     0.012 A 
ENDBRANCH  17  18
ENDBRANCH  13  17
ENDBRANCH   5   8
BRANCH   1  27
HETATM   27  C   UNL     1       4.717  32.475  48.621  1.00  0.00     0.273 C 
BRANCH  27  28
HETATM   28  C   UNL     1       5.817  33.143  47.844  1.00  0.00    -0.027 A 
HETATM   29  C   UNL     1       6.733  33.973  48.503  1.00  0.00     0.048 A 
HETATM   30  C   UNL     1       7.738  34.612  47.784  1.00  0.00     0.104 A 
HETATM   31  C   UNL     1       7.817  34.456  46.401  1.00  0.00     0.133 A 
HETATM   32  C   UNL     1       6.915  33.631  45.720  1.00  0.00     0.104 A 
HETATM   33  C   UNL     1       5.920  32.972  46.448  1.00  0.00     0.048 A 
BRANCH  30  34
HETATM   34  O   UNL     1       8.579  35.455  48.455  1.00  0.00    -0.353 OA
HETATM   35  C   UNL     1       7.850  36.230  49.408  1.00  0.00     0.210 C 
ENDBRANCH  30  34
BRANCH  31  36
HETATM   36  O   UNL     1       8.795  35.115  45.704  1.00  0.00    -0.356 OA
HETATM   37  H   UNL     1       9.477  35.366  46.357  1.00  0.00     0.218 HD
ENDBRANCH  31  36
BRANCH  32  38
HETATM   38  O   UNL     1       7.098  33.568  44.365  1.00  0.00    -0.353 OA
HETATM   39  C   UNL     1       6.391  34.503  43.559  1.00  0.00     0.210 C 
ENDBRANCH  32  38
ENDBRANCH  27  28
ENDBRANCH   1  27
TORSDOF 8
ENDMDL
MODEL 9
REMARK VINA RESULT:      -9.0      2.201     12.413
REMARK  8 active torsions:
REMARK  status: ('A' for Active; 'I' for Inactive)
REMARK    1  A    between atoms: O_2  and  C_3 
REMARK    2  A    between atoms: C_4  and  O_5 
REMARK    3  A    between atoms: C_6  and  O_7 
REMARK    4  A    between atoms: C_10  and  C_11 
REMARK    5  A    between atoms: C_11  and  N_12 
REMARK    6  A    between atoms: C_16  and  C_17 
REMARK       I    between atoms: C_17  and  N_18 
REMARK    7  A    between atoms: N_21  and  C_23 
REMARK    8  A    between atoms: C_23  and  C_24 
ROOT
HETATM    1  N   UNL     1       3.728  32.184  59.858  1.00  0.00    -0.067 N 
HETATM    2  H   UNL     1       3.080  32.943  59.604  1.00  0.00     0.280 HD
HETATM    3  C   UNL     1       5.131  32.691  59.648  1.00  0.00     0.236 C 
HETATM    4  C   UNL     1       5.386  32.977  58.168  1.00  0.00     0.042 C 
HETATM    5  C   UNL     1       5.133  31.751  57.289  1.00  0.00     0.081 C 
HETATM    6  C   UNL     1       3.716  31.217  57.548  1.00  0.00     0.042 C 
HETATM    7  C   UNL     1       3.385  30.979  59.017  1.00  0.00     0.236 C 
ENDROOT
BRANCH   5   8
HETATM    8  C   UNL     1       6.210  30.698  57.573  1.00  0.00     0.224 C 
HETATM    9  N   UNL     1       6.433  29.675  56.649  1.00  0.00    -0.349 N 
HETATM   10  C   UNL     1       7.522  28.747  56.993  1.00  0.00     0.153 C 
HETATM   11  C   UNL     1       5.356  29.100  55.826  1.00  0.00     0.153 C 
HETATM   12  C   UNL     1       8.058  27.957  55.794  1.00  0.00     0.255 C 
HETATM   13  N   UNL     1       6.918  27.246  55.081  1.00  0.00    -0.064 N 
HETATM   14  H   UNL     1       6.503  26.587  55.753  1.00  0.00     0.280 HD
HETATM   15  C   UNL     1       5.856  28.240  54.645  1.00  0.00     0.255 C 
HETATM   16  O   UNL     1       6.962  30.853  58.536  1.00  0.00    -0.273 OA
BRANCH  13  17
HETATM   17  C   UNL     1       7.385  26.405  53.903  1.00  0.00     0.273 C 
BRANCH  17  18
HETATM   18  C   UNL     1       7.441  24.930  54.198  1.00  0.00    -0.030 A 
HETATM   19  C   UNL     1       7.705  24.020  53.157  1.00  0.00     0.048 A 
HETATM   20  C   UNL     1       7.805  22.682  53.470  1.00  0.00     0.105 A 
HETATM   21  C   UNL     1       7.647  22.223  54.754  1.00  0.00     0.105 A 
HETATM   22  O   UNL     1       8.074  21.684  52.590  1.00  0.00    -0.323 OA
HETATM   23  O   UNL     1       7.792  20.877  54.843  1.00  0.00    -0.323 OA
HETATM   24  C   UNL     1       7.377  23.080  55.799  1.00  0.00     0.040 A 
HETATM   25  C   UNL     1       8.025  20.529  53.460  1.00  0.00     0.352 A 
HETATM   26  C   UNL     1       7.274  24.447  55.517  1.00  0.00     0.012 A 
ENDBRANCH  17  18
ENDBRANCH  13  17
ENDBRANCH   5   8
BRANCH   1  27
HETATM   27  C   UNL     1       3.443  31.867  61.323  1.00  0.00     0.273 C 
BRANCH  27  28
HETATM   28  C   UNL     1       3.985  32.892  62.281  1.00  0.00    -0.027 A 
HETATM   29  C   UNL     1       5.058  32.564  63.120  1.00  0.00     0.048 A 
HETATM   30  C   UNL     1       5.546  33.501  64.024  1.00  0.00     0.104 A 
HETATM   31  C   UNL     1       4.952  34.758  64.121  1.00  0.00     0.133 A 
HETATM   32  C   UNL     1       3.881  35.110  63.292  1.00  0.00     0.104 A 
HETATM   33  C   UNL     1       3.405  34.174  62.369  1.00  0.00     0.048 A 
BRANCH  30  34
HETATM   34  O   UNL     1       6.559  33.126  64.862  1.00  0.00    -0.353 OA
HETATM   35  C   UNL     1       7.797  33.071  64.151  1.00  0.00     0.210 C 
ENDBRANCH  30  34
BRANCH  31  36
HETATM   36  O   UNL     1       5.427  35.660  65.036  1.00  0.00    -0.356 OA
HETATM   37  H   UNL     1       5.801  36.402  64.523  1.00  0.00     0.218 HD
ENDBRANCH  31  36
BRANCH  32  38
HETATM   38  O   UNL     1       3.383  36.370  63.491  1.00  0.00    -0.353 OA
HETATM   39  C   UNL     1       3.560  37.321  62.448  1.00  0.00     0.210 C 
ENDBRANCH  32  38
ENDBRANCH  27  28
ENDBRANCH   1  27
TORSDOF 8
ENDMDL
MODEL 10
REMARK VINA RESULT:      -9.0      2.756     12.436
REMARK  8 active torsions:
REMARK  status: ('A' for Active; 'I' for Inactive)
REMARK    1  A    between atoms: O_2  and  C_3 
REMARK    2  A    between atoms: C_4  and  O_5 
REMARK    3  A    between atoms: C_6  and  O_7 
REMARK    4  A    between atoms: C_10  and  C_11 
REMARK    5  A    between atoms: C_11  and  N_12 
REMARK    6  A    between atoms: C_16  and  C_17 
REMARK       I    between atoms: C_17  and  N_18 
REMARK    7  A    between atoms: N_21  and  C_23 
REMARK    8  A    between atoms: C_23  and  C_24 
ROOT
HETATM    1  N   UNL     1       4.650  31.896  58.421  1.00  0.00    -0.067 N 
HETATM    2  H   UNL     1       5.147  32.794  58.339  1.00  0.00     0.280 HD
HETATM    3  C   UNL     1       5.688  30.810  58.540  1.00  0.00     0.236 C 
HETATM    4  C   UNL     1       6.514  30.711  57.257  1.00  0.00     0.042 C 
HETATM    5  C   UNL     1       5.642  30.473  56.023  1.00  0.00     0.081 C 
HETATM    6  C   UNL     1       4.561  31.561  55.941  1.00  0.00     0.042 C 
HETATM    7  C   UNL     1       3.751  31.749  57.218  1.00  0.00     0.236 C 
ENDROOT
BRANCH   5   8
HETATM    8  C   UNL     1       5.044  29.065  56.093  1.00  0.00     0.224 C 
HETATM    9  N   UNL     1       5.879  27.973  56.340  1.00  0.00    -0.349 N 
HETATM   10  C   UNL     1       5.197  26.672  56.438  1.00  0.00     0.153 C 
HETATM   11  C   UNL     1       7.271  27.916  55.867  1.00  0.00     0.153 C 
HETATM   12  C   UNL     1       6.019  25.600  57.162  1.00  0.00     0.255 C 
HETATM   13  N   UNL     1       7.391  25.469  56.520  1.00  0.00    -0.064 N 
HETATM   14  H   UNL     1       7.245  25.172  55.546  1.00  0.00     0.280 HD
HETATM   15  C   UNL     1       8.115  26.803  56.524  1.00  0.00     0.255 C 
HETATM   16  O   UNL     1       3.819  28.931  56.079  1.00  0.00    -0.273 OA
BRANCH  13  17
HETATM   17  C   UNL     1       8.248  24.388  57.161  1.00  0.00     0.273 C 
BRANCH  17  18
HETATM   18  C   UNL     1       8.284  23.101  56.382  1.00  0.00    -0.030 A 
HETATM   19  C   UNL     1       8.229  23.136  54.976  1.00  0.00     0.048 A 
HETATM   20  C   UNL     1       8.320  21.945  54.290  1.00  0.00     0.105 A 
HETATM   21  C   UNL     1       8.453  20.742  54.939  1.00  0.00     0.105 A 
HETATM   22  O   UNL     1       8.303  21.809  52.939  1.00  0.00    -0.323 OA
HETATM   23  O   UNL     1       8.532  19.697  54.077  1.00  0.00    -0.323 OA
HETATM   24  C   UNL     1       8.500  20.665  56.313  1.00  0.00     0.040 A 
HETATM   25  C   UNL     1       8.398  20.371  52.806  1.00  0.00     0.352 A 
HETATM   26  C   UNL     1       8.415  21.857  57.041  1.00  0.00     0.012 A 
ENDBRANCH  17  18
ENDBRANCH  13  17
ENDBRANCH   5   8
BRANCH   1  27
HETATM   27  C   UNL     1       3.790  32.011  59.676  1.00  0.00     0.273 C 
BRANCH  27  28
HETATM   28  C   UNL     1       4.361  32.931  60.719  1.00  0.00    -0.027 A 
HETATM   29  C   UNL     1       4.098  34.306  60.656  1.00  0.00     0.048 A 
HETATM   30  C   UNL     1       4.644  35.163  61.606  1.00  0.00     0.104 A 
HETATM   31  C   UNL     1       5.480  34.664  62.603  1.00  0.00     0.133 A 
HETATM   32  C   UNL     1       5.756  33.295  62.688  1.00  0.00     0.104 A 
HETATM   33  C   UNL     1       5.188  32.431  61.746  1.00  0.00     0.048 A 
BRANCH  30  34
HETATM   34  O   UNL     1       4.407  36.504  61.480  1.00  0.00    -0.353 OA
HETATM   35  C   UNL     1       3.348  36.736  60.549  1.00  0.00     0.210 C 
ENDBRANCH  30  34
BRANCH  31  36
HETATM   36  O   UNL     1       6.032  35.526  63.514  1.00  0.00    -0.356 OA
HETATM   37  H   UNL     1       5.526  36.359  63.447  1.00  0.00     0.218 HD
ENDBRANCH  31  36
BRANCH  32  38
HETATM   38  O   UNL     1       6.594  32.935  63.709  1.00  0.00    -0.353 OA
HETATM   39  C   UNL     1       7.939  32.615  63.376  1.00  0.00     0.210 C 
ENDBRANCH  32  38
ENDBRANCH  27  28
ENDBRANCH   1  27
TORSDOF 8
ENDMDL
