MODEL 1
REMARK VINA RESULT:      -7.9      0.000      0.000
REMARK  6 active torsions:
REMARK  status: ('A' for Active; 'I' for Inactive)
REMARK    1  A    between atoms: C_2  and  O_3 
REMARK    2  A    between atoms: O_3  and  C_4 
REMARK    3  A    between atoms: C_4  and  C_5 
REMARK    4  A    between atoms: C_6  and  O_7 
REMARK    5  A    between atoms: C_12  and  O_13 
REMARK    6  A    between atoms: C_17  and  C_18 
ROOT
HETATM    1  C   UNL     1       5.184  26.418  54.566  1.00  0.00     0.133 C 
HETATM    2  C   UNL     1       5.355  27.979  54.443  1.00  0.00     0.073 C 
HETATM    3  C   UNL     1       4.584  28.684  55.582  1.00  0.00     0.047 C 
HETATM    4  C   UNL     1       6.840  28.433  54.469  1.00  0.00     0.097 C 
HETATM    5  C   UNL     1       7.505  27.789  55.620  1.00  0.00     0.042 A 
HETATM    6  C   UNL     1       7.210  26.538  56.111  1.00  0.00     0.030 A 
HETATM    7  C   UNL     1       8.057  26.419  57.220  1.00  0.00     0.190 A 
HETATM    8  N   UNL     1       8.811  27.492  57.432  1.00  0.00    -0.149 NA
HETATM    9  N   UNL     1       8.466  28.320  56.428  1.00  0.00    -0.279 N 
HETATM   10  H   UNL     1       8.916  29.229  56.377  1.00  0.00     0.189 HD
HETATM   11  C   UNL     1       6.172  25.649  55.507  1.00  0.00     0.074 C 
ENDROOT
BRANCH  11  12
HETATM   12  C   UNL     1       6.938  24.469  54.917  1.00  0.00    -0.048 A 
HETATM   13  C   UNL     1       6.907  23.232  55.581  1.00  0.00     0.009 A 
HETATM   14  C   UNL     1       7.599  22.128  55.074  1.00  0.00     0.024 A 
HETATM   15  C   UNL     1       8.330  22.245  53.894  1.00  0.00     0.034 A 
HETATM   16 CL   UNL     1       9.177  20.885  53.270  1.00  0.00    -0.084 Cl
HETATM   17  C   UNL     1       8.368  23.456  53.212  1.00  0.00     0.024 A 
HETATM   18  C   UNL     1       7.669  24.555  53.715  1.00  0.00     0.009 A 
ENDBRANCH  11  12
BRANCH   1  19
HETATM   19  C   UNL     1       4.959  25.741  53.232  1.00  0.00     0.267 C 
HETATM   20  O   UNL     1       4.193  24.789  53.109  1.00  0.00    -0.265 OA
BRANCH  19  21
HETATM   21  O   UNL     1       5.659  26.308  52.217  1.00  0.00    -0.321 OA
BRANCH  21  22
HETATM   22  C   UNL     1       5.308  25.848  50.903  1.00  0.00     0.174 C 
HETATM   23  C   UNL     1       4.919  27.002  49.996  1.00  0.00     0.034 C 
ENDBRANCH  21  22
ENDBRANCH  19  21
ENDBRANCH   1  19
BRANCH   2  24
HETATM   24  O   UNL     1       4.775  28.478  53.228  1.00  0.00    -0.389 OA
HETATM   25  H   UNL     1       5.286  29.250  52.924  1.00  0.00     0.210 HD
ENDBRANCH   2  24
BRANCH   7  26
HETATM   26  O   UNL     1       8.213  25.400  58.069  1.00  0.00    -0.343 OA
HETATM   27  H   UNL     1       9.071  25.476  58.510  1.00  0.00     0.219 HD
ENDBRANCH   7  26
TORSDOF 6
ENDMDL
MODEL 2
REMARK VINA RESULT:      -7.8      3.285      6.161
REMARK  6 active torsions:
REMARK  status: ('A' for Active; 'I' for Inactive)
REMARK    1  A    between atoms: C_2  and  O_3 
REMARK    2  A    between atoms: O_3  and  C_4 
REMARK    3  A    between atoms: C_4  and  C_5 
REMARK    4  A    between atoms: C_6  and  O_7 
REMARK    5  A    between atoms: C_12  and  O_13 
REMARK    6  A    between atoms: C_17  and  C_18 
ROOT
HETATM    1  C   UNL     1       7.593  23.068  54.861  1.00  0.00     0.133 C 
HETATM    2  C   UNL     1       8.208  22.614  53.485  1.00  0.00     0.073 C 
HETATM    3  C   UNL     1       7.296  21.555  52.824  1.00  0.00     0.047 C 
HETATM    4  C   UNL     1       8.428  23.792  52.497  1.00  0.00     0.097 C 
HETATM    5  C   UNL     1       7.182  24.583  52.430  1.00  0.00     0.042 A 
HETATM    6  C   UNL     1       6.305  24.777  53.472  1.00  0.00     0.030 A 
HETATM    7  C   UNL     1       5.275  25.528  52.891  1.00  0.00     0.190 A 
HETATM    8  N   UNL     1       5.463  25.780  51.601  1.00  0.00    -0.149 NA
HETATM    9  N   UNL     1       6.648  25.201  51.337  1.00  0.00    -0.279 N 
HETATM   10  H   UNL     1       7.012  25.256  50.391  1.00  0.00     0.189 HD
HETATM   11  C   UNL     1       6.528  24.216  54.839  1.00  0.00     0.074 C 
ENDROOT
BRANCH  11  12
HETATM   12  C   UNL     1       6.771  25.424  55.740  1.00  0.00    -0.048 A 
HETATM   13  C   UNL     1       7.422  26.551  55.212  1.00  0.00     0.009 A 
HETATM   14  C   UNL     1       7.666  27.676  56.006  1.00  0.00     0.024 A 
HETATM   15  C   UNL     1       7.260  27.691  57.338  1.00  0.00     0.034 A 
HETATM   16 CL   UNL     1       7.556  29.077  58.311  1.00  0.00    -0.084 Cl
HETATM   17  C   UNL     1       6.602  26.592  57.881  1.00  0.00     0.024 A 
HETATM   18  C   UNL     1       6.352  25.473  57.085  1.00  0.00     0.009 A 
ENDBRANCH  11  12
BRANCH   1  19
HETATM   19  C   UNL     1       8.629  23.215  55.953  1.00  0.00     0.267 C 
HETATM   20  O   UNL     1       9.596  23.962  55.832  1.00  0.00    -0.265 OA
BRANCH  19  21
HETATM   21  O   UNL     1       8.358  22.470  57.054  1.00  0.00    -0.321 OA
BRANCH  21  22
HETATM   22  C   UNL     1       7.997  21.105  56.791  1.00  0.00     0.174 C 
HETATM   23  C   UNL     1       9.214  20.265  56.448  1.00  0.00     0.034 C 
ENDBRANCH  21  22
ENDBRANCH  19  21
ENDBRANCH   1  19
BRANCH   2  24
HETATM   24  O   UNL     1       9.476  21.963  53.665  1.00  0.00    -0.389 OA
HETATM   25  H   UNL     1       9.855  21.758  52.790  1.00  0.00     0.210 HD
ENDBRANCH   2  24
BRANCH   7  26
HETATM   26  O   UNL     1       4.164  26.020  53.444  1.00  0.00    -0.343 OA
HETATM   27  H   UNL     1       4.363  26.866  53.871  1.00  0.00     0.219 HD
ENDBRANCH   7  26
TORSDOF 6
ENDMDL
MODEL 3
REMARK VINA RESULT:      -7.5      2.758      4.305
REMARK  6 active torsions:
REMARK  status: ('A' for Active; 'I' for Inactive)
REMARK    1  A    between atoms: C_2  and  O_3 
REMARK    2  A    between atoms: O_3  and  C_4 
REMARK    3  A    between atoms: C_4  and  C_5 
REMARK    4  A    between atoms: C_6  and  O_7 
REMARK    5  A    between atoms: C_12  and  O_13 
REMARK    6  A    between atoms: C_17  and  C_18 
ROOT
HETATM    1  C   UNL     1       6.207  27.228  55.576  1.00  0.00     0.133 C 
HETATM    2  C   UNL     1       4.861  27.785  54.979  1.00  0.00     0.073 C 
HETATM    3  C   UNL     1       5.129  29.101  54.215  1.00  0.00     0.047 C 
HETATM    4  C   UNL     1       4.151  26.777  54.034  1.00  0.00     0.097 C 
HETATM    5  C   UNL     1       5.141  26.272  53.061  1.00  0.00     0.042 A 
HETATM    6  C   UNL     1       6.479  26.077  53.316  1.00  0.00     0.030 A 
HETATM    7  C   UNL     1       6.984  25.656  52.079  1.00  0.00     0.190 A 
HETATM    8  N   UNL     1       6.068  25.602  51.120  1.00  0.00    -0.149 NA
HETATM    9  N   UNL     1       4.936  25.973  51.746  1.00  0.00    -0.279 N 
HETATM   10  H   UNL     1       4.077  26.012  51.207  1.00  0.00     0.189 HD
HETATM   11  C   UNL     1       7.100  26.334  54.650  1.00  0.00     0.074 C 
ENDROOT
BRANCH  11  12
HETATM   12  C   UNL     1       7.517  24.964  55.177  1.00  0.00    -0.048 A 
HETATM   13  C   UNL     1       6.893  23.815  54.664  1.00  0.00     0.009 A 
HETATM   14  C   UNL     1       7.244  22.542  55.123  1.00  0.00     0.024 A 
HETATM   15  C   UNL     1       8.227  22.400  56.100  1.00  0.00     0.034 A 
HETATM   16 CL   UNL     1       8.661  20.834  56.660  1.00  0.00    -0.084 Cl
HETATM   17  C   UNL     1       8.868  23.521  56.616  1.00  0.00     0.024 A 
HETATM   18  C   UNL     1       8.522  24.791  56.150  1.00  0.00     0.009 A 
ENDBRANCH  11  12
BRANCH   1  19
HETATM   19  C   UNL     1       6.053  26.690  56.982  1.00  0.00     0.267 C 
HETATM   20  O   UNL     1       5.186  25.871  57.271  1.00  0.00    -0.265 OA
BRANCH  19  21
HETATM   21  O   UNL     1       6.973  27.184  57.849  1.00  0.00    -0.321 OA
BRANCH  21  22
HETATM   22  C   UNL     1       7.357  28.549  57.616  1.00  0.00     0.174 C 
HETATM   23  C   UNL     1       8.850  28.670  57.368  1.00  0.00     0.034 C 
ENDBRANCH  21  22
ENDBRANCH  19  21
ENDBRANCH   1  19
BRANCH   2  24
HETATM   24  O   UNL     1       3.929  28.131  56.015  1.00  0.00    -0.389 OA
HETATM   25  H   UNL     1       4.171  29.000  56.384  1.00  0.00     0.210 HD
ENDBRANCH   2  24
BRANCH   7  26
HETATM   26  O   UNL     1       8.228  25.305  51.742  1.00  0.00    -0.343 OA
HETATM   27  H   UNL     1       8.461  24.477  52.185  1.00  0.00     0.219 HD
ENDBRANCH   7  26
TORSDOF 6
ENDMDL
MODEL 4
REMARK VINA RESULT:      -7.4      3.157      5.267
REMARK  6 active torsions:
REMARK  status: ('A' for Active; 'I' for Inactive)
REMARK    1  A    between atoms: C_2  and  O_3 
REMARK    2  A    between atoms: O_3  and  C_4 
REMARK    3  A    between atoms: C_4  and  C_5 
REMARK    4  A    between atoms: C_6  and  O_7 
REMARK    5  A    between atoms: C_12  and  O_13 
REMARK    6  A    between atoms: C_17  and  C_18 
ROOT
HETATM    1  C   UNL     1       6.547  26.415  54.461  1.00  0.00     0.133 C 
HETATM    2  C   UNL     1       6.409  25.759  55.886  1.00  0.00     0.073 C 
HETATM    3  C   UNL     1       7.703  25.989  56.699  1.00  0.00     0.047 C 
HETATM    4  C   UNL     1       5.194  26.297  56.689  1.00  0.00     0.097 C 
HETATM    5  C   UNL     1       5.224  27.774  56.647  1.00  0.00     0.042 A 
HETATM    6  C   UNL     1       5.679  28.531  55.592  1.00  0.00     0.030 A 
HETATM    7  C   UNL     1       5.557  29.845  56.062  1.00  0.00     0.190 A 
HETATM    8  N   UNL     1       5.086  29.926  57.301  1.00  0.00    -0.149 NA
HETATM    9  N   UNL     1       4.874  28.641  57.641  1.00  0.00    -0.279 N 
HETATM   10  H   UNL     1       4.509  28.441  58.567  1.00  0.00     0.189 HD
HETATM   11  C   UNL     1       6.187  27.933  54.320  1.00  0.00     0.074 C 
ENDROOT
BRANCH  11  12
HETATM   12  C   UNL     1       5.170  28.324  53.252  1.00  0.00    -0.048 A 
HETATM   13  C   UNL     1       5.628  28.774  52.003  1.00  0.00     0.009 A 
HETATM   14  C   UNL     1       4.727  29.144  50.999  1.00  0.00     0.024 A 
HETATM   15  C   UNL     1       3.356  29.066  51.229  1.00  0.00     0.034 A 
HETATM   16 CL   UNL     1       2.250  29.517  49.993  1.00  0.00    -0.084 Cl
HETATM   17  C   UNL     1       2.877  28.613  52.453  1.00  0.00     0.024 A 
HETATM   18  C   UNL     1       3.777  28.235  53.452  1.00  0.00     0.009 A 
ENDBRANCH  11  12
BRANCH   1  19
HETATM   19  C   UNL     1       5.987  25.549  53.354  1.00  0.00     0.267 C 
HETATM   20  O   UNL     1       4.897  24.993  53.455  1.00  0.00    -0.265 OA
BRANCH  19  21
HETATM   21  O   UNL     1       6.794  25.483  52.265  1.00  0.00    -0.321 OA
BRANCH  21  22
HETATM   22  C   UNL     1       8.077  24.881  52.493  1.00  0.00     0.174 C 
HETATM   23  C   UNL     1       7.950  23.396  52.784  1.00  0.00     0.034 C 
ENDBRANCH  21  22
ENDBRANCH  19  21
ENDBRANCH   1  19
BRANCH   2  24
HETATM   24  O   UNL     1       6.266  24.333  55.797  1.00  0.00    -0.389 OA
HETATM   25  H   UNL     1       6.510  24.044  54.898  1.00  0.00     0.210 HD
ENDBRANCH   2  24
BRANCH   7  26
HETATM   26  O   UNL     1       5.836  30.998  55.449  1.00  0.00    -0.343 OA
HETATM   27  H   UNL     1       6.447  31.514  55.995  1.00  0.00     0.219 HD
ENDBRANCH   7  26
TORSDOF 6
ENDMDL
MODEL 5
REMARK VINA RESULT:      -7.3      8.764     11.424
REMARK  6 active torsions:
REMARK  status: ('A' for Active; 'I' for Inactive)
REMARK    1  A    between atoms: C_2  and  O_3 
REMARK    2  A    between atoms: O_3  and  C_4 
REMARK    3  A    between atoms: C_4  and  C_5 
REMARK    4  A    between atoms: C_6  and  O_7 
REMARK    5  A    between atoms: C_12  and  O_13 
REMARK    6  A    between atoms: C_17  and  C_18 
ROOT
HETATM    1  C   UNL     1       5.690  33.286  62.961  1.00  0.00     0.133 C 
HETATM    2  C   UNL     1       4.945  33.878  64.217  1.00  0.00     0.073 C 
HETATM    3  C   UNL     1       5.710  35.111  64.749  1.00  0.00     0.047 C 
HETATM    4  C   UNL     1       3.473  34.273  63.921  1.00  0.00     0.097 C 
HETATM    5  C   UNL     1       3.448  35.097  62.696  1.00  0.00     0.042 A 
HETATM    6  C   UNL     1       4.300  34.956  61.624  1.00  0.00     0.030 A 
HETATM    7  C   UNL     1       3.913  35.994  60.766  1.00  0.00     0.190 A 
HETATM    8  N   UNL     1       2.923  36.738  61.243  1.00  0.00    -0.149 NA
HETATM    9  N   UNL     1       2.640  36.164  62.427  1.00  0.00    -0.279 N 
HETATM   10  H   UNL     1       1.902  36.567  62.995  1.00  0.00     0.189 HD
HETATM   11  C   UNL     1       5.362  33.907  61.561  1.00  0.00     0.074 C 
ENDROOT
BRANCH  11  12
HETATM   12  C   UNL     1       4.931  32.956  60.448  1.00  0.00    -0.048 A 
HETATM   13  C   UNL     1       5.851  32.618  59.442  1.00  0.00     0.009 A 
HETATM   14  C   UNL     1       5.493  31.753  58.404  1.00  0.00     0.024 A 
HETATM   15  C   UNL     1       4.211  31.211  58.358  1.00  0.00     0.034 A 
HETATM   16 CL   UNL     1       3.774  30.144  57.084  1.00  0.00    -0.084 Cl
HETATM   17  C   UNL     1       3.285  31.521  59.349  1.00  0.00     0.024 A 
HETATM   18  C   UNL     1       3.647  32.379  60.390  1.00  0.00     0.009 A 
ENDBRANCH  11  12
BRANCH   1  19
HETATM   19  C   UNL     1       5.743  31.774  62.963  1.00  0.00     0.267 C 
HETATM   20  O   UNL     1       4.779  31.093  63.301  1.00  0.00    -0.265 OA
BRANCH  19  21
HETATM   21  O   UNL     1       6.931  31.279  62.535  1.00  0.00    -0.321 OA
BRANCH  21  22
HETATM   22  C   UNL     1       8.080  32.064  62.890  1.00  0.00     0.174 C 
HETATM   23  C   UNL     1       9.160  31.980  61.825  1.00  0.00     0.034 C 
ENDBRANCH  21  22
ENDBRANCH  19  21
ENDBRANCH   1  19
BRANCH   2  24
HETATM   24  O   UNL     1       4.928  32.943  65.307  1.00  0.00    -0.389 OA
HETATM   25  H   UNL     1       5.390  32.129  65.035  1.00  0.00     0.210 HD
ENDBRANCH   2  24
BRANCH   7  26
HETATM   26  O   UNL     1       4.386  36.324  59.562  1.00  0.00    -0.343 OA
HETATM   27  H   UNL     1       5.023  37.047  59.653  1.00  0.00     0.219 HD
ENDBRANCH   7  26
TORSDOF 6
ENDMDL
MODEL 6
REMARK VINA RESULT:      -7.3      3.213      5.120
REMARK  6 active torsions:
REMARK  status: ('A' for Active; 'I' for Inactive)
REMARK    1  A    between atoms: C_2  and  O_3 
REMARK    2  A    between atoms: O_3  and  C_4 
REMARK    3  A    between atoms: C_4  and  C_5 
REMARK    4  A    between atoms: C_6  and  O_7 
REMARK    5  A    between atoms: C_12  and  O_13 
REMARK    6  A    between atoms: C_17  and  C_18 
ROOT
HETATM    1  C   UNL     1       6.930  26.907  53.190  1.00  0.00     0.133 C 
HETATM    2  C   UNL     1       6.658  25.467  52.615  1.00  0.00     0.073 C 
HETATM    3  C   UNL     1       7.986  24.827  52.149  1.00  0.00     0.047 C 
HETATM    4  C   UNL     1       5.963  24.524  53.635  1.00  0.00     0.097 C 
HETATM    5  C   UNL     1       6.703  24.591  54.912  1.00  0.00     0.042 A 
HETATM    6  C   UNL     1       7.342  25.707  55.403  1.00  0.00     0.030 A 
HETATM    7  C   UNL     1       7.931  25.245  56.587  1.00  0.00     0.190 A 
HETATM    8  N   UNL     1       7.709  23.958  56.826  1.00  0.00    -0.149 NA
HETATM    9  N   UNL     1       6.939  23.575  55.790  1.00  0.00    -0.279 N 
HETATM   10  H   UNL     1       6.635  22.607  55.747  1.00  0.00     0.189 HD
HETATM   11  C   UNL     1       7.341  27.024  54.697  1.00  0.00     0.074 C 
ENDROOT
BRANCH  11  12
HETATM   12  C   UNL     1       6.525  27.961  55.583  1.00  0.00    -0.048 A 
HETATM   13  C   UNL     1       6.968  29.280  55.776  1.00  0.00     0.009 A 
HETATM   14  C   UNL     1       6.250  30.167  56.583  1.00  0.00     0.024 A 
HETATM   15  C   UNL     1       5.077  29.750  57.207  1.00  0.00     0.034 A 
HETATM   16 CL   UNL     1       4.194  30.844  58.195  1.00  0.00    -0.084 Cl
HETATM   17  C   UNL     1       4.611  28.453  57.023  1.00  0.00     0.024 A 
HETATM   18  C   UNL     1       5.325  27.570  56.210  1.00  0.00     0.009 A 
ENDBRANCH  11  12
BRANCH   1  19
HETATM   19  C   UNL     1       5.893  27.922  52.759  1.00  0.00     0.267 C 
HETATM   20  O   UNL     1       6.202  28.950  52.163  1.00  0.00    -0.265 OA
BRANCH  19  21
HETATM   21  O   UNL     1       4.625  27.560  53.075  1.00  0.00    -0.321 OA
BRANCH  21  22
HETATM   22  C   UNL     1       3.610  28.502  52.695  1.00  0.00     0.174 C 
HETATM   23  C   UNL     1       3.487  29.625  53.710  1.00  0.00     0.034 C 
ENDBRANCH  21  22
ENDBRANCH  19  21
ENDBRANCH   1  19
BRANCH   2  24
HETATM   24  O   UNL     1       5.830  25.516  51.443  1.00  0.00    -0.389 OA
HETATM   25  H   UNL     1       5.021  24.995  51.602  1.00  0.00     0.210 HD
ENDBRANCH   2  24
BRANCH   7  26
HETATM   26  O   UNL     1       8.662  25.905  57.489  1.00  0.00    -0.343 OA
HETATM   27  H   UNL     1       8.245  26.757  57.681  1.00  0.00     0.219 HD
ENDBRANCH   7  26
TORSDOF 6
ENDMDL
MODEL 7
REMARK VINA RESULT:      -7.2      2.785      4.784
REMARK  6 active torsions:
REMARK  status: ('A' for Active; 'I' for Inactive)
REMARK    1  A    between atoms: C_2  and  O_3 
REMARK    2  A    between atoms: O_3  and  C_4 
REMARK    3  A    between atoms: C_4  and  C_5 
REMARK    4  A    between atoms: C_6  and  O_7 
REMARK    5  A    between atoms: C_12  and  O_13 
REMARK    6  A    between atoms: C_17  and  C_18 
ROOT
HETATM    1  C   UNL     1       7.254  25.132  53.574  1.00  0.00     0.133 C 
HETATM    2  C   UNL     1       7.430  23.642  54.052  1.00  0.00     0.073 C 
HETATM    3  C   UNL     1       8.920  23.240  53.983  1.00  0.00     0.047 C 
HETATM    4  C   UNL     1       6.896  23.396  55.489  1.00  0.00     0.097 C 
HETATM    5  C   UNL     1       7.449  24.439  56.377  1.00  0.00     0.042 A 
HETATM    6  C   UNL     1       7.719  25.737  56.008  1.00  0.00     0.030 A 
HETATM    7  C   UNL     1       8.276  26.292  57.168  1.00  0.00     0.190 A 
HETATM    8  N   UNL     1       8.369  25.434  58.177  1.00  0.00    -0.149 NA
HETATM    9  N   UNL     1       7.844  24.301  57.676  1.00  0.00    -0.279 N 
HETATM   10  H   UNL     1       7.807  23.481  58.273  1.00  0.00     0.189 HD
HETATM   11  C   UNL     1       7.454  26.266  54.636  1.00  0.00     0.074 C 
ENDROOT
BRANCH  11  12
HETATM   12  C   UNL     1       6.332  27.286  54.803  1.00  0.00    -0.048 A 
HETATM   13  C   UNL     1       6.296  28.408  53.958  1.00  0.00     0.009 A 
HETATM   14  C   UNL     1       5.286  29.367  54.082  1.00  0.00     0.024 A 
HETATM   15  C   UNL     1       4.296  29.216  55.050  1.00  0.00     0.034 A 
HETATM   16 CL   UNL     1       3.052  30.394  55.197  1.00  0.00    -0.084 Cl
HETATM   17  C   UNL     1       4.303  28.109  55.890  1.00  0.00     0.024 A 
HETATM   18  C   UNL     1       5.307  27.148  55.760  1.00  0.00     0.009 A 
ENDBRANCH  11  12
BRANCH   1  19
HETATM   19  C   UNL     1       6.044  25.331  52.688  1.00  0.00     0.267 C 
HETATM   20  O   UNL     1       4.922  24.971  53.034  1.00  0.00    -0.265 OA
BRANCH  19  21
HETATM   21  O   UNL     1       6.332  25.956  51.519  1.00  0.00    -0.321 OA
BRANCH  21  22
HETATM   22  C   UNL     1       5.205  26.192  50.661  1.00  0.00     0.174 C 
HETATM   23  C   UNL     1       4.832  27.664  50.629  1.00  0.00     0.034 C 
ENDBRANCH  21  22
ENDBRANCH  19  21
ENDBRANCH   1  19
BRANCH   2  24
HETATM   24  O   UNL     1       6.749  22.726  53.179  1.00  0.00    -0.389 OA
HETATM   25  H   UNL     1       6.913  21.815  53.484  1.00  0.00     0.210 HD
ENDBRANCH   2  24
BRANCH   7  26
HETATM   26  O   UNL     1       8.708  27.535  57.395  1.00  0.00    -0.343 OA
HETATM   27  H   UNL     1       9.282  27.815  56.668  1.00  0.00     0.219 HD
ENDBRANCH   7  26
TORSDOF 6
ENDMDL
MODEL 8
REMARK VINA RESULT:      -7.2      2.930      4.830
REMARK  6 active torsions:
REMARK  status: ('A' for Active; 'I' for Inactive)
REMARK    1  A    between atoms: C_2  and  O_3 
REMARK    2  A    between atoms: O_3  and  C_4 
REMARK    3  A    between atoms: C_4  and  C_5 
REMARK    4  A    between atoms: C_6  and  O_7 
REMARK    5  A    between atoms: C_12  and  O_13 
REMARK    6  A    between atoms: C_17  and  C_18 
ROOT
HETATM    1  C   UNL     1       6.105  28.711  56.027  1.00  0.00     0.133 C 
HETATM    2  C   UNL     1       4.833  29.530  56.465  1.00  0.00     0.073 C 
HETATM    3  C   UNL     1       5.127  31.045  56.378  1.00  0.00     0.047 C 
HETATM    4  C   UNL     1       3.574  29.200  55.617  1.00  0.00     0.097 C 
HETATM    5  C   UNL     1       3.942  29.275  54.188  1.00  0.00     0.042 A 
HETATM    6  C   UNL     1       5.172  28.944  53.665  1.00  0.00     0.030 A 
HETATM    7  C   UNL     1       5.032  29.241  52.303  1.00  0.00     0.190 A 
HETATM    8  N   UNL     1       3.839  29.728  51.983  1.00  0.00    -0.149 NA
HETATM    9  N   UNL     1       3.177  29.730  53.155  1.00  0.00    -0.279 N 
HETATM   10  H   UNL     1       2.221  30.071  53.168  1.00  0.00     0.189 HD
HETATM   11  C   UNL     1       6.301  28.433  54.499  1.00  0.00     0.074 C 
ENDROOT
BRANCH  11  12
HETATM   12  C   UNL     1       6.507  26.985  54.063  1.00  0.00    -0.048 A 
HETATM   13  C   UNL     1       7.752  26.598  53.540  1.00  0.00     0.009 A 
HETATM   14  C   UNL     1       7.979  25.282  53.127  1.00  0.00     0.024 A 
HETATM   15  C   UNL     1       6.965  24.333  53.233  1.00  0.00     0.034 A 
HETATM   16 CL   UNL     1       7.247  22.714  52.729  1.00  0.00    -0.084 Cl
HETATM   17  C   UNL     1       5.727  24.688  53.758  1.00  0.00     0.024 A 
HETATM   18  C   UNL     1       5.505  26.001  54.178  1.00  0.00     0.009 A 
ENDBRANCH  11  12
BRANCH   1  19
HETATM   19  C   UNL     1       6.365  27.507  56.906  1.00  0.00     0.267 C 
HETATM   20  O   UNL     1       5.451  26.809  57.335  1.00  0.00    -0.265 OA
BRANCH  19  21
HETATM   21  O   UNL     1       7.684  27.285  57.134  1.00  0.00    -0.321 OA
BRANCH  21  22
HETATM   22  C   UNL     1       7.985  26.056  57.813  1.00  0.00     0.174 C 
HETATM   23  C   UNL     1       8.311  24.944  56.831  1.00  0.00     0.034 C 
ENDBRANCH  21  22
ENDBRANCH  19  21
ENDBRANCH   1  19
BRANCH   2  24
HETATM   24  O   UNL     1       4.499  29.287  57.841  1.00  0.00    -0.389 OA
HETATM   25  H   UNL     1       3.923  30.006  58.160  1.00  0.00     0.210 HD
ENDBRANCH   2  24
BRANCH   7  26
HETATM   26  O   UNL     1       5.908  29.098  51.306  1.00  0.00    -0.343 OA
HETATM   27  H   UNL     1       5.658  28.337  50.762  1.00  0.00     0.219 HD
ENDBRANCH   7  26
TORSDOF 6
ENDMDL
MODEL 9
REMARK VINA RESULT:      -7.1      3.321      5.575
REMARK  6 active torsions:
REMARK  status: ('A' for Active; 'I' for Inactive)
REMARK    1  A    between atoms: C_2  and  O_3 
REMARK    2  A    between atoms: O_3  and  C_4 
REMARK    3  A    between atoms: C_4  and  C_5 
REMARK    4  A    between atoms: C_6  and  O_7 
REMARK    5  A    between atoms: C_12  and  O_13 
REMARK    6  A    between atoms: C_17  and  C_18 
ROOT
HETATM    1  C   UNL     1       6.000  25.324  54.318  1.00  0.00     0.133 C 
HETATM    2  C   UNL     1       5.942  24.916  52.798  1.00  0.00     0.073 C 
HETATM    3  C   UNL     1       4.498  24.518  52.414  1.00  0.00     0.047 C 
HETATM    4  C   UNL     1       6.437  26.038  51.846  1.00  0.00     0.097 C 
HETATM    5  C   UNL     1       5.754  27.296  52.214  1.00  0.00     0.042 A 
HETATM    6  C   UNL     1       5.382  27.656  53.489  1.00  0.00     0.030 A 
HETATM    7  C   UNL     1       4.730  28.881  53.300  1.00  0.00     0.190 A 
HETATM    8  N   UNL     1       4.674  29.265  52.030  1.00  0.00    -0.149 NA
HETATM    9  N   UNL     1       5.321  28.282  51.377  1.00  0.00    -0.279 N 
HETATM   10  H   UNL     1       5.408  28.350  50.367  1.00  0.00     0.189 HD
HETATM   11  C   UNL     1       5.653  26.806  54.687  1.00  0.00     0.074 C 
ENDROOT
BRANCH  11  12
HETATM   12  C   UNL     1       6.670  27.585  55.517  1.00  0.00    -0.048 A 
HETATM   13  C   UNL     1       6.512  27.647  56.911  1.00  0.00     0.009 A 
HETATM   14  C   UNL     1       7.420  28.353  57.706  1.00  0.00     0.024 A 
HETATM   15  C   UNL     1       8.501  29.005  57.118  1.00  0.00     0.034 A 
HETATM   16 CL   UNL     1       9.619  29.869  58.097  1.00  0.00    -0.084 Cl
HETATM   17  C   UNL     1       8.687  28.949  55.741  1.00  0.00     0.024 A 
HETATM   18  C   UNL     1       7.784  28.236  54.950  1.00  0.00     0.009 A 
ENDBRANCH  11  12
BRANCH   1  19
HETATM   19  C   UNL     1       7.222  24.786  55.029  1.00  0.00     0.267 C 
HETATM   20  O   UNL     1       8.336  24.815  54.514  1.00  0.00    -0.265 OA
BRANCH  19  21
HETATM   21  O   UNL     1       6.953  24.307  56.269  1.00  0.00    -0.321 OA
BRANCH  21  22
HETATM   22  C   UNL     1       8.077  23.739  56.959  1.00  0.00     0.174 C 
HETATM   23  C   UNL     1       8.833  24.793  57.751  1.00  0.00     0.034 C 
ENDBRANCH  21  22
ENDBRANCH  19  21
ENDBRANCH   1  19
BRANCH   2  24
HETATM   24  O   UNL     1       6.738  23.749  52.536  1.00  0.00    -0.389 OA
HETATM   25  H   UNL     1       6.166  22.961  52.563  1.00  0.00     0.210 HD
ENDBRANCH   2  24
BRANCH   7  26
HETATM   26  O   UNL     1       4.177  29.700  54.199  1.00  0.00    -0.343 OA
HETATM   27  H   UNL     1       3.948  29.198  54.994  1.00  0.00     0.219 HD
ENDBRANCH   7  26
TORSDOF 6
ENDMDL
MODEL 10
REMARK VINA RESULT:      -6.9      2.833      4.832
REMARK  6 active torsions:
REMARK  status: ('A' for Active; 'I' for Inactive)
REMARK    1  A    between atoms: C_2  and  O_3 
REMARK    2  A    between atoms: O_3  and  C_4 
REMARK    3  A    between atoms: C_4  and  C_5 
REMARK    4  A    between atoms: C_6  and  O_7 
REMARK    5  A    between atoms: C_12  and  O_13 
REMARK    6  A    between atoms: C_17  and  C_18 
ROOT
HETATM    1  C   UNL     1       7.470  25.256  55.116  1.00  0.00     0.133 C 
HETATM    2  C   UNL     1       7.633  24.781  56.609  1.00  0.00     0.073 C 
HETATM    3  C   UNL     1       9.128  24.552  56.928  1.00  0.00     0.047 C 
HETATM    4  C   UNL     1       7.035  25.781  57.635  1.00  0.00     0.097 C 
HETATM    5  C   UNL     1       7.540  27.133  57.319  1.00  0.00     0.042 A 
HETATM    6  C   UNL     1       7.819  27.603  56.055  1.00  0.00     0.030 A 
HETATM    7  C   UNL     1       8.318  28.890  56.293  1.00  0.00     0.190 A 
HETATM    8  N   UNL     1       8.370  29.212  57.580  1.00  0.00    -0.149 NA
HETATM    9  N   UNL     1       7.875  28.122  58.196  1.00  0.00    -0.279 N 
HETATM   10  H   UNL     1       7.816  28.126  59.210  1.00  0.00     0.189 HD
HETATM   11  C   UNL     1       7.614  26.788  54.820  1.00  0.00     0.074 C 
ENDROOT
BRANCH  11  12
HETATM   12  C   UNL     1       6.479  27.472  54.064  1.00  0.00    -0.048 A 
HETATM   13  C   UNL     1       5.347  27.905  54.774  1.00  0.00     0.009 A 
HETATM   14  C   UNL     1       4.285  28.533  54.117  1.00  0.00     0.024 A 
HETATM   15  C   UNL     1       4.340  28.741  52.740  1.00  0.00     0.034 A 
HETATM   16 CL   UNL     1       3.036  29.517  51.935  1.00  0.00    -0.084 Cl
HETATM   17  C   UNL     1       5.455  28.332  52.017  1.00  0.00     0.024 A 
HETATM   18  C   UNL     1       6.519  27.712  52.675  1.00  0.00     0.009 A 
ENDBRANCH  11  12
BRANCH   1  19
HETATM   19  C   UNL     1       6.301  24.604  54.412  1.00  0.00     0.267 C 
HETATM   20  O   UNL     1       5.167  24.626  54.882  1.00  0.00    -0.265 OA
BRANCH  19  21
HETATM   21  O   UNL     1       6.638  24.035  53.227  1.00  0.00    -0.321 OA
BRANCH  21  22
HETATM   22  C   UNL     1       7.959  23.473  53.176  1.00  0.00     0.174 C 
HETATM   23  C   UNL     1       7.914  21.957  53.106  1.00  0.00     0.034 C 
ENDBRANCH  21  22
ENDBRANCH  19  21
ENDBRANCH   1  19
BRANCH   2  24
HETATM   24  O   UNL     1       7.000  23.511  56.828  1.00  0.00    -0.389 OA
HETATM   25  H   UNL     1       7.105  23.261  57.764  1.00  0.00     0.210 HD
ENDBRANCH   2  24
BRANCH   7  26
HETATM   26  O   UNL     1       8.731  29.817  55.426  1.00  0.00    -0.343 OA
HETATM   27  H   UNL     1       9.489  30.291  55.797  1.00  0.00     0.219 HD
ENDBRANCH   7  26
TORSDOF 6
ENDMDL
