MODEL 1
REMARK VINA RESULT:     -10.6      0.000      0.000
REMARK  7 active torsions:
REMARK  status: ('A' for Active; 'I' for Inactive)
REMARK    1  A    between atoms: C_4  and  C_5 
REMARK    2  A    between atoms: C_9  and  C_10 
REMARK       I    between atoms: C_10  and  N_11 
REMARK    3  A    between atoms: N_11  and  N_12 
REMARK       I    between atoms: N_12  and  C_13 
REMARK    4  A    between atoms: C_13  and  C_14 
REMARK    5  A    between atoms: C_14  and  C_15 
REMARK    6  A    between atoms: C_15  and  N_16 
REMARK    7  A    between atoms: C_15  and  C_20 
REMARK       I    between atoms: N_16  and  C_17 
REMARK       I    between atoms: C_17  and  N_18 
ROOT
HETATM    1  N   UNL     1       7.645  28.880  57.064  1.00  0.00    -0.267 N 
HETATM    2  C   UNL     1       7.847  27.518  57.074  1.00  0.00     0.238 C 
HETATM    3  O   UNL     1       7.959  26.869  58.115  1.00  0.00    -0.272 OA
HETATM    4  H   UNL     1       7.295  29.366  56.229  1.00  0.00     0.190 HD
ENDROOT
BRANCH   1   5
HETATM    5  N   UNL     1       7.471  29.505  58.304  1.00  0.00    -0.262 N 
HETATM    6  C   UNL     1       8.491  30.253  58.850  1.00  0.00     0.288 C 
HETATM    7  O   UNL     1       9.519  30.527  58.236  1.00  0.00    -0.264 OA
HETATM    8  H   UNL     1       6.659  29.205  58.837  1.00  0.00     0.190 HD
BRANCH   6   9
HETATM    9  C   UNL     1       8.264  30.688  60.202  1.00  0.00     0.121 A 
HETATM   10  N   UNL     1       8.915  30.118  61.260  1.00  0.00    -0.272 N 
HETATM   11  N   UNL     1       8.569  30.621  62.454  1.00  0.00    -0.174 NA
HETATM   12  H   UNL     1       9.601  29.370  61.222  1.00  0.00     0.189 HD
HETATM   13  C   UNL     1       7.662  31.573  62.177  1.00  0.00     0.089 A 
HETATM   14  C   UNL     1       7.448  31.645  60.770  1.00  0.00     0.071 A 
BRANCH  13  15
HETATM   15  C   UNL     1       7.022  32.366  63.234  1.00  0.00    -0.006 A 
HETATM   16  C   UNL     1       5.626  32.414  63.362  1.00  0.00     0.014 A 
HETATM   17  C   UNL     1       5.028  33.163  64.380  1.00  0.00     0.001 A 
HETATM   18  C   UNL     1       5.816  33.871  65.283  1.00  0.00     0.000 A 
HETATM   19  C   UNL     1       7.203  33.837  65.167  1.00  0.00     0.001 A 
HETATM   20  C   UNL     1       7.801  33.091  64.148  1.00  0.00     0.014 A 
ENDBRANCH  13  15
ENDBRANCH   6   9
ENDBRANCH   1   5
BRANCH   2  21
HETATM   21  C   UNL     1       7.919  26.875  55.715  1.00  0.00     0.134 C 
BRANCH  21  22
HETATM   22  C   UNL     1       6.694  25.989  55.475  1.00  0.00     0.128 C 
BRANCH  22  23
HETATM   23  N   UNL     1       5.582  26.558  54.715  1.00  0.00    -0.334 N 
HETATM   24  C   UNL     1       4.740  27.541  55.119  1.00  0.00     0.314 C 
HETATM   25  N   UNL     1       3.906  27.957  54.137  1.00  0.00    -0.352 N 
HETATM   26  O   UNL     1       4.663  27.997  56.250  1.00  0.00    -0.248 OA
HETATM   27  H   UNL     1       4.260  28.002  53.193  1.00  0.00     0.160 HD
HETATM   28  H   UNL     1       3.319  28.738  54.405  1.00  0.00     0.160 HD
HETATM   29  H   UNL     1       5.517  26.281  53.747  1.00  0.00     0.165 HD
ENDBRANCH  22  23
BRANCH  22  30
HETATM   30  C   UNL     1       7.111  24.658  54.862  1.00  0.00    -0.035 A 
HETATM   31  C   UNL     1       7.371  24.572  53.484  1.00  0.00     0.011 A 
HETATM   32  C   UNL     1       7.732  23.355  52.903  1.00  0.00     0.024 A 
HETATM   33  C   UNL     1       7.835  22.213  53.693  1.00  0.00     0.034 A 
HETATM   34 CL   UNL     1       8.277  20.713  52.975  1.00  0.00    -0.084 Cl
HETATM   35  C   UNL     1       7.579  22.278  55.060  1.00  0.00     0.024 A 
HETATM   36  C   UNL     1       7.214  23.495  55.642  1.00  0.00     0.011 A 
ENDBRANCH  22  30
ENDBRANCH  21  22
ENDBRANCH   2  21
TORSDOF 7
ENDMDL
MODEL 2
REMARK VINA RESULT:     -10.6      3.670     10.372
REMARK  7 active torsions:
REMARK  status: ('A' for Active; 'I' for Inactive)
REMARK    1  A    between atoms: C_4  and  C_5 
REMARK    2  A    between atoms: C_9  and  C_10 
REMARK       I    between atoms: C_10  and  N_11 
REMARK    3  A    between atoms: N_11  and  N_12 
REMARK       I    between atoms: N_12  and  C_13 
REMARK    4  A    between atoms: C_13  and  C_14 
REMARK    5  A    between atoms: C_14  and  C_15 
REMARK    6  A    between atoms: C_15  and  N_16 
REMARK    7  A    between atoms: C_15  and  C_20 
REMARK       I    between atoms: N_16  and  C_17 
REMARK       I    between atoms: C_17  and  N_18 
ROOT
HETATM    1  N   UNL     1       8.162  29.495  56.470  1.00  0.00    -0.267 N 
HETATM    2  C   UNL     1       8.234  29.496  57.845  1.00  0.00     0.238 C 
HETATM    3  O   UNL     1       8.100  28.474  58.520  1.00  0.00    -0.272 OA
HETATM    4  H   UNL     1       8.527  30.276  55.912  1.00  0.00     0.190 HD
ENDROOT
BRANCH   1   5
HETATM    5  N   UNL     1       8.025  28.251  55.842  1.00  0.00    -0.262 N 
HETATM    6  C   UNL     1       6.785  27.825  55.418  1.00  0.00     0.288 C 
HETATM    7  O   UNL     1       5.791  28.546  55.432  1.00  0.00    -0.264 OA
HETATM    8  H   UNL     1       8.828  27.633  55.914  1.00  0.00     0.190 HD
BRANCH   6   9
HETATM    9  C   UNL     1       6.740  26.461  54.961  1.00  0.00     0.121 A 
HETATM   10  N   UNL     1       5.711  25.993  54.193  1.00  0.00    -0.272 N 
HETATM   11  N   UNL     1       5.809  24.694  53.876  1.00  0.00    -0.174 NA
HETATM   12  H   UNL     1       4.907  26.520  53.866  1.00  0.00     0.189 HD
HETATM   13  C   UNL     1       6.956  24.287  54.444  1.00  0.00     0.089 A 
HETATM   14  C   UNL     1       7.570  25.372  55.133  1.00  0.00     0.071 A 
BRANCH  13  15
HETATM   15  C   UNL     1       7.427  22.900  54.335  1.00  0.00    -0.006 A 
HETATM   16  C   UNL     1       7.767  22.344  53.093  1.00  0.00     0.014 A 
HETATM   17  C   UNL     1       8.227  21.026  53.002  1.00  0.00     0.001 A 
HETATM   18  C   UNL     1       8.352  20.249  54.150  1.00  0.00     0.000 A 
HETATM   19  C   UNL     1       8.014  20.784  55.390  1.00  0.00     0.001 A 
HETATM   20  C   UNL     1       7.553  22.100  55.481  1.00  0.00     0.014 A 
ENDBRANCH  13  15
ENDBRANCH   6   9
ENDBRANCH   1   5
BRANCH   2  21
HETATM   21  C   UNL     1       8.490  30.842  58.468  1.00  0.00     0.134 C 
BRANCH  21  22
HETATM   22  C   UNL     1       7.176  31.477  58.931  1.00  0.00     0.128 C 
BRANCH  22  23
HETATM   23  N   UNL     1       5.949  30.698  58.764  1.00  0.00    -0.334 N 
HETATM   24  C   UNL     1       5.007  30.861  57.803  1.00  0.00     0.314 C 
HETATM   25  N   UNL     1       4.063  29.890  57.821  1.00  0.00    -0.352 N 
HETATM   26  O   UNL     1       4.941  31.794  57.017  1.00  0.00    -0.248 OA
HETATM   27  H   UNL     1       4.346  28.948  58.045  1.00  0.00     0.160 HD
HETATM   28  H   UNL     1       3.391  29.961  57.065  1.00  0.00     0.160 HD
HETATM   29  H   UNL     1       5.862  29.877  59.345  1.00  0.00     0.165 HD
ENDBRANCH  22  23
BRANCH  22  30
HETATM   30  C   UNL     1       7.293  31.953  60.373  1.00  0.00    -0.035 A 
HETATM   31  C   UNL     1       6.318  32.811  60.910  1.00  0.00     0.011 A 
HETATM   32  C   UNL     1       6.423  33.274  62.223  1.00  0.00     0.024 A 
HETATM   33  C   UNL     1       7.503  32.886  63.010  1.00  0.00     0.034 A 
HETATM   34 CL   UNL     1       7.633  33.460  64.627  1.00  0.00    -0.084 Cl
HETATM   35  C   UNL     1       8.481  32.038  62.496  1.00  0.00     0.024 A 
HETATM   36  C   UNL     1       8.378  31.577  61.181  1.00  0.00     0.011 A 
ENDBRANCH  22  30
ENDBRANCH  21  22
ENDBRANCH   2  21
TORSDOF 7
ENDMDL
MODEL 3
REMARK VINA RESULT:      -9.9      2.054      2.724
REMARK  7 active torsions:
REMARK  status: ('A' for Active; 'I' for Inactive)
REMARK    1  A    between atoms: C_4  and  C_5 
REMARK    2  A    between atoms: C_9  and  C_10 
REMARK       I    between atoms: C_10  and  N_11 
REMARK    3  A    between atoms: N_11  and  N_12 
REMARK       I    between atoms: N_12  and  C_13 
REMARK    4  A    between atoms: C_13  and  C_14 
REMARK    5  A    between atoms: C_14  and  C_15 
REMARK    6  A    between atoms: C_15  and  N_16 
REMARK    7  A    between atoms: C_15  and  C_20 
REMARK       I    between atoms: N_16  and  C_17 
REMARK       I    between atoms: C_17  and  N_18 
ROOT
HETATM    1  N   UNL     1       8.451  27.830  55.502  1.00  0.00    -0.267 N 
HETATM    2  C   UNL     1       7.406  27.715  54.613  1.00  0.00     0.238 C 
HETATM    3  O   UNL     1       6.365  28.365  54.722  1.00  0.00    -0.272 OA
HETATM    4  H   UNL     1       9.394  27.497  55.269  1.00  0.00     0.190 HD
ENDROOT
BRANCH   1   5
HETATM    5  N   UNL     1       8.330  28.801  56.503  1.00  0.00    -0.262 N 
HETATM    6  C   UNL     1       9.291  29.780  56.636  1.00  0.00     0.288 C 
HETATM    7  O   UNL     1      10.197  29.938  55.821  1.00  0.00    -0.264 OA
HETATM    8  H   UNL     1       7.632  28.611  57.217  1.00  0.00     0.190 HD
BRANCH   6   9
HETATM    9  C   UNL     1       9.157  30.602  57.808  1.00  0.00     0.121 A 
HETATM   10  N   UNL     1      10.094  31.539  58.142  1.00  0.00    -0.272 N 
HETATM   11  N   UNL     1       9.831  32.200  59.278  1.00  0.00    -0.174 NA
HETATM   12  H   UNL     1      10.943  31.759  57.630  1.00  0.00     0.189 HD
HETATM   13  C   UNL     1       8.665  31.691  59.710  1.00  0.00     0.089 A 
HETATM   14  C   UNL     1       8.210  30.686  58.809  1.00  0.00     0.071 A 
BRANCH  13  15
HETATM   15  C   UNL     1       8.030  32.151  60.951  1.00  0.00    -0.006 A 
HETATM   16  C   UNL     1       6.746  32.719  60.943  1.00  0.00     0.014 A 
HETATM   17  C   UNL     1       6.146  33.142  62.133  1.00  0.00     0.001 A 
HETATM   18  C   UNL     1       6.818  33.003  63.344  1.00  0.00     0.000 A 
HETATM   19  C   UNL     1       8.094  32.446  63.369  1.00  0.00     0.001 A 
HETATM   20  C   UNL     1       8.696  32.025  62.179  1.00  0.00     0.014 A 
ENDBRANCH  13  15
ENDBRANCH   6   9
ENDBRANCH   1   5
BRANCH   2  21
HETATM   21  C   UNL     1       7.628  26.735  53.493  1.00  0.00     0.134 C 
BRANCH  21  22
HETATM   22  C   UNL     1       6.476  25.728  53.426  1.00  0.00     0.128 C 
BRANCH  22  23
HETATM   23  N   UNL     1       5.748  25.611  52.162  1.00  0.00    -0.334 N 
HETATM   24  C   UNL     1       4.993  26.568  51.568  1.00  0.00     0.314 C 
HETATM   25  N   UNL     1       4.570  26.211  50.332  1.00  0.00    -0.352 N 
HETATM   26  O   UNL     1       4.658  27.629  52.071  1.00  0.00    -0.248 OA
HETATM   27  H   UNL     1       5.192  25.673  49.747  1.00  0.00     0.160 HD
HETATM   28  H   UNL     1       4.062  26.943  49.849  1.00  0.00     0.160 HD
HETATM   29  H   UNL     1       5.932  24.780  51.619  1.00  0.00     0.165 HD
ENDBRANCH  22  23
BRANCH  22  30
HETATM   30  C   UNL     1       6.945  24.352  53.880  1.00  0.00    -0.035 A 
HETATM   31  C   UNL     1       6.993  24.045  55.250  1.00  0.00     0.011 A 
HETATM   32  C   UNL     1       7.443  22.795  55.684  1.00  0.00     0.024 A 
HETATM   33  C   UNL     1       7.848  21.843  54.753  1.00  0.00     0.034 A 
HETATM   34 CL   UNL     1       8.404  20.306  55.290  1.00  0.00    -0.084 Cl
HETATM   35  C   UNL     1       7.810  22.130  53.391  1.00  0.00     0.024 A 
HETATM   36  C   UNL     1       7.364  23.380  52.956  1.00  0.00     0.011 A 
ENDBRANCH  22  30
ENDBRANCH  21  22
ENDBRANCH   2  21
TORSDOF 7
ENDMDL
MODEL 4
REMARK VINA RESULT:      -9.9      1.800      2.321
REMARK  7 active torsions:
REMARK  status: ('A' for Active; 'I' for Inactive)
REMARK    1  A    between atoms: C_4  and  C_5 
REMARK    2  A    between atoms: C_9  and  C_10 
REMARK       I    between atoms: C_10  and  N_11 
REMARK    3  A    between atoms: N_11  and  N_12 
REMARK       I    between atoms: N_12  and  C_13 
REMARK    4  A    between atoms: C_13  and  C_14 
REMARK    5  A    between atoms: C_14  and  C_15 
REMARK    6  A    between atoms: C_15  and  N_16 
REMARK    7  A    between atoms: C_15  and  C_20 
REMARK       I    between atoms: N_16  and  C_17 
REMARK       I    between atoms: C_17  and  N_18 
ROOT
HETATM    1  N   UNL     1       5.365  28.003  56.907  1.00  0.00    -0.267 N 
HETATM    2  C   UNL     1       6.079  26.827  56.953  1.00  0.00     0.238 C 
HETATM    3  O   UNL     1       7.034  26.657  57.712  1.00  0.00    -0.272 OA
HETATM    4  H   UNL     1       4.432  28.050  56.480  1.00  0.00     0.190 HD
ENDROOT
BRANCH   1   5
HETATM    5  N   UNL     1       5.707  28.990  57.839  1.00  0.00    -0.262 N 
HETATM    6  C   UNL     1       6.516  30.041  57.467  1.00  0.00     0.288 C 
HETATM    7  O   UNL     1       6.851  30.245  56.303  1.00  0.00    -0.264 OA
HETATM    8  H   UNL     1       5.499  28.768  58.809  1.00  0.00     0.190 HD
BRANCH   6   9
HETATM    9  C   UNL     1       6.948  30.883  58.551  1.00  0.00     0.121 A 
HETATM   10  N   UNL     1       8.188  31.456  58.568  1.00  0.00    -0.272 N 
HETATM   11  N   UNL     1       8.441  32.189  59.662  1.00  0.00    -0.174 NA
HETATM   12  H   UNL     1       8.909  31.367  57.858  1.00  0.00     0.189 HD
HETATM   13  C   UNL     1       7.317  32.112  60.394  1.00  0.00     0.089 A 
HETATM   14  C   UNL     1       6.355  31.302  59.725  1.00  0.00     0.071 A 
BRANCH  13  15
HETATM   15  C   UNL     1       7.190  32.785  61.693  1.00  0.00    -0.006 A 
HETATM   16  C   UNL     1       6.283  33.839  61.880  1.00  0.00     0.014 A 
HETATM   17  C   UNL     1       6.161  34.464  63.126  1.00  0.00     0.001 A 
HETATM   18  C   UNL     1       6.942  34.043  64.198  1.00  0.00     0.000 A 
HETATM   19  C   UNL     1       7.849  33.000  64.029  1.00  0.00     0.001 A 
HETATM   20  C   UNL     1       7.973  32.377  62.784  1.00  0.00     0.014 A 
ENDBRANCH  13  15
ENDBRANCH   6   9
ENDBRANCH   1   5
BRANCH   2  21
HETATM   21  C   UNL     1       5.605  25.757  56.007  1.00  0.00     0.134 C 
BRANCH  21  22
HETATM   22  C   UNL     1       6.446  25.763  54.727  1.00  0.00     0.128 C 
BRANCH  22  23
HETATM   23  N   UNL     1       7.526  26.744  54.629  1.00  0.00    -0.334 N 
HETATM   24  C   UNL     1       7.497  27.921  53.955  1.00  0.00     0.314 C 
HETATM   25  N   UNL     1       8.596  28.680  54.176  1.00  0.00    -0.352 N 
HETATM   26  O   UNL     1       6.625  28.280  53.180  1.00  0.00    -0.248 OA
HETATM   27  H   UNL     1       9.006  28.678  55.098  1.00  0.00     0.160 HD
HETATM   28  H   UNL     1       8.557  29.592  53.734  1.00  0.00     0.160 HD
HETATM   29  H   UNL     1       8.324  26.588  55.227  1.00  0.00     0.165 HD
ENDBRANCH  22  23
BRANCH  22  30
HETATM   30  C   UNL     1       6.987  24.369  54.438  1.00  0.00    -0.035 A 
HETATM   31  C   UNL     1       7.172  23.457  55.490  1.00  0.00     0.011 A 
HETATM   32  C   UNL     1       7.689  22.183  55.244  1.00  0.00     0.024 A 
HETATM   33  C   UNL     1       8.025  21.810  53.946  1.00  0.00     0.034 A 
HETATM   34 CL   UNL     1       8.664  20.241  53.645  1.00  0.00    -0.084 Cl
HETATM   35  C   UNL     1       7.851  22.701  52.890  1.00  0.00     0.024 A 
HETATM   36  C   UNL     1       7.337  23.977  53.135  1.00  0.00     0.011 A 
ENDBRANCH  22  30
ENDBRANCH  21  22
ENDBRANCH   2  21
TORSDOF 7
ENDMDL
MODEL 5
REMARK VINA RESULT:      -9.4      8.559     10.936
REMARK  7 active torsions:
REMARK  status: ('A' for Active; 'I' for Inactive)
REMARK    1  A    between atoms: C_4  and  C_5 
REMARK    2  A    between atoms: C_9  and  C_10 
REMARK       I    between atoms: C_10  and  N_11 
REMARK    3  A    between atoms: N_11  and  N_12 
REMARK       I    between atoms: N_12  and  C_13 
REMARK    4  A    between atoms: C_13  and  C_14 
REMARK    5  A    between atoms: C_14  and  C_15 
REMARK    6  A    between atoms: C_15  and  N_16 
REMARK    7  A    between atoms: C_15  and  C_20 
REMARK       I    between atoms: N_16  and  C_17 
REMARK       I    between atoms: C_17  and  N_18 
ROOT
HETATM    1  N   UNL     1       5.643  27.179  49.613  1.00  0.00    -0.267 N 
HETATM    2  C   UNL     1       4.544  27.011  48.802  1.00  0.00     0.238 C 
HETATM    3  O   UNL     1       3.837  26.002  48.838  1.00  0.00    -0.272 OA
HETATM    4  H   UNL     1       6.062  28.104  49.766  1.00  0.00     0.190 HD
ENDROOT
BRANCH   1   5
HETATM    5  N   UNL     1       5.884  26.187  50.571  1.00  0.00    -0.262 N 
HETATM    6  C   UNL     1       5.537  26.400  51.888  1.00  0.00     0.288 C 
HETATM    7  O   UNL     1       4.887  27.375  52.256  1.00  0.00    -0.264 OA
HETATM    8  H   UNL     1       6.493  25.430  50.275  1.00  0.00     0.190 HD
BRANCH   6   9
HETATM    9  C   UNL     1       6.001  25.393  52.805  1.00  0.00     0.121 A 
HETATM   10  N   UNL     1       5.845  25.522  54.156  1.00  0.00    -0.272 N 
HETATM   11  N   UNL     1       6.356  24.508  54.868  1.00  0.00    -0.174 NA
HETATM   12  H   UNL     1       5.403  26.294  54.646  1.00  0.00     0.189 HD
HETATM   13  C   UNL     1       6.861  23.665  53.952  1.00  0.00     0.089 A 
HETATM   14  C   UNL     1       6.653  24.187  52.643  1.00  0.00     0.071 A 
BRANCH  13  15
HETATM   15  C   UNL     1       7.529  22.414  54.334  1.00  0.00    -0.006 A 
HETATM   16  C   UNL     1       7.986  21.509  53.364  1.00  0.00     0.014 A 
HETATM   17  C   UNL     1       8.632  20.327  53.739  1.00  0.00     0.001 A 
HETATM   18  C   UNL     1       8.830  20.035  55.085  1.00  0.00     0.000 A 
HETATM   19  C   UNL     1       8.378  20.920  56.061  1.00  0.00     0.001 A 
HETATM   20  C   UNL     1       7.731  22.101  55.686  1.00  0.00     0.014 A 
ENDBRANCH  13  15
ENDBRANCH   6   9
ENDBRANCH   1   5
BRANCH   2  21
HETATM   21  C   UNL     1       4.264  28.153  47.863  1.00  0.00     0.134 C 
BRANCH  21  22
HETATM   22  C   UNL     1       3.676  29.343  48.627  1.00  0.00     0.128 C 
BRANCH  22  23
HETATM   23  N   UNL     1       3.341  29.146  50.038  1.00  0.00    -0.334 N 
HETATM   24  C   UNL     1       2.101  29.145  50.587  1.00  0.00     0.314 C 
HETATM   25  N   UNL     1       2.105  28.786  51.892  1.00  0.00    -0.352 N 
HETATM   26  O   UNL     1       1.070  29.476  50.023  1.00  0.00    -0.248 OA
HETATM   27  H   UNL     1       2.752  28.073  52.194  1.00  0.00     0.160 HD
HETATM   28  H   UNL     1       1.178  28.715  52.297  1.00  0.00     0.160 HD
HETATM   29  H   UNL     1       4.099  28.855  50.637  1.00  0.00     0.165 HD
ENDBRANCH  22  23
BRANCH  22  30
HETATM   30  C   UNL     1       4.567  30.568  48.475  1.00  0.00    -0.035 A 
HETATM   31  C   UNL     1       5.460  30.918  49.501  1.00  0.00     0.011 A 
HETATM   32  C   UNL     1       6.268  32.052  49.386  1.00  0.00     0.024 A 
HETATM   33  C   UNL     1       6.191  32.845  48.245  1.00  0.00     0.034 A 
HETATM   34 CL   UNL     1       7.185  34.242  48.106  1.00  0.00    -0.084 Cl
HETATM   35  C   UNL     1       5.311  32.515  47.217  1.00  0.00     0.024 A 
HETATM   36  C   UNL     1       4.499  31.383  47.333  1.00  0.00     0.011 A 
ENDBRANCH  22  30
ENDBRANCH  21  22
ENDBRANCH   2  21
TORSDOF 7
ENDMDL
MODEL 6
REMARK VINA RESULT:      -9.4      3.927     10.773
REMARK  7 active torsions:
REMARK  status: ('A' for Active; 'I' for Inactive)
REMARK    1  A    between atoms: C_4  and  C_5 
REMARK    2  A    between atoms: C_9  and  C_10 
REMARK       I    between atoms: C_10  and  N_11 
REMARK    3  A    between atoms: N_11  and  N_12 
REMARK       I    between atoms: N_12  and  C_13 
REMARK    4  A    between atoms: C_13  and  C_14 
REMARK    5  A    between atoms: C_14  and  C_15 
REMARK    6  A    between atoms: C_15  and  N_16 
REMARK    7  A    between atoms: C_15  and  C_20 
REMARK       I    between atoms: N_16  and  C_17 
REMARK       I    between atoms: C_17  and  N_18 
ROOT
HETATM    1  N   UNL     1       5.657  29.240  57.949  1.00  0.00    -0.267 N 
HETATM    2  C   UNL     1       5.748  30.411  57.230  1.00  0.00     0.238 C 
HETATM    3  O   UNL     1       5.965  30.432  56.018  1.00  0.00    -0.272 OA
HETATM    4  H   UNL     1       5.225  29.213  58.880  1.00  0.00     0.190 HD
ENDROOT
BRANCH   1   5
HETATM    5  N   UNL     1       5.726  28.043  57.226  1.00  0.00    -0.262 N 
HETATM    6  C   UNL     1       6.847  27.248  57.311  1.00  0.00     0.288 C 
HETATM    7  O   UNL     1       7.755  27.460  58.111  1.00  0.00    -0.264 OA
HETATM    8  H   UNL     1       5.015  27.923  56.509  1.00  0.00     0.190 HD
BRANCH   6   9
HETATM    9  C   UNL     1       6.879  26.147  56.385  1.00  0.00     0.121 A 
HETATM   10  N   UNL     1       6.182  26.174  55.210  1.00  0.00    -0.272 N 
HETATM   11  N   UNL     1       6.298  25.059  54.475  1.00  0.00    -0.174 NA
HETATM   12  H   UNL     1       5.598  26.931  54.867  1.00  0.00     0.189 HD
HETATM   13  C   UNL     1       7.117  24.265  55.185  1.00  0.00     0.089 A 
HETATM   14  C   UNL     1       7.505  24.917  56.390  1.00  0.00     0.071 A 
BRANCH  13  15
HETATM   15  C   UNL     1       7.495  22.925  54.717  1.00  0.00    -0.006 A 
HETATM   16  C   UNL     1       7.676  21.864  55.618  1.00  0.00     0.014 A 
HETATM   17  C   UNL     1       8.022  20.589  55.160  1.00  0.00     0.001 A 
HETATM   18  C   UNL     1       8.191  20.357  53.798  1.00  0.00     0.000 A 
HETATM   19  C   UNL     1       8.019  21.400  52.891  1.00  0.00     0.001 A 
HETATM   20  C   UNL     1       7.675  22.675  53.348  1.00  0.00     0.014 A 
ENDBRANCH  13  15
ENDBRANCH   6   9
ENDBRANCH   1   5
BRANCH   2  21
HETATM   21  C   UNL     1       5.560  31.669  58.035  1.00  0.00     0.134 C 
BRANCH  21  22
HETATM   22  C   UNL     1       6.547  31.708  59.205  1.00  0.00     0.128 C 
BRANCH  22  23
HETATM   23  N   UNL     1       7.964  31.889  58.893  1.00  0.00    -0.334 N 
HETATM   24  C   UNL     1       8.963  30.997  59.105  1.00  0.00     0.314 C 
HETATM   25  N   UNL     1      10.144  31.394  58.573  1.00  0.00    -0.352 N 
HETATM   26  O   UNL     1       8.874  29.961  59.746  1.00  0.00    -0.248 OA
HETATM   27  H   UNL     1      10.134  31.886  57.693  1.00  0.00     0.160 HD
HETATM   28  H   UNL     1      10.883  30.706  58.664  1.00  0.00     0.160 HD
HETATM   29  H   UNL     1       8.199  32.706  58.350  1.00  0.00     0.165 HD
ENDBRANCH  22  23
BRANCH  22  30
HETATM   30  C   UNL     1       6.109  32.740  60.236  1.00  0.00    -0.035 A 
HETATM   31  C   UNL     1       6.889  32.958  61.384  1.00  0.00     0.011 A 
HETATM   32  C   UNL     1       6.489  33.885  62.350  1.00  0.00     0.024 A 
HETATM   33  C   UNL     1       5.308  34.600  62.177  1.00  0.00     0.034 A 
HETATM   34 CL   UNL     1       4.816  35.740  63.369  1.00  0.00    -0.084 Cl
HETATM   35  C   UNL     1       4.521  34.396  61.047  1.00  0.00     0.024 A 
HETATM   36  C   UNL     1       4.917  33.467  60.082  1.00  0.00     0.011 A 
ENDBRANCH  22  30
ENDBRANCH  21  22
ENDBRANCH   2  21
TORSDOF 7
ENDMDL
MODEL 7
REMARK VINA RESULT:      -9.3      2.619      3.492
REMARK  7 active torsions:
REMARK  status: ('A' for Active; 'I' for Inactive)
REMARK    1  A    between atoms: C_4  and  C_5 
REMARK    2  A    between atoms: C_9  and  C_10 
REMARK       I    between atoms: C_10  and  N_11 
REMARK    3  A    between atoms: N_11  and  N_12 
REMARK       I    between atoms: N_12  and  C_13 
REMARK    4  A    between atoms: C_13  and  C_14 
REMARK    5  A    between atoms: C_14  and  C_15 
REMARK    6  A    between atoms: C_15  and  N_16 
REMARK    7  A    between atoms: C_15  and  C_20 
REMARK       I    between atoms: N_16  and  C_17 
REMARK       I    between atoms: C_17  and  N_18 
ROOT
HETATM    1  N   UNL     1       7.120  27.211  56.768  1.00  0.00    -0.267 N 
HETATM    2  C   UNL     1       7.305  26.034  57.458  1.00  0.00     0.238 C 
HETATM    3  O   UNL     1       7.624  26.004  58.648  1.00  0.00    -0.272 OA
HETATM    4  H   UNL     1       6.610  27.237  55.876  1.00  0.00     0.190 HD
ENDROOT
BRANCH   1   5
HETATM    5  N   UNL     1       7.214  28.400  57.501  1.00  0.00    -0.262 N 
HETATM    6  C   UNL     1       8.413  29.074  57.573  1.00  0.00     0.288 C 
HETATM    7  O   UNL     1       9.394  28.762  56.903  1.00  0.00    -0.264 OA
HETATM    8  H   UNL     1       6.429  28.599  58.115  1.00  0.00     0.190 HD
BRANCH   6   9
HETATM    9  C   UNL     1       8.434  30.172  58.502  1.00  0.00     0.121 A 
HETATM   10  N   UNL     1       9.286  31.229  58.350  1.00  0.00    -0.272 N 
HETATM   11  N   UNL     1       9.195  32.153  59.317  1.00  0.00    -0.174 NA
HETATM   12  H   UNL     1       9.963  31.362  57.604  1.00  0.00     0.189 HD
HETATM   13  C   UNL     1       8.234  31.698  60.137  1.00  0.00     0.089 A 
HETATM   14  C   UNL     1       7.729  30.456  59.655  1.00  0.00     0.071 A 
BRANCH  13  15
HETATM   15  C   UNL     1       7.833  32.432  61.344  1.00  0.00    -0.006 A 
HETATM   16  C   UNL     1       6.841  33.424  61.297  1.00  0.00     0.014 A 
HETATM   17  C   UNL     1       6.459  34.107  62.455  1.00  0.00     0.001 A 
HETATM   18  C   UNL     1       7.059  33.808  63.674  1.00  0.00     0.000 A 
HETATM   19  C   UNL     1       8.048  32.830  63.738  1.00  0.00     0.001 A 
HETATM   20  C   UNL     1       8.433  32.148  62.580  1.00  0.00     0.014 A 
ENDBRANCH  13  15
ENDBRANCH   6   9
ENDBRANCH   1   5
BRANCH   2  21
HETATM   21  C   UNL     1       7.087  24.782  56.653  1.00  0.00     0.134 C 
BRANCH  21  22
HETATM   22  C   UNL     1       7.989  24.778  55.415  1.00  0.00     0.128 C 
BRANCH  22  23
HETATM   23  N   UNL     1       8.878  23.631  55.226  1.00  0.00    -0.334 N 
HETATM   24  C   UNL     1       8.521  22.323  55.192  1.00  0.00     0.314 C 
HETATM   25  N   UNL     1       9.547  21.507  54.852  1.00  0.00    -0.352 N 
HETATM   26  O   UNL     1       7.423  21.874  55.482  1.00  0.00    -0.248 OA
HETATM   27  H   UNL     1      10.211  21.831  54.164  1.00  0.00     0.160 HD
HETATM   28  H   UNL     1       9.278  20.535  54.755  1.00  0.00     0.160 HD
HETATM   29  H   UNL     1       9.830  23.845  54.968  1.00  0.00     0.165 HD
ENDBRANCH  22  23
BRANCH  22  30
HETATM   30  C   UNL     1       7.164  25.004  54.155  1.00  0.00    -0.035 A 
HETATM   31  C   UNL     1       7.807  25.281  52.937  1.00  0.00     0.011 A 
HETATM   32  C   UNL     1       7.064  25.514  51.777  1.00  0.00     0.024 A 
HETATM   33  C   UNL     1       5.674  25.473  51.825  1.00  0.00     0.034 A 
HETATM   34 CL   UNL     1       4.760  25.763  50.396  1.00  0.00    -0.084 Cl
HETATM   35  C   UNL     1       5.018  25.202  53.023  1.00  0.00     0.024 A 
HETATM   36  C   UNL     1       5.760  24.972  54.185  1.00  0.00     0.011 A 
ENDBRANCH  22  30
ENDBRANCH  21  22
ENDBRANCH   2  21
TORSDOF 7
ENDMDL
MODEL 8
REMARK VINA RESULT:      -9.0      2.751      3.397
REMARK  7 active torsions:
REMARK  status: ('A' for Active; 'I' for Inactive)
REMARK    1  A    between atoms: C_4  and  C_5 
REMARK    2  A    between atoms: C_9  and  C_10 
REMARK       I    between atoms: C_10  and  N_11 
REMARK    3  A    between atoms: N_11  and  N_12 
REMARK       I    between atoms: N_12  and  C_13 
REMARK    4  A    between atoms: C_13  and  C_14 
REMARK    5  A    between atoms: C_14  and  C_15 
REMARK    6  A    between atoms: C_15  and  N_16 
REMARK    7  A    between atoms: C_15  and  C_20 
REMARK       I    between atoms: N_16  and  C_17 
REMARK       I    between atoms: C_17  and  N_18 
ROOT
HETATM    1  N   UNL     1       4.709  27.660  56.917  1.00  0.00    -0.267 N 
HETATM    2  C   UNL     1       5.806  26.828  56.959  1.00  0.00     0.238 C 
HETATM    3  O   UNL     1       6.839  27.119  57.562  1.00  0.00    -0.272 OA
HETATM    4  H   UNL     1       3.781  27.312  56.647  1.00  0.00     0.190 HD
ENDROOT
BRANCH   1   5
HETATM    5  N   UNL     1       4.771  28.832  57.680  1.00  0.00    -0.262 N 
HETATM    6  C   UNL     1       4.357  30.030  57.140  1.00  0.00     0.288 C 
HETATM    7  O   UNL     1       3.793  30.111  56.052  1.00  0.00    -0.264 OA
HETATM    8  H   UNL     1       5.314  28.769  58.537  1.00  0.00     0.190 HD
BRANCH   6   9
HETATM    9  C   UNL     1       4.642  31.186  57.947  1.00  0.00     0.121 A 
HETATM   10  N   UNL     1       5.724  31.985  57.705  1.00  0.00    -0.272 N 
HETATM   11  N   UNL     1       5.859  33.004  58.566  1.00  0.00    -0.174 NA
HETATM   12  H   UNL     1       6.412  31.869  56.967  1.00  0.00     0.189 HD
HETATM   13  C   UNL     1       4.817  32.885  59.405  1.00  0.00     0.089 A 
HETATM   14  C   UNL     1       4.028  31.755  59.045  1.00  0.00     0.071 A 
BRANCH  13  15
HETATM   15  C   UNL     1       4.606  33.821  60.517  1.00  0.00    -0.006 A 
HETATM   16  C   UNL     1       5.497  33.878  61.599  1.00  0.00     0.014 A 
HETATM   17  C   UNL     1       5.293  34.783  62.645  1.00  0.00     0.001 A 
HETATM   18  C   UNL     1       4.198  35.641  62.624  1.00  0.00     0.000 A 
HETATM   19  C   UNL     1       3.301  35.595  61.559  1.00  0.00     0.001 A 
HETATM   20  C   UNL     1       3.503  34.689  60.514  1.00  0.00     0.014 A 
ENDBRANCH  13  15
ENDBRANCH   6   9
ENDBRANCH   1   5
BRANCH   2  21
HETATM   21  C   UNL     1       5.650  25.531  56.212  1.00  0.00     0.134 C 
BRANCH  21  22
HETATM   22  C   UNL     1       6.385  25.594  54.870  1.00  0.00     0.128 C 
BRANCH  22  23
HETATM   23  N   UNL     1       7.399  26.635  54.699  1.00  0.00    -0.334 N 
HETATM   24  C   UNL     1       7.291  27.760  53.950  1.00  0.00     0.314 C 
HETATM   25  N   UNL     1       8.339  28.602  54.112  1.00  0.00    -0.352 N 
HETATM   26  O   UNL     1       6.394  28.009  53.160  1.00  0.00    -0.248 OA
HETATM   27  H   UNL     1       8.751  28.687  55.029  1.00  0.00     0.160 HD
HETATM   28  H   UNL     1       8.238  29.478  53.611  1.00  0.00     0.160 HD
HETATM   29  H   UNL     1       8.208  26.570  55.299  1.00  0.00     0.165 HD
ENDBRANCH  22  23
BRANCH  22  30
HETATM   30  C   UNL     1       6.978  24.235  54.522  1.00  0.00    -0.035 A 
HETATM   31  C   UNL     1       7.289  23.926  53.187  1.00  0.00     0.011 A 
HETATM   32  C   UNL     1       7.811  22.675  52.849  1.00  0.00     0.024 A 
HETATM   33  C   UNL     1       8.026  21.723  53.842  1.00  0.00     0.034 A 
HETATM   34 CL   UNL     1       8.667  20.182  53.423  1.00  0.00    -0.084 Cl
HETATM   35  C   UNL     1       7.722  22.009  55.170  1.00  0.00     0.024 A 
HETATM   36  C   UNL     1       7.196  23.259  55.509  1.00  0.00     0.011 A 
ENDBRANCH  22  30
ENDBRANCH  21  22
ENDBRANCH   2  21
TORSDOF 7
ENDMDL
MODEL 9
REMARK VINA RESULT:      -8.9      4.116     11.076
REMARK  7 active torsions:
REMARK  status: ('A' for Active; 'I' for Inactive)
REMARK    1  A    between atoms: C_4  and  C_5 
REMARK    2  A    between atoms: C_9  and  C_10 
REMARK       I    between atoms: C_10  and  N_11 
REMARK    3  A    between atoms: N_11  and  N_12 
REMARK       I    between atoms: N_12  and  C_13 
REMARK    4  A    between atoms: C_13  and  C_14 
REMARK    5  A    between atoms: C_14  and  C_15 
REMARK    6  A    between atoms: C_15  and  N_16 
REMARK    7  A    between atoms: C_15  and  C_20 
REMARK       I    between atoms: N_16  and  C_17 
REMARK       I    between atoms: C_17  and  N_18 
ROOT
HETATM    1  N   UNL     1       6.056  31.537  57.975  1.00  0.00    -0.267 N 
HETATM    2  C   UNL     1       6.904  31.621  59.057  1.00  0.00     0.238 C 
HETATM    3  O   UNL     1       7.896  30.902  59.181  1.00  0.00    -0.272 OA
HETATM    4  H   UNL     1       5.399  32.294  57.748  1.00  0.00     0.190 HD
ENDROOT
BRANCH   1   5
HETATM    5  N   UNL     1       6.419  30.657  56.950  1.00  0.00    -0.262 N 
HETATM    6  C   UNL     1       5.628  29.566  56.664  1.00  0.00     0.288 C 
HETATM    7  O   UNL     1       4.524  29.391  57.174  1.00  0.00    -0.264 OA
HETATM    8  H   UNL     1       7.366  30.761  56.598  1.00  0.00     0.190 HD
BRANCH   6   9
HETATM    9  C   UNL     1       6.196  28.637  55.724  1.00  0.00     0.121 A 
HETATM   10  N   UNL     1       6.816  29.058  54.581  1.00  0.00    -0.272 N 
HETATM   11  N   UNL     1       7.267  28.064  53.802  1.00  0.00    -0.174 NA
HETATM   12  H   UNL     1       6.948  30.019  54.279  1.00  0.00     0.189 HD
HETATM   13  C   UNL     1       6.946  26.938  54.460  1.00  0.00     0.089 A 
HETATM   14  C   UNL     1       6.274  27.260  55.675  1.00  0.00     0.071 A 
BRANCH  13  15
HETATM   15  C   UNL     1       7.265  25.609  53.925  1.00  0.00    -0.006 A 
HETATM   16  C   UNL     1       7.611  25.431  52.577  1.00  0.00     0.014 A 
HETATM   17  C   UNL     1       7.926  24.162  52.082  1.00  0.00     0.001 A 
HETATM   18  C   UNL     1       7.901  23.056  52.926  1.00  0.00     0.000 A 
HETATM   19  C   UNL     1       7.556  23.214  54.266  1.00  0.00     0.001 A 
HETATM   20  C   UNL     1       7.239  24.482  54.761  1.00  0.00     0.014 A 
ENDBRANCH  13  15
ENDBRANCH   6   9
ENDBRANCH   1   5
BRANCH   2  21
HETATM   21  C   UNL     1       6.529  32.658  60.081  1.00  0.00     0.134 C 
BRANCH  21  22
HETATM   22  C   UNL     1       6.076  31.988  61.382  1.00  0.00     0.128 C 
BRANCH  22  23
HETATM   23  N   UNL     1       6.940  30.952  61.949  1.00  0.00    -0.334 N 
HETATM   24  C   UNL     1       8.210  31.110  62.398  1.00  0.00     0.314 C 
HETATM   25  N   UNL     1       8.695  30.000  63.004  1.00  0.00    -0.352 N 
HETATM   26  O   UNL     1       8.904  32.103  62.247  1.00  0.00    -0.248 OA
HETATM   27  H   UNL     1       8.065  29.444  63.563  1.00  0.00     0.160 HD
HETATM   28  H   UNL     1       9.617  30.126  63.405  1.00  0.00     0.160 HD
HETATM   29  H   UNL     1       6.501  30.065  62.143  1.00  0.00     0.165 HD
ENDBRANCH  22  23
BRANCH  22  30
HETATM   30  C   UNL     1       5.764  33.037  62.441  1.00  0.00    -0.035 A 
HETATM   31  C   UNL     1       6.090  34.384  62.211  1.00  0.00     0.011 A 
HETATM   32  C   UNL     1       5.831  35.354  63.182  1.00  0.00     0.024 A 
HETATM   33  C   UNL     1       5.245  34.987  64.390  1.00  0.00     0.034 A 
HETATM   34 CL   UNL     1       4.929  36.183  65.586  1.00  0.00    -0.084 Cl
HETATM   35  C   UNL     1       4.916  33.656  64.637  1.00  0.00     0.024 A 
HETATM   36  C   UNL     1       5.178  32.684  63.668  1.00  0.00     0.011 A 
ENDBRANCH  22  30
ENDBRANCH  21  22
ENDBRANCH   2  21
TORSDOF 7
ENDMDL
MODEL 10
REMARK VINA RESULT:      -8.8      2.036      2.594
REMARK  7 active torsions:
REMARK  status: ('A' for Active; 'I' for Inactive)
REMARK    1  A    between atoms: C_4  and  C_5 
REMARK    2  A    between atoms: C_9  and  C_10 
REMARK       I    between atoms: C_10  and  N_11 
REMARK    3  A    between atoms: N_11  and  N_12 
REMARK       I    between atoms: N_12  and  C_13 
REMARK    4  A    between atoms: C_13  and  C_14 
REMARK    5  A    between atoms: C_14  and  C_15 
REMARK    6  A    between atoms: C_15  and  N_16 
REMARK    7  A    between atoms: C_15  and  C_20 
REMARK       I    between atoms: N_16  and  C_17 
REMARK       I    between atoms: C_17  and  N_18 
ROOT
HETATM    1  N   UNL     1       6.868  29.611  55.509  1.00  0.00    -0.267 N 
HETATM    2  C   UNL     1       7.608  28.459  55.366  1.00  0.00     0.238 C 
HETATM    3  O   UNL     1       8.390  28.059  56.229  1.00  0.00    -0.272 OA
HETATM    4  H   UNL     1       6.044  29.797  54.924  1.00  0.00     0.190 HD
ENDROOT
BRANCH   1   5
HETATM    5  N   UNL     1       6.963  30.279  56.735  1.00  0.00    -0.262 N 
HETATM    6  C   UNL     1       5.883  30.309  57.590  1.00  0.00     0.288 C 
HETATM    7  O   UNL     1       4.863  29.651  57.399  1.00  0.00    -0.264 OA
HETATM    8  H   UNL     1       7.771  30.885  56.843  1.00  0.00     0.190 HD
BRANCH   6   9
HETATM    9  C   UNL     1       6.036  31.177  58.727  1.00  0.00     0.121 A 
HETATM   10  N   UNL     1       7.067  31.030  59.612  1.00  0.00    -0.272 N 
HETATM   11  N   UNL     1       7.049  31.904  60.628  1.00  0.00    -0.174 NA
HETATM   12  H   UNL     1       7.808  30.337  59.572  1.00  0.00     0.189 HD
HETATM   13  C   UNL     1       5.969  32.671  60.402  1.00  0.00     0.089 A 
HETATM   14  C   UNL     1       5.310  32.245  59.213  1.00  0.00     0.071 A 
BRANCH  13  15
HETATM   15  C   UNL     1       5.588  33.761  61.309  1.00  0.00    -0.006 A 
HETATM   16  C   UNL     1       6.339  34.046  62.460  1.00  0.00     0.014 A 
HETATM   17  C   UNL     1       5.975  35.094  63.310  1.00  0.00     0.001 A 
HETATM   18  C   UNL     1       4.857  35.872  63.021  1.00  0.00     0.000 A 
HETATM   19  C   UNL     1       4.097  35.600  61.886  1.00  0.00     0.001 A 
HETATM   20  C   UNL     1       4.460  34.550  61.037  1.00  0.00     0.014 A 
ENDBRANCH  13  15
ENDBRANCH   6   9
ENDBRANCH   1   5
BRANCH   2  21
HETATM   21  C   UNL     1       7.391  27.719  54.073  1.00  0.00     0.134 C 
BRANCH  21  22
HETATM   22  C   UNL     1       6.269  26.688  54.228  1.00  0.00     0.128 C 
BRANCH  22  23
HETATM   23  N   UNL     1       5.050  26.887  53.444  1.00  0.00    -0.334 N 
HETATM   24  C   UNL     1       4.133  27.873  53.605  1.00  0.00     0.314 C 
HETATM   25  N   UNL     1       3.193  27.880  52.630  1.00  0.00    -0.352 N 
HETATM   26  O   UNL     1       4.083  28.659  54.538  1.00  0.00    -0.248 OA
HETATM   27  H   UNL     1       3.474  27.649  51.689  1.00  0.00     0.160 HD
HETATM   28  H   UNL     1       2.541  28.653  52.699  1.00  0.00     0.160 HD
HETATM   29  H   UNL     1       4.951  26.310  52.623  1.00  0.00     0.165 HD
ENDBRANCH  22  23
BRANCH  22  30
HETATM   30  C   UNL     1       6.804  25.280  54.002  1.00  0.00    -0.035 A 
HETATM   31  C   UNL     1       6.818  24.357  55.060  1.00  0.00     0.011 A 
HETATM   32  C   UNL     1       7.327  23.069  54.874  1.00  0.00     0.024 A 
HETATM   33  C   UNL     1       7.826  22.694  53.630  1.00  0.00     0.034 A 
HETATM   34 CL   UNL     1       8.454  21.109  53.404  1.00  0.00    -0.084 Cl
HETATM   35  C   UNL     1       7.822  23.596  52.569  1.00  0.00     0.024 A 
HETATM   36  C   UNL     1       7.317  24.885  52.755  1.00  0.00     0.011 A 
ENDBRANCH  22  30
ENDBRANCH  21  22
ENDBRANCH   2  21
TORSDOF 7
ENDMDL
