MODEL 1
REMARK VINA RESULT:      -9.2      0.000      0.000
REMARK  3 active torsions:
REMARK  status: ('A' for Active; 'I' for Inactive)
REMARK    1  A    between atoms: C_3  and  N_4 
REMARK       I    between atoms: N_4  and  C_5 
REMARK    2  A    between atoms: C_5  and  C_6 
REMARK    3  A    between atoms: C_7  and  C_8 
ROOT
HETATM    1  C   UNL     1       5.091  27.317  51.985  1.00  0.00     0.063 C 
HETATM    2  C   UNL     1       5.373  27.678  50.527  1.00  0.00     0.216 C 
HETATM    3  N   UNL     1       5.684  29.094  50.393  1.00  0.00    -0.091 N 
HETATM    4  C   UNL     1       5.370  30.037  51.328  1.00  0.00     0.735 A 
HETATM    5  N   UNL     1       4.810  29.638  52.488  1.00  0.00    -0.191 N 
HETATM    6  N   UNL     1       6.253  29.666  49.323  1.00  0.00     0.012 NA
HETATM    7  N   UNL     1       6.264  30.965  49.611  1.00  0.00     0.033 NA
HETATM    8  N   UNL     1       5.711  31.210  50.855  1.00  0.00     0.030 NA
HETATM    9  C   UNL     1       4.779  28.296  52.879  1.00  0.00     0.037 C 
HETATM   10  C   UNL     1       4.400  28.057  54.321  1.00  0.00     0.070 C 
HETATM   11  H   UNL     1       4.690  30.329  53.227  1.00  0.00     0.184 HD
ENDROOT
BRANCH   1  12
HETATM   12  C   UNL     1       5.357  25.906  52.437  1.00  0.00     0.256 C 
HETATM   13  N   UNL     1       6.590  25.684  53.006  1.00  0.00    -0.323 N 
HETATM   14  H   UNL     1       7.323  26.368  52.820  1.00  0.00     0.169 HD
HETATM   15  O   UNL     1       4.492  25.051  52.280  1.00  0.00    -0.267 OA
BRANCH  13  16
HETATM   16  C   UNL     1       7.061  24.479  53.582  1.00  0.00     0.041 A 
HETATM   17  C   UNL     1       6.905  24.084  54.922  1.00  0.00    -0.035 A 
HETATM   18  C   UNL     1       6.307  24.940  56.005  1.00  0.00     0.050 C 
HETATM   19  C   UNL     1       7.386  22.817  55.317  1.00  0.00     0.009 A 
HETATM   20  C   UNL     1       8.065  21.988  54.427  1.00  0.00     0.001 A 
HETATM   21  C   UNL     1       8.285  22.413  53.125  1.00  0.00     0.002 A 
HETATM   22  C   UNL     1       7.794  23.652  52.711  1.00  0.00     0.030 A 
ENDBRANCH  13  16
ENDBRANCH   1  12
BRANCH   2  23
HETATM   23  C   UNL     1       4.196  27.304  49.623  1.00  0.00     0.064 A 
HETATM   24  N   UNL     1       3.172  28.204  49.583  1.00  0.00    -0.263 NA
HETATM   25  C   UNL     1       2.108  27.921  48.794  1.00  0.00     0.117 A 
HETATM   26  C   UNL     1       2.027  26.803  47.986  1.00  0.00     0.019 A 
HETATM   27  C   UNL     1       3.094  25.918  47.990  1.00  0.00     0.003 A 
HETATM   28  C   UNL     1       4.193  26.168  48.809  1.00  0.00     0.030 A 
ENDBRANCH   2  23
TORSDOF 3
ENDMDL
MODEL 2
REMARK VINA RESULT:      -9.1      3.612      6.164
REMARK  3 active torsions:
REMARK  status: ('A' for Active; 'I' for Inactive)
REMARK    1  A    between atoms: C_3  and  N_4 
REMARK       I    between atoms: N_4  and  C_5 
REMARK    2  A    between atoms: C_5  and  C_6 
REMARK    3  A    between atoms: C_7  and  C_8 
ROOT
HETATM    1  C   UNL     1       6.059  28.010  55.307  1.00  0.00     0.063 C 
HETATM    2  C   UNL     1       6.436  28.764  56.582  1.00  0.00     0.216 C 
HETATM    3  N   UNL     1       5.666  29.994  56.706  1.00  0.00    -0.091 N 
HETATM    4  C   UNL     1       5.021  30.600  55.666  1.00  0.00     0.735 A 
HETATM    5  N   UNL     1       5.019  29.991  54.463  1.00  0.00    -0.191 N 
HETATM    6  N   UNL     1       5.541  30.722  57.824  1.00  0.00     0.012 NA
HETATM    7  N   UNL     1       4.830  31.783  57.448  1.00  0.00     0.033 NA
HETATM    8  N   UNL     1       4.505  31.721  56.104  1.00  0.00     0.030 NA
HETATM    9  C   UNL     1       5.417  28.662  54.298  1.00  0.00     0.037 C 
HETATM   10  C   UNL     1       5.068  28.050  52.962  1.00  0.00     0.070 C 
HETATM   11  H   UNL     1       4.437  30.386  53.726  1.00  0.00     0.184 HD
ENDROOT
BRANCH   1  12
HETATM   12  C   UNL     1       6.233  26.516  55.281  1.00  0.00     0.256 C 
HETATM   13  N   UNL     1       7.378  26.059  54.670  1.00  0.00    -0.323 N 
HETATM   14  H   UNL     1       7.859  26.697  54.037  1.00  0.00     0.169 HD
HETATM   15  O   UNL     1       5.374  25.801  55.788  1.00  0.00    -0.267 OA
BRANCH  13  16
HETATM   16  C   UNL     1       7.821  24.717  54.579  1.00  0.00     0.041 A 
HETATM   17  C   UNL     1       8.398  23.962  55.615  1.00  0.00    -0.035 A 
HETATM   18  C   UNL     1       8.753  24.501  56.975  1.00  0.00     0.050 C 
HETATM   19  C   UNL     1       8.730  22.613  55.369  1.00  0.00     0.009 A 
HETATM   20  C   UNL     1       8.558  22.040  54.111  1.00  0.00     0.001 A 
HETATM   21  C   UNL     1       8.058  22.809  53.071  1.00  0.00     0.002 A 
HETATM   22  C   UNL     1       7.701  24.137  53.302  1.00  0.00     0.030 A 
ENDBRANCH  13  16
ENDBRANCH   1  12
BRANCH   2  23
HETATM   23  C   UNL     1       7.935  29.069  56.626  1.00  0.00     0.064 A 
HETATM   24  N   UNL     1       8.562  29.130  55.416  1.00  0.00    -0.263 NA
HETATM   25  C   UNL     1       9.889  29.402  55.402  1.00  0.00     0.117 A 
HETATM   26  C   UNL     1      10.630  29.674  56.536  1.00  0.00     0.019 A 
HETATM   27  C   UNL     1       9.976  29.663  57.759  1.00  0.00     0.003 A 
HETATM   28  C   UNL     1       8.616  29.363  57.810  1.00  0.00     0.030 A 
ENDBRANCH   2  23
TORSDOF 3
ENDMDL
MODEL 3
REMARK VINA RESULT:      -9.1      2.418      5.189
REMARK  3 active torsions:
REMARK  status: ('A' for Active; 'I' for Inactive)
REMARK    1  A    between atoms: C_3  and  N_4 
REMARK       I    between atoms: N_4  and  C_5 
REMARK    2  A    between atoms: C_5  and  C_6 
REMARK    3  A    between atoms: C_7  and  C_8 
ROOT
HETATM    1  C   UNL     1       5.423  27.026  53.756  1.00  0.00     0.063 C 
HETATM    2  C   UNL     1       5.139  27.747  55.073  1.00  0.00     0.216 C 
HETATM    3  N   UNL     1       4.379  28.969  54.844  1.00  0.00    -0.091 N 
HETATM    4  C   UNL     1       4.292  29.599  53.636  1.00  0.00     0.735 A 
HETATM    5  N   UNL     1       4.871  29.024  52.562  1.00  0.00    -0.191 N 
HETATM    6  N   UNL     1       3.727  29.666  55.785  1.00  0.00     0.012 NA
HETATM    7  N   UNL     1       3.260  30.732  55.139  1.00  0.00     0.033 NA
HETATM    8  N   UNL     1       3.611  30.705  53.801  1.00  0.00     0.030 NA
HETATM    9  C   UNL     1       5.324  27.702  52.577  1.00  0.00     0.037 C 
HETATM   10  C   UNL     1       5.660  27.124  51.223  1.00  0.00     0.070 C 
HETATM   11  H   UNL     1       4.699  29.435  51.646  1.00  0.00     0.184 HD
ENDROOT
BRANCH   1  12
HETATM   12  C   UNL     1       5.616  25.534  53.784  1.00  0.00     0.256 C 
HETATM   13  N   UNL     1       6.900  25.103  54.026  1.00  0.00    -0.323 N 
HETATM   14  H   UNL     1       7.656  25.769  53.873  1.00  0.00     0.169 HD
HETATM   15  O   UNL     1       4.652  24.800  53.595  1.00  0.00    -0.267 OA
BRANCH  13  16
HETATM   16  C   UNL     1       7.336  23.764  54.182  1.00  0.00     0.041 A 
HETATM   17  C   UNL     1       7.647  23.130  55.397  1.00  0.00    -0.035 A 
HETATM   18  C   UNL     1       7.681  23.812  56.737  1.00  0.00     0.050 C 
HETATM   19  C   UNL     1       8.012  21.767  55.377  1.00  0.00     0.009 A 
HETATM   20  C   UNL     1       8.132  21.064  54.181  1.00  0.00     0.001 A 
HETATM   21  C   UNL     1       7.898  21.713  52.978  1.00  0.00     0.002 A 
HETATM   22  C   UNL     1       7.512  23.054  52.980  1.00  0.00     0.030 A 
ENDBRANCH  13  16
ENDBRANCH   1  12
BRANCH   2  23
HETATM   23  C   UNL     1       6.433  28.060  55.828  1.00  0.00     0.064 A 
HETATM   24  N   UNL     1       7.403  28.687  55.104  1.00  0.00    -0.263 NA
HETATM   25  C   UNL     1       8.567  28.990  55.728  1.00  0.00     0.117 A 
HETATM   26  C   UNL     1       8.804  28.749  57.068  1.00  0.00     0.019 A 
HETATM   27  C   UNL     1       7.794  28.159  57.812  1.00  0.00     0.003 A 
HETATM   28  C   UNL     1       6.594  27.814  57.194  1.00  0.00     0.030 A 
ENDBRANCH   2  23
TORSDOF 3
ENDMDL
MODEL 4
REMARK VINA RESULT:      -9.0      3.136      5.087
REMARK  3 active torsions:
REMARK  status: ('A' for Active; 'I' for Inactive)
REMARK    1  A    between atoms: C_3  and  N_4 
REMARK       I    between atoms: N_4  and  C_5 
REMARK    2  A    between atoms: C_5  and  C_6 
REMARK    3  A    between atoms: C_7  and  C_8 
ROOT
HETATM    1  C   UNL     1       7.524  26.461  55.774  1.00  0.00     0.063 C 
HETATM    2  C   UNL     1       7.905  27.598  54.825  1.00  0.00     0.216 C 
HETATM    3  N   UNL     1       8.795  28.546  55.481  1.00  0.00    -0.091 N 
HETATM    4  C   UNL     1       8.938  28.650  56.834  1.00  0.00     0.735 A 
HETATM    5  N   UNL     1       8.285  27.773  57.623  1.00  0.00    -0.191 N 
HETATM    6  N   UNL     1       9.534  29.476  54.858  1.00  0.00     0.012 NA
HETATM    7  N   UNL     1      10.111  30.153  55.847  1.00  0.00     0.033 NA
HETATM    8  N   UNL     1       9.743  29.653  57.084  1.00  0.00     0.030 NA
HETATM    9  C   UNL     1       7.685  26.617  57.117  1.00  0.00     0.037 C 
HETATM   10  C   UNL     1       7.269  25.603  58.157  1.00  0.00     0.070 C 
HETATM   11  H   UNL     1       8.490  27.779  58.621  1.00  0.00     0.184 HD
ENDROOT
BRANCH   1  12
HETATM   12  C   UNL     1       7.164  25.126  55.182  1.00  0.00     0.256 C 
HETATM   13  N   UNL     1       8.201  24.231  55.052  1.00  0.00    -0.323 N 
HETATM   14  H   UNL     1       9.149  24.605  55.072  1.00  0.00     0.169 HD
HETATM   15  O   UNL     1       6.002  24.907  54.853  1.00  0.00    -0.267 OA
BRANCH  13  16
HETATM   16  C   UNL     1       8.122  22.890  54.602  1.00  0.00     0.041 A 
HETATM   17  C   UNL     1       8.108  21.743  55.415  1.00  0.00    -0.035 A 
HETATM   18  C   UNL     1       8.296  21.746  56.907  1.00  0.00     0.050 C 
HETATM   19  C   UNL     1       7.964  20.480  54.803  1.00  0.00     0.009 A 
HETATM   20  C   UNL     1       7.902  20.345  53.418  1.00  0.00     0.001 A 
HETATM   21  C   UNL     1       7.991  21.473  52.615  1.00  0.00     0.002 A 
HETATM   22  C   UNL     1       8.109  22.733  53.204  1.00  0.00     0.030 A 
ENDBRANCH  13  16
ENDBRANCH   1  12
BRANCH   2  23
HETATM   23  C   UNL     1       6.664  28.316  54.290  1.00  0.00     0.064 A 
HETATM   24  N   UNL     1       6.442  28.194  52.950  1.00  0.00    -0.263 NA
HETATM   25  C   UNL     1       5.354  28.809  52.428  1.00  0.00     0.117 A 
HETATM   26  C   UNL     1       4.429  29.504  53.182  1.00  0.00     0.019 A 
HETATM   27  C   UNL     1       4.631  29.581  54.552  1.00  0.00     0.003 A 
HETATM   28  C   UNL     1       5.754  28.980  55.117  1.00  0.00     0.030 A 
ENDBRANCH   2  23
TORSDOF 3
ENDMDL
MODEL 5
REMARK VINA RESULT:      -8.8      4.227      7.306
REMARK  3 active torsions:
REMARK  status: ('A' for Active; 'I' for Inactive)
REMARK    1  A    between atoms: C_3  and  N_4 
REMARK       I    between atoms: N_4  and  C_5 
REMARK    2  A    between atoms: C_5  and  C_6 
REMARK    3  A    between atoms: C_7  and  C_8 
ROOT
HETATM    1  C   UNL     1       6.638  27.068  55.807  1.00  0.00     0.063 C 
HETATM    2  C   UNL     1       7.453  26.222  54.830  1.00  0.00     0.216 C 
HETATM    3  N   UNL     1       6.788  26.133  53.538  1.00  0.00    -0.091 N 
HETATM    4  C   UNL     1       5.463  26.397  53.341  1.00  0.00     0.735 A 
HETATM    5  N   UNL     1       4.731  26.848  54.380  1.00  0.00    -0.191 N 
HETATM    6  N   UNL     1       7.359  25.723  52.397  1.00  0.00     0.012 NA
HETATM    7  N   UNL     1       6.365  25.724  51.512  1.00  0.00     0.033 NA
HETATM    8  N   UNL     1       5.177  26.136  52.090  1.00  0.00     0.030 NA
HETATM    9  C   UNL     1       5.318  27.300  55.565  1.00  0.00     0.037 C 
HETATM   10  C   UNL     1       4.390  28.048  56.494  1.00  0.00     0.070 C 
HETATM   11  H   UNL     1       3.778  27.157  54.198  1.00  0.00     0.184 HD
ENDROOT
BRANCH   1  12
HETATM   12  C   UNL     1       7.365  27.787  56.912  1.00  0.00     0.256 C 
HETATM   13  N   UNL     1       7.791  29.061  56.615  1.00  0.00    -0.323 N 
HETATM   14  H   UNL     1       7.862  29.316  55.631  1.00  0.00     0.169 HD
HETATM   15  O   UNL     1       7.538  27.220  57.986  1.00  0.00    -0.267 OA
BRANCH  13  16
HETATM   16  C   UNL     1       8.424  29.975  57.493  1.00  0.00     0.041 A 
HETATM   17  C   UNL     1       9.802  30.251  57.550  1.00  0.00    -0.035 A 
HETATM   18  C   UNL     1      10.856  29.523  56.761  1.00  0.00     0.050 C 
HETATM   19  C   UNL     1      10.259  31.239  58.447  1.00  0.00     0.009 A 
HETATM   20  C   UNL     1       9.388  31.893  59.315  1.00  0.00     0.001 A 
HETATM   21  C   UNL     1       8.040  31.565  59.308  1.00  0.00     0.002 A 
HETATM   22  C   UNL     1       7.566  30.609  58.411  1.00  0.00     0.030 A 
ENDBRANCH  13  16
ENDBRANCH   1  12
BRANCH   2  23
HETATM   23  C   UNL     1       7.716  24.822  55.390  1.00  0.00     0.064 A 
HETATM   24  N   UNL     1       8.470  24.771  56.525  1.00  0.00    -0.263 NA
HETATM   25  C   UNL     1       8.727  23.554  57.063  1.00  0.00     0.117 A 
HETATM   26  C   UNL     1       8.224  22.371  56.560  1.00  0.00     0.019 A 
HETATM   27  C   UNL     1       7.414  22.433  55.436  1.00  0.00     0.003 A 
HETATM   28  C   UNL     1       7.150  23.666  54.845  1.00  0.00     0.030 A 
ENDBRANCH   2  23
TORSDOF 3
ENDMDL
MODEL 6
REMARK VINA RESULT:      -8.4      3.001      4.344
REMARK  3 active torsions:
REMARK  status: ('A' for Active; 'I' for Inactive)
REMARK    1  A    between atoms: C_3  and  N_4 
REMARK       I    between atoms: N_4  and  C_5 
REMARK    2  A    between atoms: C_5  and  C_6 
REMARK    3  A    between atoms: C_7  and  C_8 
ROOT
HETATM    1  C   UNL     1       6.250  26.028  55.689  1.00  0.00     0.063 C 
HETATM    2  C   UNL     1       6.547  27.283  54.870  1.00  0.00     0.216 C 
HETATM    3  N   UNL     1       5.963  28.462  55.494  1.00  0.00    -0.091 N 
HETATM    4  C   UNL     1       4.964  28.419  56.422  1.00  0.00     0.735 A 
HETATM    5  N   UNL     1       4.536  27.217  56.859  1.00  0.00    -0.191 N 
HETATM    6  N   UNL     1       6.276  29.732  55.200  1.00  0.00     0.012 NA
HETATM    7  N   UNL     1       5.445  30.457  55.946  1.00  0.00     0.033 NA
HETATM    8  N   UNL     1       4.618  29.650  56.707  1.00  0.00     0.030 NA
HETATM    9  C   UNL     1       5.239  26.037  56.602  1.00  0.00     0.037 C 
HETATM   10  C   UNL     1       4.797  24.839  57.409  1.00  0.00     0.070 C 
HETATM   11  H   UNL     1       3.878  27.194  57.636  1.00  0.00     0.184 HD
ENDROOT
BRANCH   1  12
HETATM   12  C   UNL     1       7.212  24.874  55.604  1.00  0.00     0.256 C 
HETATM   13  N   UNL     1       6.738  23.748  54.971  1.00  0.00    -0.323 N 
HETATM   14  H   UNL     1       5.728  23.651  54.878  1.00  0.00     0.169 HD
HETATM   15  O   UNL     1       8.334  24.989  56.087  1.00  0.00    -0.267 OA
BRANCH  13  16
HETATM   16  C   UNL     1       7.457  22.560  54.688  1.00  0.00     0.041 A 
HETATM   17  C   UNL     1       7.999  21.674  55.635  1.00  0.00    -0.035 A 
HETATM   18  C   UNL     1       8.007  21.905  57.121  1.00  0.00     0.050 C 
HETATM   19  C   UNL     1       8.637  20.501  55.179  1.00  0.00     0.009 A 
HETATM   20  C   UNL     1       8.796  20.241  53.819  1.00  0.00     0.001 A 
HETATM   21  C   UNL     1       8.327  21.155  52.888  1.00  0.00     0.002 A 
HETATM   22  C   UNL     1       7.671  22.308  53.320  1.00  0.00     0.030 A 
ENDBRANCH  13  16
ENDBRANCH   1  12
BRANCH   2  23
HETATM   23  C   UNL     1       6.045  27.141  53.431  1.00  0.00     0.064 A 
HETATM   24  N   UNL     1       6.584  26.113  52.715  1.00  0.00    -0.263 NA
HETATM   25  C   UNL     1       6.169  25.942  51.437  1.00  0.00     0.117 A 
HETATM   26  C   UNL     1       5.192  26.714  50.837  1.00  0.00     0.019 A 
HETATM   27  C   UNL     1       4.609  27.724  51.587  1.00  0.00     0.003 A 
HETATM   28  C   UNL     1       5.031  27.941  52.896  1.00  0.00     0.030 A 
ENDBRANCH   2  23
TORSDOF 3
ENDMDL
MODEL 7
REMARK VINA RESULT:      -8.4     10.532     12.655
REMARK  3 active torsions:
REMARK  status: ('A' for Active; 'I' for Inactive)
REMARK    1  A    between atoms: C_3  and  N_4 
REMARK       I    between atoms: N_4  and  C_5 
REMARK    2  A    between atoms: C_5  and  C_6 
REMARK    3  A    between atoms: C_7  and  C_8 
ROOT
HETATM    1  C   UNL     1       3.809  33.976  59.918  1.00  0.00     0.063 C 
HETATM    2  C   UNL     1       2.678  33.947  60.945  1.00  0.00     0.216 C 
HETATM    3  N   UNL     1       1.439  34.454  60.370  1.00  0.00    -0.091 N 
HETATM    4  C   UNL     1       1.379  35.221  59.243  1.00  0.00     0.735 A 
HETATM    5  N   UNL     1       2.518  35.465  58.563  1.00  0.00    -0.191 N 
HETATM    6  N   UNL     1       0.217  34.294  60.896  1.00  0.00     0.012 NA
HETATM    7  N   UNL     1      -0.582  34.986  60.087  1.00  0.00     0.033 NA
HETATM    8  N   UNL     1       0.131  35.574  59.057  1.00  0.00     0.030 NA
HETATM    9  C   UNL     1       3.699  34.761  58.811  1.00  0.00     0.037 C 
HETATM   10  C   UNL     1       4.780  34.939  57.770  1.00  0.00     0.070 C 
HETATM   11  H   UNL     1       2.448  35.934  57.662  1.00  0.00     0.184 HD
ENDROOT
BRANCH   1  12
HETATM   12  C   UNL     1       4.932  32.985  60.062  1.00  0.00     0.256 C 
HETATM   13  N   UNL     1       6.023  33.419  60.778  1.00  0.00    -0.323 N 
HETATM   14  H   UNL     1       6.137  34.425  60.897  1.00  0.00     0.169 HD
HETATM   15  O   UNL     1       4.824  31.875  59.550  1.00  0.00    -0.267 OA
BRANCH  13  16
HETATM   16  C   UNL     1       7.172  32.666  61.126  1.00  0.00     0.041 A 
HETATM   17  C   UNL     1       7.569  32.315  62.428  1.00  0.00    -0.035 A 
HETATM   18  C   UNL     1       6.896  32.787  63.687  1.00  0.00     0.050 C 
HETATM   19  C   UNL     1       8.714  31.507  62.593  1.00  0.00     0.009 A 
HETATM   20  C   UNL     1       9.487  31.109  61.504  1.00  0.00     0.001 A 
HETATM   21  C   UNL     1       9.135  31.521  60.227  1.00  0.00     0.002 A 
HETATM   22  C   UNL     1       7.992  32.300  60.043  1.00  0.00     0.030 A 
ENDBRANCH  13  16
ENDBRANCH   1  12
BRANCH   2  23
HETATM   23  C   UNL     1       3.044  34.742  62.201  1.00  0.00     0.064 A 
HETATM   24  N   UNL     1       3.185  34.011  63.344  1.00  0.00    -0.263 NA
HETATM   25  C   UNL     1       3.513  34.668  64.482  1.00  0.00     0.117 A 
HETATM   26  C   UNL     1       3.767  36.024  64.539  1.00  0.00     0.019 A 
HETATM   27  C   UNL     1       3.675  36.755  63.364  1.00  0.00     0.003 A 
HETATM   28  C   UNL     1       3.316  36.113  62.181  1.00  0.00     0.030 A 
ENDBRANCH   2  23
TORSDOF 3
ENDMDL
MODEL 8
REMARK VINA RESULT:      -8.1      6.750      9.429
REMARK  3 active torsions:
REMARK  status: ('A' for Active; 'I' for Inactive)
REMARK    1  A    between atoms: C_3  and  N_4 
REMARK       I    between atoms: N_4  and  C_5 
REMARK    2  A    between atoms: C_5  and  C_6 
REMARK    3  A    between atoms: C_7  and  C_8 
ROOT
HETATM    1  C   UNL     1       7.714  30.005  58.202  1.00  0.00     0.063 C 
HETATM    2  C   UNL     1       6.590  29.010  57.917  1.00  0.00     0.216 C 
HETATM    3  N   UNL     1       7.129  27.701  57.576  1.00  0.00    -0.091 N 
HETATM    4  C   UNL     1       8.412  27.487  57.162  1.00  0.00     0.735 A 
HETATM    5  N   UNL     1       9.268  28.529  57.142  1.00  0.00    -0.191 N 
HETATM    6  N   UNL     1       6.433  26.555  57.558  1.00  0.00     0.012 NA
HETATM    7  N   UNL     1       7.301  25.650  57.113  1.00  0.00     0.033 NA
HETATM    8  N   UNL     1       8.536  26.219  56.857  1.00  0.00     0.030 NA
HETATM    9  C   UNL     1       8.977  29.745  57.765  1.00  0.00     0.037 C 
HETATM   10  C   UNL     1      10.150  30.686  57.911  1.00  0.00     0.070 C 
HETATM   11  H   UNL     1      10.250  28.339  56.950  1.00  0.00     0.184 HD
ENDROOT
BRANCH   1  12
HETATM   12  C   UNL     1       7.432  31.157  59.129  1.00  0.00     0.256 C 
HETATM   13  N   UNL     1       7.313  30.834  60.461  1.00  0.00    -0.323 N 
HETATM   14  H   UNL     1       7.124  29.860  60.694  1.00  0.00     0.169 HD
HETATM   15  O   UNL     1       7.324  32.288  58.667  1.00  0.00    -0.267 OA
BRANCH  13  16
HETATM   16  C   UNL     1       7.129  31.729  61.544  1.00  0.00     0.041 A 
HETATM   17  C   UNL     1       5.959  32.455  61.829  1.00  0.00    -0.035 A 
HETATM   18  C   UNL     1       4.735  32.490  60.954  1.00  0.00     0.050 C 
HETATM   19  C   UNL     1       5.926  33.260  62.987  1.00  0.00     0.009 A 
HETATM   20  C   UNL     1       7.042  33.400  63.808  1.00  0.00     0.001 A 
HETATM   21  C   UNL     1       8.219  32.742  63.482  1.00  0.00     0.002 A 
HETATM   22  C   UNL     1       8.262  31.922  62.355  1.00  0.00     0.030 A 
ENDBRANCH  13  16
ENDBRANCH   1  12
BRANCH   2  23
HETATM   23  C   UNL     1       5.669  29.513  56.802  1.00  0.00     0.064 A 
HETATM   24  N   UNL     1       5.983  29.094  55.542  1.00  0.00    -0.263 NA
HETATM   25  C   UNL     1       5.195  29.508  54.521  1.00  0.00     0.117 A 
HETATM   26  C   UNL     1       4.064  30.283  54.689  1.00  0.00     0.019 A 
HETATM   27  C   UNL     1       3.720  30.663  55.978  1.00  0.00     0.003 A 
HETATM   28  C   UNL     1       4.523  30.273  57.047  1.00  0.00     0.030 A 
ENDBRANCH   2  23
TORSDOF 3
ENDMDL
MODEL 9
REMARK VINA RESULT:      -7.7      8.439     11.575
REMARK  3 active torsions:
REMARK  status: ('A' for Active; 'I' for Inactive)
REMARK    1  A    between atoms: C_3  and  N_4 
REMARK       I    between atoms: N_4  and  C_5 
REMARK    2  A    between atoms: C_5  and  C_6 
REMARK    3  A    between atoms: C_7  and  C_8 
ROOT
HETATM    1  C   UNL     1       4.483  32.825  60.537  1.00  0.00     0.063 C 
HETATM    2  C   UNL     1       5.076  32.175  61.787  1.00  0.00     0.216 C 
HETATM    3  N   UNL     1       4.764  32.955  62.976  1.00  0.00    -0.091 N 
HETATM    4  C   UNL     1       4.375  34.263  62.951  1.00  0.00     0.735 A 
HETATM    5  N   UNL     1       4.183  34.860  61.757  1.00  0.00    -0.191 N 
HETATM    6  N   UNL     1       4.878  32.523  64.240  1.00  0.00     0.012 NA
HETATM    7  N   UNL     1       4.571  33.586  64.980  1.00  0.00     0.033 NA
HETATM    8  N   UNL     1       4.262  34.678  64.189  1.00  0.00     0.030 NA
HETATM    9  C   UNL     1       4.112  34.135  60.564  1.00  0.00     0.037 C 
HETATM   10  C   UNL     1       3.594  34.909  59.375  1.00  0.00     0.070 C 
HETATM   11  H   UNL     1       3.778  35.794  61.747  1.00  0.00     0.184 HD
ENDROOT
BRANCH   1  12
HETATM   12  C   UNL     1       4.144  31.944  59.365  1.00  0.00     0.256 C 
HETATM   13  N   UNL     1       5.128  31.813  58.412  1.00  0.00    -0.323 N 
HETATM   14  H   UNL     1       5.864  32.518  58.397  1.00  0.00     0.169 HD
HETATM   15  O   UNL     1       3.043  31.405  59.316  1.00  0.00    -0.267 OA
BRANCH  13  16
HETATM   16  C   UNL     1       5.098  30.989  57.261  1.00  0.00     0.041 A 
HETATM   17  C   UNL     1       4.460  31.287  56.044  1.00  0.00    -0.035 A 
HETATM   18  C   UNL     1       3.593  32.493  55.803  1.00  0.00     0.050 C 
HETATM   19  C   UNL     1       4.579  30.376  54.974  1.00  0.00     0.009 A 
HETATM   20  C   UNL     1       5.257  29.168  55.119  1.00  0.00     0.001 A 
HETATM   21  C   UNL     1       5.822  28.843  56.343  1.00  0.00     0.002 A 
HETATM   22  C   UNL     1       5.735  29.742  57.406  1.00  0.00     0.030 A 
ENDBRANCH  13  16
ENDBRANCH   1  12
BRANCH   2  23
HETATM   23  C   UNL     1       6.590  31.991  61.654  1.00  0.00     0.064 A 
HETATM   24  N   UNL     1       7.183  32.679  60.637  1.00  0.00    -0.263 NA
HETATM   25  C   UNL     1       8.522  32.552  60.480  1.00  0.00     0.117 A 
HETATM   26  C   UNL     1       9.327  31.811  61.324  1.00  0.00     0.019 A 
HETATM   27  C   UNL     1       8.727  31.156  62.388  1.00  0.00     0.003 A 
HETATM   28  C   UNL     1       7.347  31.247  62.563  1.00  0.00     0.030 A 
ENDBRANCH   2  23
TORSDOF 3
ENDMDL
MODEL 10
REMARK VINA RESULT:      -7.7      1.613      1.811
REMARK  3 active torsions:
REMARK  status: ('A' for Active; 'I' for Inactive)
REMARK    1  A    between atoms: C_3  and  N_4 
REMARK       I    between atoms: N_4  and  C_5 
REMARK    2  A    between atoms: C_5  and  C_6 
REMARK    3  A    between atoms: C_7  and  C_8 
ROOT
HETATM    1  C   UNL     1       4.853  28.896  51.967  1.00  0.00     0.063 C 
HETATM    2  C   UNL     1       4.945  29.213  50.475  1.00  0.00     0.216 C 
HETATM    3  N   UNL     1       4.405  30.535  50.189  1.00  0.00    -0.091 N 
HETATM    4  C   UNL     1       3.570  31.215  51.027  1.00  0.00     0.735 A 
HETATM    5  N   UNL     1       3.285  30.682  52.232  1.00  0.00    -0.191 N 
HETATM    6  N   UNL     1       4.596  31.224  49.056  1.00  0.00     0.012 NA
HETATM    7  N   UNL     1       3.856  32.319  49.208  1.00  0.00     0.033 NA
HETATM    8  N   UNL     1       3.207  32.323  50.429  1.00  0.00     0.030 NA
HETATM    9  C   UNL     1       4.002  29.605  52.760  1.00  0.00     0.037 C 
HETATM   10  C   UNL     1       3.762  29.331  54.226  1.00  0.00     0.070 C 
HETATM   11  H   UNL     1       2.762  31.249  52.898  1.00  0.00     0.184 HD
ENDROOT
BRANCH   1  12
HETATM   12  C   UNL     1       5.852  27.937  52.558  1.00  0.00     0.256 C 
HETATM   13  N   UNL     1       5.452  26.622  52.618  1.00  0.00    -0.323 N 
HETATM   14  H   UNL     1       4.453  26.431  52.552  1.00  0.00     0.169 HD
HETATM   15  O   UNL     1       6.936  28.361  52.946  1.00  0.00    -0.267 OA
BRANCH  13  16
HETATM   16  C   UNL     1       6.222  25.514  53.051  1.00  0.00     0.041 A 
HETATM   17  C   UNL     1       6.206  24.947  54.337  1.00  0.00    -0.035 A 
HETATM   18  C   UNL     1       5.449  25.503  55.512  1.00  0.00     0.050 C 
HETATM   19  C   UNL     1       6.995  23.803  54.583  1.00  0.00     0.009 A 
HETATM   20  C   UNL     1       7.831  23.271  53.604  1.00  0.00     0.001 A 
HETATM   21  C   UNL     1       7.901  23.879  52.359  1.00  0.00     0.002 A 
HETATM   22  C   UNL     1       7.109  24.995  52.090  1.00  0.00     0.030 A 
ENDBRANCH  13  16
ENDBRANCH   1  12
BRANCH   2  23
HETATM   23  C   UNL     1       4.229  28.153  49.635  1.00  0.00     0.064 A 
HETATM   24  N   UNL     1       2.902  28.374  49.410  1.00  0.00    -0.263 NA
HETATM   25  C   UNL     1       2.223  27.466  48.668  1.00  0.00     0.117 A 
HETATM   26  C   UNL     1       2.809  26.361  48.082  1.00  0.00     0.019 A 
HETATM   27  C   UNL     1       4.170  26.169  48.270  1.00  0.00     0.003 A 
HETATM   28  C   UNL     1       4.892  27.071  49.048  1.00  0.00     0.030 A 
ENDBRANCH   2  23
TORSDOF 3
ENDMDL
