MODEL 1
REMARK VINA RESULT:     -10.1      0.000      0.000
REMARK  3 active torsions:
REMARK  status: ('A' for Active; 'I' for Inactive)
REMARK    1  A    between atoms: C_6  and  N_7 
REMARK       I    between atoms: N_7  and  C_8 
REMARK    2  A    between atoms: C_8  and  C_9 
REMARK    3  A    between atoms: C_9  and  C_10 
ROOT
HETATM    1  C   UNL     1       6.318  29.383  56.725  1.00  0.00     0.164 C 
HETATM    2  N   UNL     1       7.665  29.877  56.507  1.00  0.00    -0.245 NA
HETATM    3  C   UNL     1       8.580  29.892  57.518  1.00  0.00     0.234 C 
HETATM    4  O   UNL     1       9.603  29.225  57.384  1.00  0.00    -0.274 OA
HETATM    5  C   UNL     1       8.354  30.769  58.687  1.00  0.00     0.053 A 
HETATM    6  C   UNL     1       7.124  31.284  59.112  1.00  0.00     0.050 A 
HETATM    7  N   UNL     1       5.849  31.009  58.597  1.00  0.00    -0.325 N 
HETATM    8  C   UNL     1       5.395  30.224  57.590  1.00  0.00     0.240 C 
HETATM    9  O   UNL     1       4.171  30.145  57.436  1.00  0.00    -0.271 OA
HETATM   10  C   UNL     1       9.533  31.144  59.369  1.00  0.00     0.019 A 
HETATM   11  C   UNL     1       9.504  32.032  60.443  1.00  0.00     0.001 A 
HETATM   12  C   UNL     1       8.291  32.554  60.858  1.00  0.00     0.002 A 
HETATM   13  C   UNL     1       7.117  32.178  60.204  1.00  0.00     0.030 A 
HETATM   14  H   UNL     1       8.093  29.452  55.692  1.00  0.00     0.131 HD
HETATM   15  H   UNL     1       5.065  31.446  59.071  1.00  0.00     0.169 HD
ENDROOT
BRANCH   1  16
HETATM   16  C   UNL     1       6.245  27.895  57.060  1.00  0.00     0.132 C 
BRANCH  16  17
HETATM   17  C   UNL     1       6.832  26.961  56.023  1.00  0.00     0.224 C 
HETATM   18  N   UNL     1       6.325  25.677  56.098  1.00  0.00    -0.327 N 
HETATM   19  H   UNL     1       5.417  25.552  56.540  1.00  0.00     0.169 HD
HETATM   20  O   UNL     1       7.686  27.356  55.237  1.00  0.00    -0.273 OA
BRANCH  18  21
HETATM   21  C   UNL     1       6.913  24.504  55.576  1.00  0.00     0.035 A 
HETATM   22  C   UNL     1       7.450  23.493  56.382  1.00  0.00     0.043 A 
HETATM   23  C   UNL     1       7.905  22.291  55.795  1.00  0.00    -0.006 A 
HETATM   24  C   UNL     1       7.832  22.140  54.407  1.00  0.00     0.044 A 
HETATM   25  C   UNL     1       8.452  21.090  56.324  1.00  0.00     0.031 A 
HETATM   26  N   UNL     1       8.315  20.879  54.119  1.00  0.00    -0.360 N 
HETATM   27  C   UNL     1       7.331  23.155  53.581  1.00  0.00     0.033 A 
HETATM   28  C   UNL     1       8.407  20.287  52.802  1.00  0.00     0.155 C 
HETATM   29  C   UNL     1       8.693  20.239  55.271  1.00  0.00     0.091 A 
HETATM   30  C   UNL     1       6.866  24.329  54.190  1.00  0.00     0.032 A 
ENDBRANCH  18  21
ENDBRANCH  16  17
ENDBRANCH   1  16
TORSDOF 3
ENDMDL
MODEL 2
REMARK VINA RESULT:     -10.0      1.871      8.985
REMARK  3 active torsions:
REMARK  status: ('A' for Active; 'I' for Inactive)
REMARK    1  A    between atoms: C_6  and  N_7 
REMARK       I    between atoms: N_7  and  C_8 
REMARK    2  A    between atoms: C_8  and  C_9 
REMARK    3  A    between atoms: C_9  and  C_10 
ROOT
HETATM    1  C   UNL     1       5.824  26.726  54.475  1.00  0.00     0.164 C 
HETATM    2  N   UNL     1       5.439  25.685  55.410  1.00  0.00    -0.245 NA
HETATM    3  C   UNL     1       6.353  24.791  55.883  1.00  0.00     0.234 C 
HETATM    4  O   UNL     1       6.565  24.764  57.093  1.00  0.00    -0.274 OA
HETATM    5  C   UNL     1       6.985  23.837  54.947  1.00  0.00     0.053 A 
HETATM    6  C   UNL     1       7.098  23.986  53.560  1.00  0.00     0.050 A 
HETATM    7  N   UNL     1       6.733  25.093  52.779  1.00  0.00    -0.325 N 
HETATM    8  C   UNL     1       6.186  26.300  53.062  1.00  0.00     0.240 C 
HETATM    9  O   UNL     1       6.055  27.100  52.129  1.00  0.00    -0.271 OA
HETATM   10  C   UNL     1       7.450  22.648  55.554  1.00  0.00     0.019 A 
HETATM   11  C   UNL     1       7.998  21.611  54.801  1.00  0.00     0.001 A 
HETATM   12  C   UNL     1       8.098  21.749  53.427  1.00  0.00     0.002 A 
HETATM   13  C   UNL     1       7.659  22.926  52.818  1.00  0.00     0.030 A 
HETATM   14  H   UNL     1       4.919  26.061  56.196  1.00  0.00     0.131 HD
HETATM   15  H   UNL     1       6.936  25.033  51.786  1.00  0.00     0.169 HD
ENDROOT
BRANCH   1  16
HETATM   16  C   UNL     1       6.801  27.750  55.049  1.00  0.00     0.132 C 
BRANCH  16  17
HETATM   17  C   UNL     1       6.316  28.506  56.268  1.00  0.00     0.224 C 
HETATM   18  N   UNL     1       7.140  29.558  56.620  1.00  0.00    -0.327 N 
HETATM   19  H   UNL     1       7.740  29.951  55.898  1.00  0.00     0.169 HD
HETATM   20  O   UNL     1       5.298  28.157  56.857  1.00  0.00    -0.273 OA
BRANCH  18  21
HETATM   21  C   UNL     1       7.209  30.194  57.878  1.00  0.00     0.035 A 
HETATM   22  C   UNL     1       8.184  29.893  58.836  1.00  0.00     0.043 A 
HETATM   23  C   UNL     1       8.269  30.660  60.020  1.00  0.00    -0.006 A 
HETATM   24  C   UNL     1       7.357  31.699  60.227  1.00  0.00     0.044 A 
HETATM   25  C   UNL     1       9.145  30.636  61.140  1.00  0.00     0.031 A 
HETATM   26  N   UNL     1       7.686  32.282  61.434  1.00  0.00    -0.360 N 
HETATM   27  C   UNL     1       6.351  31.991  59.296  1.00  0.00     0.033 A 
HETATM   28  C   UNL     1       7.017  33.413  62.039  1.00  0.00     0.155 C 
HETATM   29  C   UNL     1       8.764  31.645  61.992  1.00  0.00     0.091 A 
HETATM   30  C   UNL     1       6.302  31.230  58.120  1.00  0.00     0.032 A 
ENDBRANCH  18  21
ENDBRANCH  16  17
ENDBRANCH   1  16
TORSDOF 3
ENDMDL
MODEL 3
REMARK VINA RESULT:     -10.0      4.278      8.494
REMARK  3 active torsions:
REMARK  status: ('A' for Active; 'I' for Inactive)
REMARK    1  A    between atoms: C_6  and  N_7 
REMARK       I    between atoms: N_7  and  C_8 
REMARK    2  A    between atoms: C_8  and  C_9 
REMARK    3  A    between atoms: C_9  and  C_10 
ROOT
HETATM    1  C   UNL     1       7.605  25.478  55.759  1.00  0.00     0.164 C 
HETATM    2  N   UNL     1       7.876  25.159  54.369  1.00  0.00    -0.245 NA
HETATM    3  C   UNL     1       7.386  24.020  53.802  1.00  0.00     0.234 C 
HETATM    4  O   UNL     1       6.617  24.132  52.850  1.00  0.00    -0.274 OA
HETATM    5  C   UNL     1       7.860  22.706  54.287  1.00  0.00     0.053 A 
HETATM    6  C   UNL     1       8.432  22.440  55.536  1.00  0.00     0.050 A 
HETATM    7  N   UNL     1       8.588  23.319  56.618  1.00  0.00    -0.325 N 
HETATM    8  C   UNL     1       8.277  24.622  56.819  1.00  0.00     0.240 C 
HETATM    9  O   UNL     1       8.487  25.092  57.943  1.00  0.00    -0.271 OA
HETATM   10  C   UNL     1       7.759  21.665  53.337  1.00  0.00     0.019 A 
HETATM   11  C   UNL     1       8.236  20.383  53.606  1.00  0.00     0.001 A 
HETATM   12  C   UNL     1       8.816  20.119  54.836  1.00  0.00     0.002 A 
HETATM   13  C   UNL     1       8.904  21.135  55.789  1.00  0.00     0.030 A 
HETATM   14  H   UNL     1       7.667  25.940  53.758  1.00  0.00     0.131 HD
HETATM   15  H   UNL     1       8.987  22.927  57.465  1.00  0.00     0.169 HD
ENDROOT
BRANCH   1  16
HETATM   16  C   UNL     1       6.131  25.742  56.063  1.00  0.00     0.132 C 
BRANCH  16  17
HETATM   17  C   UNL     1       5.499  26.885  55.297  1.00  0.00     0.224 C 
HETATM   18  N   UNL     1       4.899  26.484  54.118  1.00  0.00    -0.327 N 
HETATM   19  H   UNL     1       4.617  25.509  54.038  1.00  0.00     0.169 HD
HETATM   20  O   UNL     1       5.567  28.034  55.718  1.00  0.00    -0.273 OA
BRANCH  18  21
HETATM   21  C   UNL     1       4.582  27.299  53.010  1.00  0.00     0.035 A 
HETATM   22  C   UNL     1       5.232  27.199  51.774  1.00  0.00     0.043 A 
HETATM   23  C   UNL     1       4.776  27.959  50.674  1.00  0.00    -0.006 A 
HETATM   24  C   UNL     1       3.689  28.821  50.845  1.00  0.00     0.044 A 
HETATM   25  C   UNL     1       5.181  28.052  49.314  1.00  0.00     0.031 A 
HETATM   26  N   UNL     1       3.449  29.406  49.618  1.00  0.00    -0.360 N 
HETATM   27  C   UNL     1       3.048  28.962  52.084  1.00  0.00     0.033 A 
HETATM   28  C   UNL     1       2.399  30.357  49.323  1.00  0.00     0.155 C 
HETATM   29  C   UNL     1       4.347  28.949  48.689  1.00  0.00     0.091 A 
HETATM   30  C   UNL     1       3.507  28.181  53.153  1.00  0.00     0.032 A 
ENDBRANCH  18  21
ENDBRANCH  16  17
ENDBRANCH   1  16
TORSDOF 3
ENDMDL
MODEL 4
REMARK VINA RESULT:     -10.0      2.092      3.664
REMARK  3 active torsions:
REMARK  status: ('A' for Active; 'I' for Inactive)
REMARK    1  A    between atoms: C_6  and  N_7 
REMARK       I    between atoms: N_7  and  C_8 
REMARK    2  A    between atoms: C_8  and  C_9 
REMARK    3  A    between atoms: C_9  and  C_10 
ROOT
HETATM    1  C   UNL     1       8.189  31.444  58.883  1.00  0.00     0.164 C 
HETATM    2  N   UNL     1       8.965  32.378  59.678  1.00  0.00    -0.245 NA
HETATM    3  C   UNL     1       9.094  32.216  61.025  1.00  0.00     0.234 C 
HETATM    4  O   UNL     1      10.221  32.044  61.483  1.00  0.00    -0.274 OA
HETATM    5  C   UNL     1       7.900  32.338  61.888  1.00  0.00     0.053 A 
HETATM    6  C   UNL     1       6.568  32.184  61.488  1.00  0.00     0.050 A 
HETATM    7  N   UNL     1       6.085  31.789  60.231  1.00  0.00    -0.325 N 
HETATM    8  C   UNL     1       6.681  31.455  59.061  1.00  0.00     0.240 C 
HETATM    9  O   UNL     1       5.952  31.074  58.138  1.00  0.00    -0.271 OA
HETATM   10  C   UNL     1       8.182  32.708  63.222  1.00  0.00     0.019 A 
HETATM   11  C   UNL     1       7.164  32.945  64.145  1.00  0.00     0.001 A 
HETATM   12  C   UNL     1       5.844  32.807  63.748  1.00  0.00     0.002 A 
HETATM   13  C   UNL     1       5.553  32.424  62.438  1.00  0.00     0.030 A 
HETATM   14  H   UNL     1       9.885  32.533  59.282  1.00  0.00     0.131 HD
HETATM   15  H   UNL     1       5.079  31.688  60.144  1.00  0.00     0.169 HD
ENDROOT
BRANCH   1  16
HETATM   16  C   UNL     1       8.767  30.030  58.842  1.00  0.00     0.132 C 
BRANCH  16  17
HETATM   17  C   UNL     1       8.451  29.229  57.596  1.00  0.00     0.224 C 
HETATM   18  N   UNL     1       7.546  28.209  57.820  1.00  0.00    -0.327 N 
HETATM   19  H   UNL     1       6.929  28.291  58.625  1.00  0.00     0.169 HD
HETATM   20  O   UNL     1       8.994  29.493  56.528  1.00  0.00    -0.273 OA
BRANCH  18  21
HETATM   21  C   UNL     1       7.343  27.067  57.015  1.00  0.00     0.035 A 
HETATM   22  C   UNL     1       6.475  27.050  55.917  1.00  0.00     0.043 A 
HETATM   23  C   UNL     1       6.419  25.911  55.081  1.00  0.00    -0.006 A 
HETATM   24  C   UNL     1       7.219  24.805  55.380  1.00  0.00     0.044 A 
HETATM   25  C   UNL     1       5.692  25.601  53.899  1.00  0.00     0.031 A 
HETATM   26  N   UNL     1       6.982  23.865  54.398  1.00  0.00    -0.360 N 
HETATM   27  C   UNL     1       8.067  24.791  56.497  1.00  0.00     0.033 A 
HETATM   28  C   UNL     1       7.612  22.567  54.298  1.00  0.00     0.155 C 
HETATM   29  C   UNL     1       6.060  24.337  53.501  1.00  0.00     0.091 A 
HETATM   30  C   UNL     1       8.121  25.940  57.297  1.00  0.00     0.032 A 
ENDBRANCH  18  21
ENDBRANCH  16  17
ENDBRANCH   1  16
TORSDOF 3
ENDMDL
MODEL 5
REMARK VINA RESULT:      -9.7      1.336      2.057
REMARK  3 active torsions:
REMARK  status: ('A' for Active; 'I' for Inactive)
REMARK    1  A    between atoms: C_6  and  N_7 
REMARK       I    between atoms: N_7  and  C_8 
REMARK    2  A    between atoms: C_8  and  C_9 
REMARK    3  A    between atoms: C_9  and  C_10 
ROOT
HETATM    1  C   UNL     1       5.923  30.541  57.466  1.00  0.00     0.164 C 
HETATM    2  N   UNL     1       7.374  30.571  57.451  1.00  0.00    -0.245 NA
HETATM    3  C   UNL     1       8.097  30.114  58.513  1.00  0.00     0.234 C 
HETATM    4  O   UNL     1       8.858  29.167  58.331  1.00  0.00    -0.274 OA
HETATM    5  C   UNL     1       8.008  30.820  59.809  1.00  0.00     0.053 A 
HETATM    6  C   UNL     1       6.964  31.651  60.231  1.00  0.00     0.050 A 
HETATM    7  N   UNL     1       5.751  31.913  59.576  1.00  0.00    -0.325 N 
HETATM    8  C   UNL     1       5.211  31.499  58.405  1.00  0.00     0.240 C 
HETATM    9  O   UNL     1       4.060  31.869  58.145  1.00  0.00    -0.271 OA
HETATM   10  C   UNL     1       9.140  30.657  60.639  1.00  0.00     0.019 A 
HETATM   11  C   UNL     1       9.252  31.321  61.859  1.00  0.00     0.001 A 
HETATM   12  C   UNL     1       8.227  32.155  62.274  1.00  0.00     0.002 A 
HETATM   13  C   UNL     1       7.096  32.310  61.472  1.00  0.00     0.030 A 
HETATM   14  H   UNL     1       7.749  30.160  56.604  1.00  0.00     0.131 HD
HETATM   15  H   UNL     1       5.093  32.511  60.065  1.00  0.00     0.169 HD
ENDROOT
BRANCH   1  16
HETATM   16  C   UNL     1       5.329  29.134  57.499  1.00  0.00     0.132 C 
BRANCH  16  17
HETATM   17  C   UNL     1       5.848  28.179  56.445  1.00  0.00     0.224 C 
HETATM   18  N   UNL     1       5.525  26.859  56.700  1.00  0.00    -0.327 N 
HETATM   19  H   UNL     1       4.724  26.676  57.302  1.00  0.00     0.169 HD
HETATM   20  O   UNL     1       6.505  28.592  55.496  1.00  0.00    -0.273 OA
BRANCH  18  21
HETATM   21  C   UNL     1       6.159  25.715  56.170  1.00  0.00     0.035 A 
HETATM   22  C   UNL     1       6.043  25.327  54.830  1.00  0.00     0.043 A 
HETATM   23  C   UNL     1       6.809  24.244  54.342  1.00  0.00    -0.006 A 
HETATM   24  C   UNL     1       7.659  23.560  55.216  1.00  0.00     0.044 A 
HETATM   25  C   UNL     1       6.946  23.642  53.061  1.00  0.00     0.031 A 
HETATM   26  N   UNL     1       8.290  22.583  54.473  1.00  0.00    -0.360 N 
HETATM   27  C   UNL     1       7.761  23.912  56.569  1.00  0.00     0.033 A 
HETATM   28  C   UNL     1       9.275  21.646  54.969  1.00  0.00     0.155 C 
HETATM   29  C   UNL     1       7.864  22.625  53.171  1.00  0.00     0.091 A 
HETATM   30  C   UNL     1       7.007  25.003  57.023  1.00  0.00     0.032 A 
ENDBRANCH  18  21
ENDBRANCH  16  17
ENDBRANCH   1  16
TORSDOF 3
ENDMDL
MODEL 6
REMARK VINA RESULT:      -9.6      2.607      4.927
REMARK  3 active torsions:
REMARK  status: ('A' for Active; 'I' for Inactive)
REMARK    1  A    between atoms: C_6  and  N_7 
REMARK       I    between atoms: N_7  and  C_8 
REMARK    2  A    between atoms: C_8  and  C_9 
REMARK    3  A    between atoms: C_9  and  C_10 
ROOT
HETATM    1  C   UNL     1       8.030  30.858  60.488  1.00  0.00     0.164 C 
HETATM    2  N   UNL     1       6.661  31.342  60.500  1.00  0.00    -0.245 NA
HETATM    3  C   UNL     1       6.378  32.642  60.798  1.00  0.00     0.234 C 
HETATM    4  O   UNL     1       5.825  33.325  59.940  1.00  0.00    -0.274 OA
HETATM    5  C   UNL     1       6.663  33.153  62.156  1.00  0.00     0.053 A 
HETATM    6  C   UNL     1       7.574  32.614  63.071  1.00  0.00     0.050 A 
HETATM    7  N   UNL     1       8.470  31.552  62.874  1.00  0.00    -0.325 N 
HETATM    8  C   UNL     1       8.743  30.741  61.824  1.00  0.00     0.240 C 
HETATM    9  O   UNL     1       9.667  29.930  61.955  1.00  0.00    -0.271 OA
HETATM   10  C   UNL     1       5.870  34.257  62.539  1.00  0.00     0.019 A 
HETATM   11  C   UNL     1       5.955  34.809  63.817  1.00  0.00     0.001 A 
HETATM   12  C   UNL     1       6.845  34.269  64.730  1.00  0.00     0.002 A 
HETATM   13  C   UNL     1       7.648  33.190  64.357  1.00  0.00     0.030 A 
HETATM   14  H   UNL     1       6.167  31.090  59.651  1.00  0.00     0.131 HD
HETATM   15  H   UNL     1       9.089  31.333  63.647  1.00  0.00     0.169 HD
ENDROOT
BRANCH   1  16
HETATM   16  C   UNL     1       8.905  31.487  59.406  1.00  0.00     0.132 C 
BRANCH  16  17
HETATM   17  C   UNL     1       9.124  30.644  58.168  1.00  0.00     0.224 C 
HETATM   18  N   UNL     1       7.989  29.967  57.763  1.00  0.00    -0.327 N 
HETATM   19  H   UNL     1       7.087  30.335  58.059  1.00  0.00     0.169 HD
HETATM   20  O   UNL     1      10.227  30.588  57.636  1.00  0.00    -0.273 OA
BRANCH  18  21
HETATM   21  C   UNL     1       7.934  28.830  56.928  1.00  0.00     0.035 A 
HETATM   22  C   UNL     1       7.818  27.524  57.419  1.00  0.00     0.043 A 
HETATM   23  C   UNL     1       7.641  26.447  56.522  1.00  0.00    -0.006 A 
HETATM   24  C   UNL     1       7.608  26.702  55.148  1.00  0.00     0.044 A 
HETATM   25  C   UNL     1       7.456  25.048  56.697  1.00  0.00     0.031 A 
HETATM   26  N   UNL     1       7.401  25.489  54.523  1.00  0.00    -0.360 N 
HETATM   27  C   UNL     1       7.759  27.998  54.636  1.00  0.00     0.033 A 
HETATM   28  C   UNL     1       7.279  25.281  53.097  1.00  0.00     0.155 C 
HETATM   29  C   UNL     1       7.310  24.485  55.451  1.00  0.00     0.091 A 
HETATM   30  C   UNL     1       7.911  29.052  55.548  1.00  0.00     0.032 A 
ENDBRANCH  18  21
ENDBRANCH  16  17
ENDBRANCH   1  16
TORSDOF 3
ENDMDL
MODEL 7
REMARK VINA RESULT:      -9.3      2.340      8.175
REMARK  3 active torsions:
REMARK  status: ('A' for Active; 'I' for Inactive)
REMARK    1  A    between atoms: C_6  and  N_7 
REMARK       I    between atoms: N_7  and  C_8 
REMARK    2  A    between atoms: C_8  and  C_9 
REMARK    3  A    between atoms: C_9  and  C_10 
ROOT
HETATM    1  C   UNL     1       4.768  26.201  52.831  1.00  0.00     0.164 C 
HETATM    2  N   UNL     1       4.498  25.333  53.963  1.00  0.00    -0.245 NA
HETATM    3  C   UNL     1       5.472  25.035  54.868  1.00  0.00     0.234 C 
HETATM    4  O   UNL     1       5.299  25.371  56.037  1.00  0.00    -0.274 OA
HETATM    5  C   UNL     1       6.648  24.251  54.436  1.00  0.00     0.053 A 
HETATM    6  C   UNL     1       7.121  24.119  53.125  1.00  0.00     0.050 A 
HETATM    7  N   UNL     1       6.656  24.766  51.971  1.00  0.00    -0.325 N 
HETATM    8  C   UNL     1       5.668  25.662  51.733  1.00  0.00     0.240 C 
HETATM    9  O   UNL     1       5.562  26.102  50.583  1.00  0.00    -0.271 OA
HETATM   10  C   UNL     1       7.285  23.536  55.475  1.00  0.00     0.019 A 
HETATM   11  C   UNL     1       8.359  22.683  55.224  1.00  0.00     0.001 A 
HETATM   12  C   UNL     1       8.820  22.539  53.926  1.00  0.00     0.002 A 
HETATM   13  C   UNL     1       8.212  23.255  52.894  1.00  0.00     0.030 A 
HETATM   14  H   UNL     1       3.667  25.622  54.466  1.00  0.00     0.131 HD
HETATM   15  H   UNL     1       7.160  24.576  51.111  1.00  0.00     0.169 HD
ENDROOT
BRANCH   1  16
HETATM   16  C   UNL     1       5.105  27.641  53.216  1.00  0.00     0.132 C 
BRANCH  16  17
HETATM   17  C   UNL     1       6.382  27.824  54.009  1.00  0.00     0.224 C 
HETATM   18  N   UNL     1       6.158  28.197  55.321  1.00  0.00    -0.327 N 
HETATM   19  H   UNL     1       5.251  27.975  55.728  1.00  0.00     0.169 HD
HETATM   20  O   UNL     1       7.476  27.668  53.479  1.00  0.00    -0.273 OA
BRANCH  18  21
HETATM   21  C   UNL     1       7.078  28.817  56.193  1.00  0.00     0.035 A 
HETATM   22  C   UNL     1       8.452  28.887  55.933  1.00  0.00     0.043 A 
HETATM   23  C   UNL     1       9.293  29.634  56.788  1.00  0.00    -0.006 A 
HETATM   24  C   UNL     1       8.741  30.276  57.899  1.00  0.00     0.044 A 
HETATM   25  C   UNL     1      10.685  29.928  56.777  1.00  0.00     0.031 A 
HETATM   26  N   UNL     1       9.773  30.940  58.530  1.00  0.00    -0.360 N 
HETATM   27  C   UNL     1       7.374  30.186  58.196  1.00  0.00     0.033 A 
HETATM   28  C   UNL     1       9.656  31.755  59.719  1.00  0.00     0.155 C 
HETATM   29  C   UNL     1      10.951  30.734  57.860  1.00  0.00     0.091 A 
HETATM   30  C   UNL     1       6.557  29.458  57.321  1.00  0.00     0.032 A 
ENDBRANCH  18  21
ENDBRANCH  16  17
ENDBRANCH   1  16
TORSDOF 3
ENDMDL
MODEL 8
REMARK VINA RESULT:      -8.9      2.179      9.050
REMARK  3 active torsions:
REMARK  status: ('A' for Active; 'I' for Inactive)
REMARK    1  A    between atoms: C_6  and  N_7 
REMARK       I    between atoms: N_7  and  C_8 
REMARK    2  A    between atoms: C_8  and  C_9 
REMARK    3  A    between atoms: C_9  and  C_10 
ROOT
HETATM    1  C   UNL     1       7.213  25.669  56.433  1.00  0.00     0.164 C 
HETATM    2  N   UNL     1       7.024  24.365  57.042  1.00  0.00    -0.245 NA
HETATM    3  C   UNL     1       7.882  23.337  56.783  1.00  0.00     0.234 C 
HETATM    4  O   UNL     1       8.511  22.858  57.723  1.00  0.00    -0.274 OA
HETATM    5  C   UNL     1       7.959  22.784  55.414  1.00  0.00     0.053 A 
HETATM    6  C   UNL     1       7.582  23.435  54.234  1.00  0.00     0.050 A 
HETATM    7  N   UNL     1       7.152  24.762  54.080  1.00  0.00    -0.325 N 
HETATM    8  C   UNL     1       6.958  25.789  54.941  1.00  0.00     0.240 C 
HETATM    9  O   UNL     1       6.634  26.882  54.461  1.00  0.00    -0.271 OA
HETATM   10  C   UNL     1       8.404  21.445  55.352  1.00  0.00     0.019 A 
HETATM   11  C   UNL     1       8.456  20.747  54.146  1.00  0.00     0.001 A 
HETATM   12  C   UNL     1       8.071  21.384  52.978  1.00  0.00     0.002 A 
HETATM   13  C   UNL     1       7.647  22.713  53.024  1.00  0.00     0.030 A 
HETATM   14  H   UNL     1       6.897  24.434  58.045  1.00  0.00     0.131 HD
HETATM   15  H   UNL     1       6.966  25.070  53.131  1.00  0.00     0.169 HD
ENDROOT
BRANCH   1  16
HETATM   16  C   UNL     1       8.490  26.383  56.873  1.00  0.00     0.132 C 
BRANCH  16  17
HETATM   17  C   UNL     1       8.354  27.868  57.131  1.00  0.00     0.224 C 
HETATM   18  N   UNL     1       7.045  28.271  57.312  1.00  0.00    -0.327 N 
HETATM   19  H   UNL     1       6.370  27.569  57.609  1.00  0.00     0.169 HD
HETATM   20  O   UNL     1       9.342  28.595  57.142  1.00  0.00    -0.273 OA
BRANCH  18  21
HETATM   21  C   UNL     1       6.537  29.582  57.177  1.00  0.00     0.035 A 
HETATM   22  C   UNL     1       5.807  30.009  56.062  1.00  0.00     0.043 A 
HETATM   23  C   UNL     1       5.221  31.296  56.054  1.00  0.00    -0.006 A 
HETATM   24  C   UNL     1       5.401  32.134  57.158  1.00  0.00     0.044 A 
HETATM   25  C   UNL     1       4.411  31.995  55.119  1.00  0.00     0.031 A 
HETATM   26  N   UNL     1       4.708  33.298  56.891  1.00  0.00    -0.360 N 
HETATM   27  C   UNL     1       6.158  31.736  58.269  1.00  0.00     0.033 A 
HETATM   28  C   UNL     1       4.602  34.441  57.770  1.00  0.00     0.155 C 
HETATM   29  C   UNL     1       4.109  33.223  55.661  1.00  0.00     0.091 A 
HETATM   30  C   UNL     1       6.710  30.448  58.261  1.00  0.00     0.032 A 
ENDBRANCH  18  21
ENDBRANCH  16  17
ENDBRANCH   1  16
TORSDOF 3
ENDMDL
MODEL 9
REMARK VINA RESULT:      -8.8      3.852      6.462
REMARK  3 active torsions:
REMARK  status: ('A' for Active; 'I' for Inactive)
REMARK    1  A    between atoms: C_6  and  N_7 
REMARK       I    between atoms: N_7  and  C_8 
REMARK    2  A    between atoms: C_8  and  C_9 
REMARK    3  A    between atoms: C_9  and  C_10 
ROOT
HETATM    1  C   UNL     1       6.189  31.977  61.081  1.00  0.00     0.164 C 
HETATM    2  N   UNL     1       5.128  31.576  61.986  1.00  0.00    -0.245 NA
HETATM    3  C   UNL     1       4.555  32.473  62.838  1.00  0.00     0.234 C 
HETATM    4  O   UNL     1       3.353  32.698  62.720  1.00  0.00    -0.274 OA
HETATM    5  C   UNL     1       5.369  33.069  63.919  1.00  0.00     0.053 A 
HETATM    6  C   UNL     1       6.765  33.169  63.947  1.00  0.00     0.050 A 
HETATM    7  N   UNL     1       7.675  32.824  62.937  1.00  0.00    -0.325 N 
HETATM    8  C   UNL     1       7.540  32.311  61.690  1.00  0.00     0.240 C 
HETATM    9  O   UNL     1       8.565  32.189  61.009  1.00  0.00    -0.271 OA
HETATM   10  C   UNL     1       4.622  33.511  65.034  1.00  0.00     0.019 A 
HETATM   11  C   UNL     1       5.243  34.023  66.172  1.00  0.00     0.001 A 
HETATM   12  C   UNL     1       6.625  34.110  66.209  1.00  0.00     0.002 A 
HETATM   13  C   UNL     1       7.373  33.695  65.106  1.00  0.00     0.030 A 
HETATM   14  H   UNL     1       4.391  31.076  61.502  1.00  0.00     0.131 HD
HETATM   15  H   UNL     1       8.654  33.013  63.126  1.00  0.00     0.169 HD
ENDROOT
BRANCH   1  16
HETATM   16  C   UNL     1       5.756  32.986  60.019  1.00  0.00     0.132 C 
BRANCH  16  17
HETATM   17  C   UNL     1       5.547  32.425  58.629  1.00  0.00     0.224 C 
HETATM   18  N   UNL     1       5.291  31.066  58.624  1.00  0.00    -0.327 N 
HETATM   19  H   UNL     1       4.921  30.651  59.477  1.00  0.00     0.169 HD
HETATM   20  O   UNL     1       5.631  33.148  57.643  1.00  0.00    -0.273 OA
BRANCH  18  21
HETATM   21  C   UNL     1       5.440  30.182  57.534  1.00  0.00     0.035 A 
HETATM   22  C   UNL     1       6.612  29.457  57.291  1.00  0.00     0.043 A 
HETATM   23  C   UNL     1       6.644  28.496  56.256  1.00  0.00    -0.006 A 
HETATM   24  C   UNL     1       5.504  28.299  55.472  1.00  0.00     0.044 A 
HETATM   25  C   UNL     1       7.639  27.591  55.791  1.00  0.00     0.031 A 
HETATM   26  N   UNL     1       5.809  27.299  54.570  1.00  0.00    -0.360 N 
HETATM   27  C   UNL     1       4.333  29.041  55.677  1.00  0.00     0.033 A 
HETATM   28  C   UNL     1       4.913  26.755  53.573  1.00  0.00     0.155 C 
HETATM   29  C   UNL     1       7.097  26.867  54.755  1.00  0.00     0.091 A 
HETATM   30  C   UNL     1       4.320  29.973  56.724  1.00  0.00     0.032 A 
ENDBRANCH  18  21
ENDBRANCH  16  17
ENDBRANCH   1  16
TORSDOF 3
ENDMDL
MODEL 10
REMARK VINA RESULT:      -8.7      6.347      8.418
REMARK  3 active torsions:
REMARK  status: ('A' for Active; 'I' for Inactive)
REMARK    1  A    between atoms: C_6  and  N_7 
REMARK       I    between atoms: N_7  and  C_8 
REMARK    2  A    between atoms: C_8  and  C_9 
REMARK    3  A    between atoms: C_9  and  C_10 
ROOT
HETATM    1  C   UNL     1       4.775  27.071  49.128  1.00  0.00     0.164 C 
HETATM    2  N   UNL     1       5.786  28.052  48.778  1.00  0.00    -0.245 NA
HETATM    3  C   UNL     1       5.546  29.387  48.907  1.00  0.00     0.234 C 
HETATM    4  O   UNL     1       6.253  30.032  49.678  1.00  0.00    -0.274 OA
HETATM    5  C   UNL     1       4.512  30.023  48.063  1.00  0.00     0.053 A 
HETATM    6  C   UNL     1       3.442  29.377  47.434  1.00  0.00     0.050 A 
HETATM    7  N   UNL     1       3.062  28.031  47.543  1.00  0.00    -0.325 N 
HETATM    8  C   UNL     1       3.555  26.972  48.228  1.00  0.00     0.240 C 
HETATM    9  O   UNL     1       2.927  25.908  48.165  1.00  0.00    -0.271 OA
HETATM   10  C   UNL     1       4.704  31.407  47.851  1.00  0.00     0.019 A 
HETATM   11  C   UNL     1       3.866  32.141  47.013  1.00  0.00     0.001 A 
HETATM   12  C   UNL     1       2.814  31.502  46.378  1.00  0.00     0.002 A 
HETATM   13  C   UNL     1       2.603  30.139  46.594  1.00  0.00     0.030 A 
HETATM   14  H   UNL     1       6.678  27.841  49.211  1.00  0.00     0.131 HD
HETATM   15  H   UNL     1       2.222  27.756  47.044  1.00  0.00     0.169 HD
ENDROOT
BRANCH   1  16
HETATM   16  C   UNL     1       4.416  27.048  50.612  1.00  0.00     0.132 C 
BRANCH  16  17
HETATM   17  C   UNL     1       5.531  26.634  51.549  1.00  0.00     0.224 C 
HETATM   18  N   UNL     1       5.628  25.265  51.708  1.00  0.00    -0.327 N 
HETATM   19  H   UNL     1       5.240  24.675  50.975  1.00  0.00     0.169 HD
HETATM   20  O   UNL     1       6.230  27.477  52.101  1.00  0.00    -0.273 OA
BRANCH  18  21
HETATM   21  C   UNL     1       6.259  24.579  52.768  1.00  0.00     0.035 A 
HETATM   22  C   UNL     1       7.241  23.601  52.570  1.00  0.00     0.043 A 
HETATM   23  C   UNL     1       7.920  23.049  53.680  1.00  0.00    -0.006 A 
HETATM   24  C   UNL     1       7.580  23.475  54.968  1.00  0.00     0.044 A 
HETATM   25  C   UNL     1       8.965  22.095  53.812  1.00  0.00     0.031 A 
HETATM   26  N   UNL     1       8.407  22.798  55.842  1.00  0.00    -0.360 N 
HETATM   27  C   UNL     1       6.574  24.426  55.187  1.00  0.00     0.033 A 
HETATM   28  C   UNL     1       8.419  22.942  57.281  1.00  0.00     0.155 C 
HETATM   29  C   UNL     1       9.245  21.961  55.152  1.00  0.00     0.091 A 
HETATM   30  C   UNL     1       5.932  24.974  54.069  1.00  0.00     0.032 A 
ENDBRANCH  18  21
ENDBRANCH  16  17
ENDBRANCH   1  16
TORSDOF 3
ENDMDL
