MODEL 1
REMARK VINA RESULT:     -10.3      0.000      0.000
REMARK  6 active torsions:
REMARK  status: ('A' for Active; 'I' for Inactive)
REMARK    1  A    between atoms: C_2  and  O_3 
REMARK    2  A    between atoms: O_3  and  C_4 
REMARK    3  A    between atoms: C_7  and  C_8 
REMARK    4  A    between atoms: C_8  and  C_9 
REMARK       I    between atoms: C_9  and  N_10 
REMARK    5  A    between atoms: N_13  and  C_14 
REMARK    6  A    between atoms: C_18  and  C_19 
ROOT
HETATM    1  C   UNL     1       6.770  32.009  59.492  1.00  0.00     0.224 C 
HETATM    2  N   UNL     1       7.078  31.042  58.542  1.00  0.00    -0.349 N 
HETATM    3  C   UNL     1       5.962  30.417  57.814  1.00  0.00     0.145 C 
HETATM    4  C   UNL     1       6.351  29.972  56.394  1.00  0.00     0.144 C 
HETATM    5  N   UNL     1       7.572  29.142  56.426  1.00  0.00    -0.363 N 
HETATM    6  C   UNL     1       8.708  29.842  57.052  1.00  0.00     0.144 C 
HETATM    7  C   UNL     1       8.351  30.308  58.479  1.00  0.00     0.145 C 
HETATM    8  O   UNL     1       5.628  32.465  59.604  1.00  0.00    -0.273 OA
ENDROOT
BRANCH   5   9
HETATM    9  C   UNL     1       7.498  27.783  56.312  1.00  0.00     0.122 A 
HETATM   10  N   UNL     1       7.315  26.941  57.378  1.00  0.00    -0.262 N 
HETATM   11  H   UNL     1       7.218  27.191  58.353  1.00  0.00     0.191 HD
HETATM   12  N   UNL     1       7.297  25.637  57.068  1.00  0.00    -0.173 NA
HETATM   13  C   UNL     1       7.524  25.602  55.745  1.00  0.00     0.090 A 
HETATM   14  C   UNL     1       7.639  26.928  55.237  1.00  0.00     0.084 A 
BRANCH  13  15
HETATM   15  C   UNL     1       7.641  24.329  55.020  1.00  0.00    -0.005 A 
HETATM   16  C   UNL     1       7.577  23.109  55.715  1.00  0.00     0.015 A 
HETATM   17  C   UNL     1       7.709  21.888  55.044  1.00  0.00     0.024 A 
HETATM   18  C   UNL     1       7.908  21.876  53.667  1.00  0.00     0.034 A 
HETATM   19 CL   UNL     1       8.079  20.378  52.839  1.00  0.00    -0.084 Cl
HETATM   20  C   UNL     1       7.972  23.072  52.957  1.00  0.00     0.024 A 
HETATM   21  C   UNL     1       7.839  24.293  53.631  1.00  0.00     0.015 A 
ENDBRANCH  13  15
ENDBRANCH   5   9
BRANCH   1  22
HETATM   22  C   UNL     1       7.876  32.526  60.401  1.00  0.00     0.141 C 
BRANCH  22  23
HETATM   23  C   UNL     1       7.423  32.889  61.798  1.00  0.00    -0.049 A 
HETATM   24  C   UNL     1       8.038  32.332  62.928  1.00  0.00     0.010 A 
HETATM   25  C   UNL     1       7.665  32.728  64.218  1.00  0.00     0.037 A 
HETATM   26  C   UNL     1       6.684  33.701  64.397  1.00  0.00     0.068 A 
HETATM   27  C   UNL     1       6.061  34.252  63.276  1.00  0.00     0.037 A 
HETATM   28  C   UNL     1       6.432  33.860  61.987  1.00  0.00     0.010 A 
BRANCH  26  29
HETATM   29  O   UNL     1       6.249  34.192  65.597  1.00  0.00    -0.352 OA
BRANCH  29  30
HETATM   30  C   UNL     1       4.900  33.894  65.960  1.00  0.00     0.171 C 
HETATM   31  C   UNL     1       4.703  34.307  67.408  1.00  0.00     0.034 C 
ENDBRANCH  29  30
ENDBRANCH  26  29
ENDBRANCH  22  23
ENDBRANCH   1  22
TORSDOF 6
ENDMDL
MODEL 2
REMARK VINA RESULT:     -10.2      4.721     11.852
REMARK  6 active torsions:
REMARK  status: ('A' for Active; 'I' for Inactive)
REMARK    1  A    between atoms: C_2  and  O_3 
REMARK    2  A    between atoms: O_3  and  C_4 
REMARK    3  A    between atoms: C_7  and  C_8 
REMARK    4  A    between atoms: C_8  and  C_9 
REMARK       I    between atoms: C_9  and  N_10 
REMARK    5  A    between atoms: N_13  and  C_14 
REMARK    6  A    between atoms: C_18  and  C_19 
ROOT
HETATM    1  C   UNL     1       7.403  27.976  56.670  1.00  0.00     0.224 C 
HETATM    2  N   UNL     1       7.129  29.140  57.379  1.00  0.00    -0.349 N 
HETATM    3  C   UNL     1       8.036  29.500  58.482  1.00  0.00     0.145 C 
HETATM    4  C   UNL     1       8.132  31.019  58.703  1.00  0.00     0.144 C 
HETATM    5  N   UNL     1       6.786  31.612  58.829  1.00  0.00    -0.363 N 
HETATM    6  C   UNL     1       5.941  31.338  57.653  1.00  0.00     0.144 C 
HETATM    7  C   UNL     1       5.825  29.821  57.398  1.00  0.00     0.145 C 
HETATM    8  O   UNL     1       8.458  27.355  56.830  1.00  0.00    -0.273 OA
ENDROOT
BRANCH   5   9
HETATM    9  C   UNL     1       6.282  31.952  60.053  1.00  0.00     0.122 A 
HETATM   10  N   UNL     1       4.941  32.045  60.322  1.00  0.00    -0.262 N 
HETATM   11  H   UNL     1       4.171  31.887  59.686  1.00  0.00     0.191 HD
HETATM   12  N   UNL     1       4.643  32.420  61.573  1.00  0.00    -0.173 NA
HETATM   13  C   UNL     1       5.835  32.632  62.154  1.00  0.00     0.090 A 
HETATM   14  C   UNL     1       6.883  32.335  61.235  1.00  0.00     0.084 A 
BRANCH  13  15
HETATM   15  C   UNL     1       5.939  33.122  63.536  1.00  0.00    -0.005 A 
HETATM   16  C   UNL     1       7.200  33.318  64.126  1.00  0.00     0.015 A 
HETATM   17  C   UNL     1       7.318  33.762  65.447  1.00  0.00     0.024 A 
HETATM   18  C   UNL     1       6.172  34.015  66.194  1.00  0.00     0.034 A 
HETATM   19 CL   UNL     1       6.312  34.554  67.822  1.00  0.00    -0.084 Cl
HETATM   20  C   UNL     1       4.912  33.832  65.630  1.00  0.00     0.024 A 
HETATM   21  C   UNL     1       4.796  33.387  64.307  1.00  0.00     0.015 A 
ENDBRANCH  13  15
ENDBRANCH   5   9
BRANCH   1  22
HETATM   22  C   UNL     1       6.380  27.470  55.664  1.00  0.00     0.141 C 
BRANCH  22  23
HETATM   23  C   UNL     1       6.834  26.278  54.852  1.00  0.00    -0.049 A 
HETATM   24  C   UNL     1       7.441  26.442  53.598  1.00  0.00     0.010 A 
HETATM   25  C   UNL     1       7.927  25.340  52.885  1.00  0.00     0.037 A 
HETATM   26  C   UNL     1       7.830  24.058  53.423  1.00  0.00     0.068 A 
HETATM   27  C   UNL     1       7.219  23.887  54.665  1.00  0.00     0.037 A 
HETATM   28  C   UNL     1       6.734  24.985  55.381  1.00  0.00     0.010 A 
BRANCH  26  29
HETATM   29  O   UNL     1       8.287  22.908  52.842  1.00  0.00    -0.352 OA
BRANCH  29  30
HETATM   30  C   UNL     1       8.416  21.768  53.692  1.00  0.00     0.171 C 
HETATM   31  C   UNL     1       8.229  20.524  52.841  1.00  0.00     0.034 C 
ENDBRANCH  29  30
ENDBRANCH  26  29
ENDBRANCH  22  23
ENDBRANCH   1  22
TORSDOF 6
ENDMDL
MODEL 3
REMARK VINA RESULT:      -9.9      5.135     11.706
REMARK  6 active torsions:
REMARK  status: ('A' for Active; 'I' for Inactive)
REMARK    1  A    between atoms: C_2  and  O_3 
REMARK    2  A    between atoms: O_3  and  C_4 
REMARK    3  A    between atoms: C_7  and  C_8 
REMARK    4  A    between atoms: C_8  and  C_9 
REMARK       I    between atoms: C_9  and  N_10 
REMARK    5  A    between atoms: N_13  and  C_14 
REMARK    6  A    between atoms: C_18  and  C_19 
ROOT
HETATM    1  C   UNL     1       6.825  27.073  56.222  1.00  0.00     0.224 C 
HETATM    2  N   UNL     1       7.038  28.226  56.968  1.00  0.00    -0.349 N 
HETATM    3  C   UNL     1       8.326  28.362  57.667  1.00  0.00     0.145 C 
HETATM    4  C   UNL     1       8.768  29.827  57.821  1.00  0.00     0.144 C 
HETATM    5  N   UNL     1       7.687  30.636  58.417  1.00  0.00    -0.363 N 
HETATM    6  C   UNL     1       6.444  30.578  57.627  1.00  0.00     0.144 C 
HETATM    7  C   UNL     1       5.972  29.119  57.447  1.00  0.00     0.145 C 
HETATM    8  O   UNL     1       7.736  26.271  55.997  1.00  0.00    -0.273 OA
ENDROOT
BRANCH   5   9
HETATM    9  C   UNL     1       7.722  30.990  59.736  1.00  0.00     0.122 A 
HETATM   10  N   UNL     1       8.564  30.416  60.653  1.00  0.00    -0.262 N 
HETATM   11  H   UNL     1       9.241  29.683  60.495  1.00  0.00     0.191 HD
HETATM   12  N   UNL     1       8.431  30.877  61.904  1.00  0.00    -0.173 NA
HETATM   13  C   UNL     1       7.426  31.765  61.831  1.00  0.00     0.090 A 
HETATM   14  C   UNL     1       6.969  31.872  60.486  1.00  0.00     0.084 A 
BRANCH  13  15
HETATM   15  C   UNL     1       6.927  32.459  63.027  1.00  0.00    -0.005 A 
HETATM   16  C   UNL     1       7.827  33.015  63.952  1.00  0.00     0.015 A 
HETATM   17  C   UNL     1       7.370  33.660  65.107  1.00  0.00     0.024 A 
HETATM   18  C   UNL     1       6.003  33.754  65.348  1.00  0.00     0.034 A 
HETATM   19 CL   UNL     1       5.436  34.539  66.770  1.00  0.00    -0.084 Cl
HETATM   20  C   UNL     1       5.092  33.214  64.444  1.00  0.00     0.024 A 
HETATM   21  C   UNL     1       5.552  32.570  63.288  1.00  0.00     0.015 A 
ENDBRANCH  13  15
ENDBRANCH   5   9
BRANCH   1  22
HETATM   22  C   UNL     1       5.437  26.807  55.656  1.00  0.00     0.141 C 
BRANCH  22  23
HETATM   23  C   UNL     1       5.407  26.516  54.173  1.00  0.00    -0.049 A 
HETATM   24  C   UNL     1       5.140  25.227  53.690  1.00  0.00     0.010 A 
HETATM   25  C   UNL     1       5.040  24.980  52.316  1.00  0.00     0.037 A 
HETATM   26  C   UNL     1       5.187  26.023  51.404  1.00  0.00     0.068 A 
HETATM   27  C   UNL     1       5.462  27.306  51.876  1.00  0.00     0.037 A 
HETATM   28  C   UNL     1       5.561  27.557  53.248  1.00  0.00     0.010 A 
BRANCH  26  29
HETATM   29  O   UNL     1       5.087  25.920  50.044  1.00  0.00    -0.352 OA
BRANCH  29  30
HETATM   30  C   UNL     1       4.534  27.041  49.354  1.00  0.00     0.171 C 
HETATM   31  C   UNL     1       4.403  26.672  47.887  1.00  0.00     0.034 C 
ENDBRANCH  29  30
ENDBRANCH  26  29
ENDBRANCH  22  23
ENDBRANCH   1  22
TORSDOF 6
ENDMDL
MODEL 4
REMARK VINA RESULT:      -9.6      4.851     11.706
REMARK  6 active torsions:
REMARK  status: ('A' for Active; 'I' for Inactive)
REMARK    1  A    between atoms: C_2  and  O_3 
REMARK    2  A    between atoms: O_3  and  C_4 
REMARK    3  A    between atoms: C_7  and  C_8 
REMARK    4  A    between atoms: C_8  and  C_9 
REMARK       I    between atoms: C_9  and  N_10 
REMARK    5  A    between atoms: N_13  and  C_14 
REMARK    6  A    between atoms: C_18  and  C_19 
ROOT
HETATM    1  C   UNL     1       7.837  29.164  57.497  1.00  0.00     0.224 C 
HETATM    2  N   UNL     1       7.484  30.181  58.377  1.00  0.00    -0.349 N 
HETATM    3  C   UNL     1       8.355  30.415  59.540  1.00  0.00     0.145 C 
HETATM    4  C   UNL     1       8.352  31.882  60.002  1.00  0.00     0.144 C 
HETATM    5  N   UNL     1       6.970  32.362  60.195  1.00  0.00    -0.363 N 
HETATM    6  C   UNL     1       6.155  32.229  58.975  1.00  0.00     0.144 C 
HETATM    7  C   UNL     1       6.139  30.768  58.479  1.00  0.00     0.145 C 
HETATM    8  O   UNL     1       8.928  28.592  57.575  1.00  0.00    -0.273 OA
ENDROOT
BRANCH   5   9
HETATM    9  C   UNL     1       6.435  32.471  61.448  1.00  0.00     0.122 A 
HETATM   10  N   UNL     1       5.196  31.990  61.787  1.00  0.00    -0.262 N 
HETATM   11  H   UNL     1       4.533  31.516  61.190  1.00  0.00     0.191 HD
HETATM   12  N   UNL     1       4.834  32.217  63.057  1.00  0.00    -0.173 NA
HETATM   13  C   UNL     1       5.853  32.919  63.578  1.00  0.00     0.090 A 
HETATM   14  C   UNL     1       6.879  33.083  62.602  1.00  0.00     0.084 A 
BRANCH  13  15
HETATM   15  C   UNL     1       5.813  33.422  64.959  1.00  0.00    -0.005 A 
HETATM   16  C   UNL     1       4.581  33.679  65.585  1.00  0.00     0.015 A 
HETATM   17  C   UNL     1       4.524  34.178  66.890  1.00  0.00     0.024 A 
HETATM   18  C   UNL     1       5.703  34.427  67.585  1.00  0.00     0.034 A 
HETATM   19 CL   UNL     1       5.639  35.049  69.187  1.00  0.00    -0.084 Cl
HETATM   20  C   UNL     1       6.936  34.177  66.987  1.00  0.00     0.024 A 
HETATM   21  C   UNL     1       6.991  33.677  65.680  1.00  0.00     0.015 A 
ENDBRANCH  13  15
ENDBRANCH   5   9
BRANCH   1  22
HETATM   22  C   UNL     1       6.857  28.763  56.404  1.00  0.00     0.141 C 
BRANCH  22  23
HETATM   23  C   UNL     1       6.898  27.299  56.029  1.00  0.00    -0.049 A 
HETATM   24  C   UNL     1       6.439  26.310  56.912  1.00  0.00     0.010 A 
HETATM   25  C   UNL     1       6.409  24.964  56.530  1.00  0.00     0.037 A 
HETATM   26  C   UNL     1       6.822  24.587  55.254  1.00  0.00     0.068 A 
HETATM   27  C   UNL     1       7.289  25.564  54.374  1.00  0.00     0.037 A 
HETATM   28  C   UNL     1       7.318  26.910  54.751  1.00  0.00     0.010 A 
BRANCH  26  29
HETATM   29  O   UNL     1       6.818  23.315  54.752  1.00  0.00    -0.352 OA
BRANCH  29  30
HETATM   30  C   UNL     1       7.682  22.372  55.387  1.00  0.00     0.171 C 
HETATM   31  C   UNL     1       9.053  23.010  55.524  1.00  0.00     0.034 C 
ENDBRANCH  29  30
ENDBRANCH  26  29
ENDBRANCH  22  23
ENDBRANCH   1  22
TORSDOF 6
ENDMDL
MODEL 5
REMARK VINA RESULT:      -9.5      1.831      2.313
REMARK  6 active torsions:
REMARK  status: ('A' for Active; 'I' for Inactive)
REMARK    1  A    between atoms: C_2  and  O_3 
REMARK    2  A    between atoms: O_3  and  C_4 
REMARK    3  A    between atoms: C_7  and  C_8 
REMARK    4  A    between atoms: C_8  and  C_9 
REMARK       I    between atoms: C_9  and  N_10 
REMARK    5  A    between atoms: N_13  and  C_14 
REMARK    6  A    between atoms: C_18  and  C_19 
ROOT
HETATM    1  C   UNL     1       4.389  31.916  58.945  1.00  0.00     0.224 C 
HETATM    2  N   UNL     1       4.712  30.981  57.969  1.00  0.00    -0.349 N 
HETATM    3  C   UNL     1       3.639  30.097  57.485  1.00  0.00     0.145 C 
HETATM    4  C   UNL     1       3.839  29.662  56.023  1.00  0.00     0.144 C 
HETATM    5  N   UNL     1       5.193  29.106  55.828  1.00  0.00    -0.363 N 
HETATM    6  C   UNL     1       6.250  30.061  56.206  1.00  0.00     0.144 C 
HETATM    7  C   UNL     1       6.077  30.524  57.668  1.00  0.00     0.145 C 
HETATM    8  O   UNL     1       3.218  32.131  59.273  1.00  0.00    -0.273 OA
ENDROOT
BRANCH   5   9
HETATM    9  C   UNL     1       5.392  27.757  55.752  1.00  0.00     0.122 A 
HETATM   10  N   UNL     1       4.827  26.857  56.618  1.00  0.00    -0.262 N 
HETATM   11  H   UNL     1       4.217  27.052  57.400  1.00  0.00     0.191 HD
HETATM   12  N   UNL     1       5.164  25.578  56.399  1.00  0.00    -0.173 NA
HETATM   13  C   UNL     1       6.027  25.628  55.372  1.00  0.00     0.090 A 
HETATM   14  C   UNL     1       6.181  26.975  54.932  1.00  0.00     0.084 A 
BRANCH  13  15
HETATM   15  C   UNL     1       6.683  24.416  54.860  1.00  0.00    -0.005 A 
HETATM   16  C   UNL     1       6.827  24.218  53.476  1.00  0.00     0.015 A 
HETATM   17  C   UNL     1       7.429  23.061  52.971  1.00  0.00     0.024 A 
HETATM   18  C   UNL     1       7.893  22.086  53.848  1.00  0.00     0.034 A 
HETATM   19 CL   UNL     1       8.626  20.657  53.232  1.00  0.00    -0.084 Cl
HETATM   20  C   UNL     1       7.764  22.262  55.224  1.00  0.00     0.024 A 
HETATM   21  C   UNL     1       7.162  23.422  55.727  1.00  0.00     0.015 A 
ENDBRANCH  13  15
ENDBRANCH   5   9
BRANCH   1  22
HETATM   22  C   UNL     1       5.509  32.702  59.611  1.00  0.00     0.141 C 
BRANCH  22  23
HETATM   23  C   UNL     1       5.284  33.000  61.076  1.00  0.00    -0.049 A 
HETATM   24  C   UNL     1       4.765  34.234  61.495  1.00  0.00     0.010 A 
HETATM   25  C   UNL     1       4.488  34.476  62.846  1.00  0.00     0.037 A 
HETATM   26  C   UNL     1       4.708  33.481  63.796  1.00  0.00     0.068 A 
HETATM   27  C   UNL     1       5.234  32.255  63.388  1.00  0.00     0.037 A 
HETATM   28  C   UNL     1       5.510  32.009  62.040  1.00  0.00     0.010 A 
BRANCH  26  29
HETATM   29  O   UNL     1       4.456  33.581  65.137  1.00  0.00    -0.352 OA
BRANCH  29  30
HETATM   30  C   UNL     1       3.566  34.619  65.546  1.00  0.00     0.171 C 
HETATM   31  C   UNL     1       4.333  35.566  66.451  1.00  0.00     0.034 C 
ENDBRANCH  29  30
ENDBRANCH  26  29
ENDBRANCH  22  23
ENDBRANCH   1  22
TORSDOF 6
ENDMDL
MODEL 6
REMARK VINA RESULT:      -8.9      1.893      2.616
REMARK  6 active torsions:
REMARK  status: ('A' for Active; 'I' for Inactive)
REMARK    1  A    between atoms: C_2  and  O_3 
REMARK    2  A    between atoms: O_3  and  C_4 
REMARK    3  A    between atoms: C_7  and  C_8 
REMARK    4  A    between atoms: C_8  and  C_9 
REMARK       I    between atoms: C_9  and  N_10 
REMARK    5  A    between atoms: N_13  and  C_14 
REMARK    6  A    between atoms: C_18  and  C_19 
ROOT
HETATM    1  C   UNL     1       3.566  33.110  59.964  1.00  0.00     0.224 C 
HETATM    2  N   UNL     1       4.266  32.242  59.134  1.00  0.00    -0.349 N 
HETATM    3  C   UNL     1       3.601  30.992  58.732  1.00  0.00     0.145 C 
HETATM    4  C   UNL     1       4.057  30.492  57.351  1.00  0.00     0.144 C 
HETATM    5  N   UNL     1       5.530  30.424  57.283  1.00  0.00    -0.363 N 
HETATM    6  C   UNL     1       6.164  31.722  57.570  1.00  0.00     0.144 C 
HETATM    7  C   UNL     1       5.726  32.258  58.949  1.00  0.00     0.145 C 
HETATM    8  O   UNL     1       2.369  32.940  60.214  1.00  0.00    -0.273 OA
ENDROOT
BRANCH   5   9
HETATM    9  C   UNL     1       6.181  29.228  57.396  1.00  0.00     0.122 A 
HETATM   10  N   UNL     1       7.289  29.039  58.181  1.00  0.00    -0.262 N 
HETATM   11  H   UNL     1       7.761  29.722  58.757  1.00  0.00     0.191 HD
HETATM   12  N   UNL     1       7.804  27.802  58.139  1.00  0.00    -0.173 NA
HETATM   13  C   UNL     1       7.036  27.148  57.253  1.00  0.00     0.090 A 
HETATM   14  C   UNL     1       6.002  28.006  56.779  1.00  0.00     0.084 A 
BRANCH  13  15
HETATM   15  C   UNL     1       7.317  25.755  56.874  1.00  0.00    -0.005 A 
HETATM   16  C   UNL     1       8.379  25.058  57.475  1.00  0.00     0.015 A 
HETATM   17  C   UNL     1       8.675  23.739  57.112  1.00  0.00     0.024 A 
HETATM   18  C   UNL     1       7.909  23.104  56.140  1.00  0.00     0.034 A 
HETATM   19 CL   UNL     1       8.273  21.486  55.683  1.00  0.00    -0.084 Cl
HETATM   20  C   UNL     1       6.849  23.774  55.533  1.00  0.00     0.024 A 
HETATM   21  C   UNL     1       6.555  25.094  55.899  1.00  0.00     0.015 A 
ENDBRANCH  13  15
ENDBRANCH   5   9
BRANCH   1  22
HETATM   22  C   UNL     1       4.294  34.306  60.560  1.00  0.00     0.141 C 
BRANCH  22  23
HETATM   23  C   UNL     1       4.770  34.108  61.982  1.00  0.00    -0.049 A 
HETATM   24  C   UNL     1       6.130  33.934  62.275  1.00  0.00     0.010 A 
HETATM   25  C   UNL     1       6.572  33.826  63.599  1.00  0.00     0.037 A 
HETATM   26  C   UNL     1       5.662  33.908  64.651  1.00  0.00     0.068 A 
HETATM   27  C   UNL     1       4.306  34.071  64.366  1.00  0.00     0.037 A 
HETATM   28  C   UNL     1       3.861  34.181  63.045  1.00  0.00     0.010 A 
BRANCH  26  29
HETATM   29  O   UNL     1       5.966  33.843  65.983  1.00  0.00    -0.352 OA
BRANCH  29  30
HETATM   30  C   UNL     1       5.292  34.764  66.840  1.00  0.00     0.171 C 
HETATM   31  C   UNL     1       4.844  34.009  68.079  1.00  0.00     0.034 C 
ENDBRANCH  29  30
ENDBRANCH  26  29
ENDBRANCH  22  23
ENDBRANCH   1  22
TORSDOF 6
ENDMDL
MODEL 7
REMARK VINA RESULT:      -8.7      9.325     12.710
REMARK  6 active torsions:
REMARK  status: ('A' for Active; 'I' for Inactive)
REMARK    1  A    between atoms: C_2  and  O_3 
REMARK    2  A    between atoms: O_3  and  C_4 
REMARK    3  A    between atoms: C_7  and  C_8 
REMARK    4  A    between atoms: C_8  and  C_9 
REMARK       I    between atoms: C_9  and  N_10 
REMARK    5  A    between atoms: N_13  and  C_14 
REMARK    6  A    between atoms: C_18  and  C_19 
ROOT
HETATM    1  C   UNL     1       5.699  26.502  51.745  1.00  0.00     0.224 C 
HETATM    2  N   UNL     1       5.291  26.957  50.497  1.00  0.00    -0.349 N 
HETATM    3  C   UNL     1       5.439  28.393  50.209  1.00  0.00     0.145 C 
HETATM    4  C   UNL     1       5.674  28.680  48.716  1.00  0.00     0.144 C 
HETATM    5  N   UNL     1       4.645  28.017  47.891  1.00  0.00    -0.363 N 
HETATM    6  C   UNL     1       4.605  26.561  48.111  1.00  0.00     0.144 C 
HETATM    7  C   UNL     1       4.375  26.234  49.602  1.00  0.00     0.145 C 
HETATM    8  O   UNL     1       6.326  27.226  52.524  1.00  0.00    -0.273 OA
ENDROOT
BRANCH   5   9
HETATM    9  C   UNL     1       3.602  28.728  47.369  1.00  0.00     0.122 A 
HETATM   10  N   UNL     1       3.727  29.992  46.855  1.00  0.00    -0.262 N 
HETATM   11  H   UNL     1       4.564  30.555  46.796  1.00  0.00     0.191 HD
HETATM   12  N   UNL     1       2.583  30.536  46.415  1.00  0.00    -0.173 NA
HETATM   13  C   UNL     1       1.645  29.615  46.687  1.00  0.00     0.090 A 
HETATM   14  C   UNL     1       2.250  28.464  47.271  1.00  0.00     0.084 A 
BRANCH  13  15
HETATM   15  C   UNL     1       0.224  29.860  46.407  1.00  0.00    -0.005 A 
HETATM   16  C   UNL     1      -0.320  31.145  46.574  1.00  0.00     0.015 A 
HETATM   17  C   UNL     1      -1.676  31.393  46.333  1.00  0.00     0.024 A 
HETATM   18  C   UNL     1      -2.504  30.354  45.922  1.00  0.00     0.034 A 
HETATM   19 CL   UNL     1      -4.174  30.650  45.633  1.00  0.00    -0.084 Cl
HETATM   20  C   UNL     1      -1.987  29.072  45.746  1.00  0.00     0.024 A 
HETATM   21  C   UNL     1      -0.629  28.827  45.987  1.00  0.00     0.015 A 
ENDBRANCH  13  15
ENDBRANCH   5   9
BRANCH   1  22
HETATM   22  C   UNL     1       5.374  25.071  52.149  1.00  0.00     0.141 C 
BRANCH  22  23
HETATM   23  C   UNL     1       6.382  24.436  53.080  1.00  0.00    -0.049 A 
HETATM   24  C   UNL     1       6.245  24.531  54.472  1.00  0.00     0.010 A 
HETATM   25  C   UNL     1       7.140  23.878  55.329  1.00  0.00     0.037 A 
HETATM   26  C   UNL     1       8.175  23.106  54.806  1.00  0.00     0.068 A 
HETATM   27  C   UNL     1       8.324  23.016  53.422  1.00  0.00     0.037 A 
HETATM   28  C   UNL     1       7.431  23.665  52.563  1.00  0.00     0.010 A 
BRANCH  26  29
HETATM   29  O   UNL     1       9.096  22.402  55.531  1.00  0.00    -0.352 OA
BRANCH  29  30
HETATM   30  C   UNL     1       8.591  21.580  56.584  1.00  0.00     0.171 C 
HETATM   31  C   UNL     1       8.077  20.291  55.968  1.00  0.00     0.034 C 
ENDBRANCH  29  30
ENDBRANCH  26  29
ENDBRANCH  22  23
ENDBRANCH   1  22
TORSDOF 6
ENDMDL
MODEL 8
REMARK VINA RESULT:      -8.6      2.667      4.027
REMARK  6 active torsions:
REMARK  status: ('A' for Active; 'I' for Inactive)
REMARK    1  A    between atoms: C_2  and  O_3 
REMARK    2  A    between atoms: O_3  and  C_4 
REMARK    3  A    between atoms: C_7  and  C_8 
REMARK    4  A    between atoms: C_8  and  C_9 
REMARK       I    between atoms: C_9  and  N_10 
REMARK    5  A    between atoms: N_13  and  C_14 
REMARK    6  A    between atoms: C_18  and  C_19 
ROOT
HETATM    1  C   UNL     1       4.301  33.152  61.739  1.00  0.00     0.224 C 
HETATM    2  N   UNL     1       5.092  32.588  60.745  1.00  0.00    -0.349 N 
HETATM    3  C   UNL     1       4.414  32.020  59.568  1.00  0.00     0.145 C 
HETATM    4  C   UNL     1       5.268  32.102  58.292  1.00  0.00     0.144 C 
HETATM    5  N   UNL     1       6.610  31.535  58.528  1.00  0.00    -0.363 N 
HETATM    6  C   UNL     1       7.315  32.207  59.634  1.00  0.00     0.144 C 
HETATM    7  C   UNL     1       6.484  32.150  60.933  1.00  0.00     0.145 C 
HETATM    8  O   UNL     1       3.091  33.339  61.574  1.00  0.00    -0.273 OA
ENDROOT
BRANCH   5   9
HETATM    9  C   UNL     1       6.931  30.283  58.084  1.00  0.00     0.122 A 
HETATM   10  N   UNL     1       7.725  29.412  58.782  1.00  0.00    -0.262 N 
HETATM   11  H   UNL     1       8.170  29.563  59.678  1.00  0.00     0.191 HD
HETATM   12  N   UNL     1       7.949  28.241  58.170  1.00  0.00    -0.173 NA
HETATM   13  C   UNL     1       7.315  28.350  56.991  1.00  0.00     0.090 A 
HETATM   14  C   UNL     1       6.655  29.611  56.911  1.00  0.00     0.084 A 
BRANCH  13  15
HETATM   15  C   UNL     1       7.372  27.279  55.986  1.00  0.00    -0.005 A 
HETATM   16  C   UNL     1       7.512  27.593  54.623  1.00  0.00     0.015 A 
HETATM   17  C   UNL     1       7.545  26.587  53.651  1.00  0.00     0.024 A 
HETATM   18  C   UNL     1       7.438  25.254  54.034  1.00  0.00     0.034 A 
HETATM   19 CL   UNL     1       7.470  24.015  52.841  1.00  0.00    -0.084 Cl
HETATM   20  C   UNL     1       7.302  24.919  55.379  1.00  0.00     0.024 A 
HETATM   21  C   UNL     1       7.269  25.927  56.351  1.00  0.00     0.015 A 
ENDBRANCH  13  15
ENDBRANCH   5   9
BRANCH   1  22
HETATM   22  C   UNL     1       4.950  33.562  63.053  1.00  0.00     0.141 C 
BRANCH  22  23
HETATM   23  C   UNL     1       5.104  35.055  63.239  1.00  0.00    -0.049 A 
HETATM   24  C   UNL     1       4.743  35.678  64.442  1.00  0.00     0.010 A 
HETATM   25  C   UNL     1       4.959  37.048  64.635  1.00  0.00     0.037 A 
HETATM   26  C   UNL     1       5.555  37.812  63.634  1.00  0.00     0.068 A 
HETATM   27  C   UNL     1       5.907  37.201  62.430  1.00  0.00     0.037 A 
HETATM   28  C   UNL     1       5.696  35.833  62.235  1.00  0.00     0.010 A 
BRANCH  26  29
HETATM   29  O   UNL     1       5.842  39.147  63.706  1.00  0.00    -0.352 OA
BRANCH  29  30
HETATM   30  C   UNL     1       6.853  39.635  62.824  1.00  0.00     0.171 C 
HETATM   31  C   UNL     1       7.793  40.515  63.628  1.00  0.00     0.034 C 
ENDBRANCH  29  30
ENDBRANCH  26  29
ENDBRANCH  22  23
ENDBRANCH   1  22
TORSDOF 6
ENDMDL
MODEL 9
REMARK VINA RESULT:      -8.6      4.965      8.088
REMARK  6 active torsions:
REMARK  status: ('A' for Active; 'I' for Inactive)
REMARK    1  A    between atoms: C_2  and  O_3 
REMARK    2  A    between atoms: O_3  and  C_4 
REMARK    3  A    between atoms: C_7  and  C_8 
REMARK    4  A    between atoms: C_8  and  C_9 
REMARK       I    between atoms: C_9  and  N_10 
REMARK    5  A    between atoms: N_13  and  C_14 
REMARK    6  A    between atoms: C_18  and  C_19 
ROOT
HETATM    1  C   UNL     1       4.632  34.583  67.003  1.00  0.00     0.224 C 
HETATM    2  N   UNL     1       5.085  34.358  65.709  1.00  0.00    -0.349 N 
HETATM    3  C   UNL     1       4.409  33.317  64.917  1.00  0.00     0.145 C 
HETATM    4  C   UNL     1       4.430  33.609  63.407  1.00  0.00     0.144 C 
HETATM    5  N   UNL     1       5.805  33.895  62.953  1.00  0.00    -0.363 N 
HETATM    6  C   UNL     1       6.412  35.024  63.681  1.00  0.00     0.144 C 
HETATM    7  C   UNL     1       6.404  34.767  65.202  1.00  0.00     0.145 C 
HETATM    8  O   UNL     1       3.592  34.066  67.423  1.00  0.00    -0.273 OA
ENDROOT
BRANCH   5   9
HETATM    9  C   UNL     1       6.535  32.949  62.291  1.00  0.00     0.122 A 
HETATM   10  N   UNL     1       7.088  31.853  62.902  1.00  0.00    -0.262 N 
HETATM   11  H   UNL     1       7.041  31.602  63.880  1.00  0.00     0.191 HD
HETATM   12  N   UNL     1       7.793  31.053  62.090  1.00  0.00    -0.173 NA
HETATM   13  C   UNL     1       7.750  31.663  60.895  1.00  0.00     0.090 A 
HETATM   14  C   UNL     1       6.959  32.845  60.981  1.00  0.00     0.084 A 
BRANCH  13  15
HETATM   15  C   UNL     1       8.467  31.123  59.731  1.00  0.00    -0.005 A 
HETATM   16  C   UNL     1       9.615  31.771  59.241  1.00  0.00     0.015 A 
HETATM   17  C   UNL     1      10.297  31.284  58.121  1.00  0.00     0.024 A 
HETATM   18  C   UNL     1       9.836  30.141  57.477  1.00  0.00     0.034 A 
HETATM   19 CL   UNL     1      10.667  29.542  56.095  1.00  0.00    -0.084 Cl
HETATM   20  C   UNL     1       8.704  29.479  57.946  1.00  0.00     0.024 A 
HETATM   21  C   UNL     1       8.022  29.969  59.068  1.00  0.00     0.015 A 
ENDBRANCH  13  15
ENDBRANCH   5   9
BRANCH   1  22
HETATM   22  C   UNL     1       5.432  35.502  67.915  1.00  0.00     0.141 C 
BRANCH  22  23
HETATM   23  C   UNL     1       6.306  34.786  68.919  1.00  0.00    -0.049 A 
HETATM   24  C   UNL     1       7.595  35.248  69.221  1.00  0.00     0.010 A 
HETATM   25  C   UNL     1       8.370  34.625  70.206  1.00  0.00     0.037 A 
HETATM   26  C   UNL     1       7.860  33.541  70.918  1.00  0.00     0.068 A 
HETATM   27  C   UNL     1       6.582  33.070  70.617  1.00  0.00     0.037 A 
HETATM   28  C   UNL     1       5.805  33.691  69.635  1.00  0.00     0.010 A 
BRANCH  26  29
HETATM   29  O   UNL     1       8.502  32.864  71.918  1.00  0.00    -0.352 OA
BRANCH  29  30
HETATM   30  C   UNL     1       7.934  32.958  73.224  1.00  0.00     0.171 C 
HETATM   31  C   UNL     1       8.085  34.392  73.700  1.00  0.00     0.034 C 
ENDBRANCH  29  30
ENDBRANCH  26  29
ENDBRANCH  22  23
ENDBRANCH   1  22
TORSDOF 6
ENDMDL
MODEL 10
REMARK VINA RESULT:      -8.5      4.604      6.510
REMARK  6 active torsions:
REMARK  status: ('A' for Active; 'I' for Inactive)
REMARK    1  A    between atoms: C_2  and  O_3 
REMARK    2  A    between atoms: O_3  and  C_4 
REMARK    3  A    between atoms: C_7  and  C_8 
REMARK    4  A    between atoms: C_8  and  C_9 
REMARK       I    between atoms: C_9  and  N_10 
REMARK    5  A    between atoms: N_13  and  C_14 
REMARK    6  A    between atoms: C_18  and  C_19 
ROOT
HETATM    1  C   UNL     1       4.785  32.677  56.023  1.00  0.00     0.224 C 
HETATM    2  N   UNL     1       4.843  31.294  56.143  1.00  0.00    -0.349 N 
HETATM    3  C   UNL     1       5.750  30.732  57.158  1.00  0.00     0.145 C 
HETATM    4  C   UNL     1       5.257  29.387  57.719  1.00  0.00     0.144 C 
HETATM    5  N   UNL     1       4.946  28.450  56.622  1.00  0.00    -0.363 N 
HETATM    6  C   UNL     1       3.942  28.992  55.689  1.00  0.00     0.144 C 
HETATM    7  C   UNL     1       4.402  30.346  55.109  1.00  0.00     0.145 C 
HETATM    8  O   UNL     1       5.328  33.421  56.845  1.00  0.00    -0.273 OA
ENDROOT
BRANCH   5   9
HETATM    9  C   UNL     1       5.811  27.445  56.293  1.00  0.00     0.122 A 
HETATM   10  N   UNL     1       7.160  27.498  56.531  1.00  0.00    -0.262 N 
HETATM   11  H   UNL     1       7.683  28.250  56.958  1.00  0.00     0.191 HD
HETATM   12  N   UNL     1       7.848  26.427  56.111  1.00  0.00    -0.173 NA
HETATM   13  C   UNL     1       6.927  25.644  55.525  1.00  0.00     0.090 A 
HETATM   14  C   UNL     1       5.639  26.244  55.634  1.00  0.00     0.084 A 
BRANCH  13  15
HETATM   15  C   UNL     1       7.297  24.380  54.873  1.00  0.00    -0.005 A 
HETATM   16  C   UNL     1       7.459  24.322  53.478  1.00  0.00     0.015 A 
HETATM   17  C   UNL     1       7.789  23.123  52.838  1.00  0.00     0.024 A 
HETATM   18  C   UNL     1       7.961  21.965  53.590  1.00  0.00     0.034 A 
HETATM   19 CL   UNL     1       8.359  20.486  52.807  1.00  0.00    -0.084 Cl
HETATM   20  C   UNL     1       7.809  21.998  54.974  1.00  0.00     0.024 A 
HETATM   21  C   UNL     1       7.479  23.200  55.613  1.00  0.00     0.015 A 
ENDBRANCH  13  15
ENDBRANCH   5   9
BRANCH   1  22
HETATM   22  C   UNL     1       4.018  33.283  54.856  1.00  0.00     0.141 C 
BRANCH  22  23
HETATM   23  C   UNL     1       2.577  33.625  55.161  1.00  0.00    -0.049 A 
HETATM   24  C   UNL     1       2.241  34.787  55.872  1.00  0.00     0.010 A 
HETATM   25  C   UNL     1       0.902  35.136  56.085  1.00  0.00     0.037 A 
HETATM   26  C   UNL     1      -0.121  34.339  55.576  1.00  0.00     0.068 A 
HETATM   27  C   UNL     1       0.206  33.177  54.877  1.00  0.00     0.037 A 
HETATM   28  C   UNL     1       1.542  32.825  54.660  1.00  0.00     0.010 A 
BRANCH  26  29
HETATM   29  O   UNL     1      -1.462  34.582  55.693  1.00  0.00    -0.352 OA
BRANCH  29  30
HETATM   30  C   UNL     1      -2.340  33.505  55.364  1.00  0.00     0.171 C 
HETATM   31  C   UNL     1      -3.338  33.351  56.497  1.00  0.00     0.034 C 
ENDBRANCH  29  30
ENDBRANCH  26  29
ENDBRANCH  22  23
ENDBRANCH   1  22
TORSDOF 6
ENDMDL
