MODEL 1
REMARK VINA RESULT:      -9.1      0.000      0.000
REMARK  6 active torsions:
REMARK  status: ('A' for Active; 'I' for Inactive)
REMARK    1  A    between atoms: C_2  and  N_3 
REMARK    2  A    between atoms: C_2  and  C_24 
REMARK       I    between atoms: N_3  and  C_4 
REMARK    3  A    between atoms: C_4  and  C_5 
REMARK    4  A    between atoms: C_5  and  N_6 
REMARK    5  A    between atoms: C_10  and  N_11 
REMARK       I    between atoms: N_11  and  C_12 
REMARK       I    between atoms: C_12  and  N_13 
REMARK    6  A    between atoms: N_13  and  C_14 
ROOT
HETATM    1  N   UNL     1       8.212  29.117  57.119  1.00  0.00    -0.063 N 
HETATM    2  H   UNL     1       7.637  29.857  57.547  1.00  0.00     0.280 HD
HETATM    3  C   UNL     1       8.008  29.232  55.627  1.00  0.00     0.237 C 
HETATM    4  C   UNL     1       6.708  28.599  55.175  1.00  0.00     0.053 C 
HETATM    5  C   UNL     1       6.537  27.163  55.654  1.00  0.00     0.089 C 
HETATM    6  C   UNL     1       6.667  27.095  57.172  1.00  0.00     0.053 C 
HETATM    7  C   UNL     1       7.877  27.795  57.765  1.00  0.00     0.237 C 
ENDROOT
BRANCH   1   8
HETATM    8  C   UNL     1       9.670  29.477  57.481  1.00  0.00     0.337 C 
BRANCH   8   9
HETATM    9  C   UNL     1       9.788  30.802  58.233  1.00  0.00     0.244 C 
HETATM   10  N   UNL     1       8.983  30.911  59.339  1.00  0.00    -0.351 N 
HETATM   11  H   UNL     1       8.382  30.145  59.627  1.00  0.00     0.163 HD
HETATM   12  O   UNL     1      10.610  31.645  57.885  1.00  0.00    -0.272 OA
BRANCH  10  13
HETATM   13  C   UNL     1       9.002  32.067  60.224  1.00  0.00     0.120 C 
HETATM   14  C   UNL     1       9.767  31.786  61.518  1.00  0.00     0.038 C 
BRANCH  13  15
HETATM   15  C   UNL     1       7.571  32.466  60.494  1.00  0.00     0.005 A 
HETATM   16  S   UNL     1       6.325  32.160  59.346  1.00  0.00    -0.104 SA
HETATM   17  C   UNL     1       5.133  32.860  60.348  1.00  0.00     0.050 A 
HETATM   18  C   UNL     1       5.661  33.325  61.531  1.00  0.00     0.008 A 
HETATM   19  C   UNL     1       7.066  33.097  61.615  1.00  0.00     0.017 A 
ENDBRANCH  13  15
ENDBRANCH  10  13
ENDBRANCH   8   9
ENDBRANCH   1   8
BRANCH   5  20
HETATM   20  N   UNL     1       7.324  26.197  54.882  1.00  0.00    -0.338 N 
HETATM   21  C   UNL     1       7.137  24.838  54.825  1.00  0.00     0.321 C 
HETATM   22  N   UNL     1       8.230  24.188  54.307  1.00  0.00    -0.309 N 
HETATM   23  O   UNL     1       6.137  24.301  55.285  1.00  0.00    -0.247 OA
HETATM   24  H   UNL     1       9.080  24.727  54.232  1.00  0.00     0.170 HD
HETATM   25  H   UNL     1       8.001  26.577  54.231  1.00  0.00     0.164 HD
BRANCH  22  26
HETATM   26  C   UNL     1       8.380  22.786  54.200  1.00  0.00     0.036 A 
HETATM   27  C   UNL     1       7.993  22.053  53.075  1.00  0.00     0.029 A 
HETATM   28  C   UNL     1       8.133  20.663  53.050  1.00  0.00     0.002 A 
HETATM   29  C   UNL     1       8.665  19.994  54.150  1.00  0.00     0.000 A 
HETATM   30  C   UNL     1       9.073  20.718  55.268  1.00  0.00     0.002 A 
HETATM   31  C   UNL     1       8.942  22.110  55.288  1.00  0.00     0.029 A 
ENDBRANCH  22  26
ENDBRANCH   5  20
TORSDOF 6
ENDMDL
MODEL 2
REMARK VINA RESULT:      -9.0      1.853      2.272
REMARK  6 active torsions:
REMARK  status: ('A' for Active; 'I' for Inactive)
REMARK    1  A    between atoms: C_2  and  N_3 
REMARK    2  A    between atoms: C_2  and  C_24 
REMARK       I    between atoms: N_3  and  C_4 
REMARK    3  A    between atoms: C_4  and  C_5 
REMARK    4  A    between atoms: C_5  and  N_6 
REMARK    5  A    between atoms: C_10  and  N_11 
REMARK       I    between atoms: N_11  and  C_12 
REMARK       I    between atoms: C_12  and  N_13 
REMARK    6  A    between atoms: N_13  and  C_14 
ROOT
HETATM    1  N   UNL     1       5.834  29.440  56.164  1.00  0.00    -0.063 N 
HETATM    2  H   UNL     1       5.820  30.369  55.718  1.00  0.00     0.280 HD
HETATM    3  C   UNL     1       7.200  28.858  55.887  1.00  0.00     0.237 C 
HETATM    4  C   UNL     1       7.306  28.281  54.491  1.00  0.00     0.053 C 
HETATM    5  C   UNL     1       6.198  27.289  54.161  1.00  0.00     0.089 C 
HETATM    6  C   UNL     1       4.833  27.935  54.372  1.00  0.00     0.053 C 
HETATM    7  C   UNL     1       4.636  28.650  55.697  1.00  0.00     0.237 C 
ENDROOT
BRANCH   1   8
HETATM    8  C   UNL     1       5.674  29.715  57.675  1.00  0.00     0.337 C 
BRANCH   8   9
HETATM    9  C   UNL     1       6.327  31.024  58.116  1.00  0.00     0.244 C 
HETATM   10  N   UNL     1       7.266  30.895  59.108  1.00  0.00    -0.351 N 
HETATM   11  H   UNL     1       7.506  29.984  59.486  1.00  0.00     0.163 HD
HETATM   12  O   UNL     1       6.059  32.077  57.544  1.00  0.00    -0.272 OA
BRANCH  10  13
HETATM   13  C   UNL     1       8.046  32.016  59.614  1.00  0.00     0.120 C 
HETATM   14  C   UNL     1       9.545  31.816  59.395  1.00  0.00     0.038 C 
BRANCH  13  15
HETATM   15  C   UNL     1       7.710  32.190  61.075  1.00  0.00     0.005 A 
HETATM   16  S   UNL     1       6.115  32.588  61.587  1.00  0.00    -0.104 SA
HETATM   17  C   UNL     1       6.568  32.595  63.233  1.00  0.00     0.050 A 
HETATM   18  C   UNL     1       7.903  32.307  63.402  1.00  0.00     0.008 A 
HETATM   19  C   UNL     1       8.561  32.073  62.159  1.00  0.00     0.017 A 
ENDBRANCH  13  15
ENDBRANCH  10  13
ENDBRANCH   8   9
ENDBRANCH   1   8
BRANCH   5  20
HETATM   20  N   UNL     1       6.403  25.970  54.766  1.00  0.00    -0.338 N 
HETATM   21  C   UNL     1       7.221  24.967  54.306  1.00  0.00     0.321 C 
HETATM   22  N   UNL     1       6.930  23.757  54.883  1.00  0.00    -0.309 N 
HETATM   23  O   UNL     1       8.034  25.155  53.410  1.00  0.00    -0.247 OA
HETATM   24  H   UNL     1       6.059  23.698  55.391  1.00  0.00     0.170 HD
HETATM   25  H   UNL     1       5.994  25.819  55.681  1.00  0.00     0.164 HD
BRANCH  22  26
HETATM   26  C   UNL     1       7.534  22.521  54.556  1.00  0.00     0.036 A 
HETATM   27  C   UNL     1       7.696  22.064  53.246  1.00  0.00     0.029 A 
HETATM   28  C   UNL     1       8.265  20.813  52.994  1.00  0.00     0.002 A 
HETATM   29  C   UNL     1       8.681  20.009  54.053  1.00  0.00     0.000 A 
HETATM   30  C   UNL     1       8.543  20.464  55.362  1.00  0.00     0.002 A 
HETATM   31  C   UNL     1       7.981  21.720  55.613  1.00  0.00     0.029 A 
ENDBRANCH  22  26
ENDBRANCH   5  20
TORSDOF 6
ENDMDL
MODEL 3
REMARK VINA RESULT:      -8.7      2.736     10.473
REMARK  6 active torsions:
REMARK  status: ('A' for Active; 'I' for Inactive)
REMARK    1  A    between atoms: C_2  and  N_3 
REMARK    2  A    between atoms: C_2  and  C_24 
REMARK       I    between atoms: N_3  and  C_4 
REMARK    3  A    between atoms: C_4  and  C_5 
REMARK    4  A    between atoms: C_5  and  N_6 
REMARK    5  A    between atoms: C_10  and  N_11 
REMARK       I    between atoms: N_11  and  C_12 
REMARK       I    between atoms: C_12  and  N_13 
REMARK    6  A    between atoms: N_13  and  C_14 
ROOT
HETATM    1  N   UNL     1       7.285  27.717  56.314  1.00  0.00    -0.063 N 
HETATM    2  H   UNL     1       7.466  27.825  55.305  1.00  0.00     0.280 HD
HETATM    3  C   UNL     1       6.245  28.755  56.669  1.00  0.00     0.237 C 
HETATM    4  C   UNL     1       6.846  30.134  56.840  1.00  0.00     0.053 C 
HETATM    5  C   UNL     1       8.022  30.166  57.808  1.00  0.00     0.089 C 
HETATM    6  C   UNL     1       9.089  29.166  57.374  1.00  0.00     0.053 C 
HETATM    7  C   UNL     1       8.595  27.765  57.060  1.00  0.00     0.237 C 
ENDROOT
BRANCH   1   8
HETATM    8  C   UNL     1       6.690  26.300  56.470  1.00  0.00     0.337 C 
BRANCH   8   9
HETATM    9  C   UNL     1       6.616  25.537  55.148  1.00  0.00     0.244 C 
HETATM   10  N   UNL     1       7.827  25.298  54.550  1.00  0.00    -0.351 N 
HETATM   11  H   UNL     1       8.694  25.597  54.986  1.00  0.00     0.163 HD
HETATM   12  O   UNL     1       5.539  25.119  54.731  1.00  0.00    -0.272 OA
BRANCH  10  13
HETATM   13  C   UNL     1       7.969  24.528  53.323  1.00  0.00     0.120 C 
HETATM   14  C   UNL     1       6.776  24.715  52.387  1.00  0.00     0.038 C 
BRANCH  13  15
HETATM   15  C   UNL     1       8.160  23.080  53.707  1.00  0.00     0.005 A 
HETATM   16  S   UNL     1       8.877  22.639  55.210  1.00  0.00    -0.104 SA
HETATM   17  C   UNL     1       8.726  20.971  54.872  1.00  0.00     0.050 A 
HETATM   18  C   UNL     1       8.149  20.744  53.644  1.00  0.00     0.008 A 
HETATM   19  C   UNL     1       7.822  21.958  52.973  1.00  0.00     0.017 A 
ENDBRANCH  13  15
ENDBRANCH  10  13
ENDBRANCH   8   9
ENDBRANCH   1   8
BRANCH   5  20
HETATM   20  N   UNL     1       7.615  30.125  59.215  1.00  0.00    -0.338 N 
HETATM   21  C   UNL     1       7.303  31.195  60.017  1.00  0.00     0.321 C 
HETATM   22  N   UNL     1       7.305  30.861  61.348  1.00  0.00    -0.309 N 
HETATM   23  O   UNL     1       7.148  32.322  59.563  1.00  0.00    -0.247 OA
HETATM   24  H   UNL     1       7.720  29.973  61.589  1.00  0.00     0.170 HD
HETATM   25  H   UNL     1       7.428  29.210  59.609  1.00  0.00     0.164 HD
BRANCH  22  26
HETATM   26  C   UNL     1       7.108  31.758  62.423  1.00  0.00     0.036 A 
HETATM   27  C   UNL     1       8.152  32.415  63.080  1.00  0.00     0.029 A 
HETATM   28  C   UNL     1       7.890  33.259  64.164  1.00  0.00     0.002 A 
HETATM   29  C   UNL     1       6.581  33.454  64.597  1.00  0.00     0.000 A 
HETATM   30  C   UNL     1       5.532  32.820  63.935  1.00  0.00     0.002 A 
HETATM   31  C   UNL     1       5.793  31.983  62.846  1.00  0.00     0.029 A 
ENDBRANCH  22  26
ENDBRANCH   5  20
TORSDOF 6
ENDMDL
MODEL 4
REMARK VINA RESULT:      -8.6      2.913     10.177
REMARK  6 active torsions:
REMARK  status: ('A' for Active; 'I' for Inactive)
REMARK    1  A    between atoms: C_2  and  N_3 
REMARK    2  A    between atoms: C_2  and  C_24 
REMARK       I    between atoms: N_3  and  C_4 
REMARK    3  A    between atoms: C_4  and  C_5 
REMARK    4  A    between atoms: C_5  and  N_6 
REMARK    5  A    between atoms: C_10  and  N_11 
REMARK       I    between atoms: N_11  and  C_12 
REMARK       I    between atoms: C_12  and  N_13 
REMARK    6  A    between atoms: N_13  and  C_14 
ROOT
HETATM    1  N   UNL     1       7.290  27.775  57.062  1.00  0.00    -0.063 N 
HETATM    2  H   UNL     1       7.593  27.626  56.088  1.00  0.00     0.280 HD
HETATM    3  C   UNL     1       5.922  28.413  56.986  1.00  0.00     0.237 C 
HETATM    4  C   UNL     1       5.997  29.897  56.695  1.00  0.00     0.053 C 
HETATM    5  C   UNL     1       6.916  30.654  57.645  1.00  0.00     0.089 C 
HETATM    6  C   UNL     1       8.310  30.035  57.635  1.00  0.00     0.053 C 
HETATM    7  C   UNL     1       8.366  28.527  57.805  1.00  0.00     0.237 C 
ENDROOT
BRANCH   1   8
HETATM    8  C   UNL     1       7.178  26.360  57.672  1.00  0.00     0.337 C 
BRANCH   8   9
HETATM    9  C   UNL     1       6.537  25.350  56.722  1.00  0.00     0.244 C 
HETATM   10  N   UNL     1       7.379  24.841  55.766  1.00  0.00    -0.351 N 
HETATM   11  H   UNL     1       8.356  25.114  55.730  1.00  0.00     0.163 HD
HETATM   12  O   UNL     1       5.375  24.991  56.887  1.00  0.00    -0.272 OA
BRANCH  10  13
HETATM   13  C   UNL     1       6.974  23.817  54.813  1.00  0.00     0.120 C 
HETATM   14  C   UNL     1       8.112  22.848  54.494  1.00  0.00     0.038 C 
BRANCH  13  15
HETATM   15  C   UNL     1       6.465  24.515  53.574  1.00  0.00     0.005 A 
HETATM   16  S   UNL     1       7.548  25.148  52.395  1.00  0.00    -0.104 SA
HETATM   17  C   UNL     1       6.266  25.714  51.420  1.00  0.00     0.050 A 
HETATM   18  C   UNL     1       5.037  25.438  51.972  1.00  0.00     0.008 A 
HETATM   19  C   UNL     1       5.151  24.746  53.213  1.00  0.00     0.017 A 
ENDBRANCH  13  15
ENDBRANCH  10  13
ENDBRANCH   8   9
ENDBRANCH   1   8
BRANCH   5  20
HETATM   20  N   UNL     1       6.315  30.901  58.959  1.00  0.00    -0.338 N 
HETATM   21  C   UNL     1       6.721  31.821  59.894  1.00  0.00     0.321 C 
HETATM   22  N   UNL     1       6.187  31.569  61.132  1.00  0.00    -0.309 N 
HETATM   23  O   UNL     1       7.544  32.690  59.633  1.00  0.00    -0.247 OA
HETATM   24  H   UNL     1       5.753  30.666  61.261  1.00  0.00     0.170 HD
HETATM   25  H   UNL     1       5.440  30.430  59.155  1.00  0.00     0.164 HD
BRANCH  22  26
HETATM   26  C   UNL     1       6.481  32.283  62.317  1.00  0.00     0.036 A 
HETATM   27  C   UNL     1       7.754  32.334  62.892  1.00  0.00     0.029 A 
HETATM   28  C   UNL     1       7.967  33.025  64.087  1.00  0.00     0.002 A 
HETATM   29  C   UNL     1       6.908  33.674  64.718  1.00  0.00     0.000 A 
HETATM   30  C   UNL     1       5.640  33.646  64.142  1.00  0.00     0.002 A 
HETATM   31  C   UNL     1       5.429  32.963  62.941  1.00  0.00     0.029 A 
ENDBRANCH  22  26
ENDBRANCH   5  20
TORSDOF 6
ENDMDL
MODEL 5
REMARK VINA RESULT:      -8.1      3.353     10.585
REMARK  6 active torsions:
REMARK  status: ('A' for Active; 'I' for Inactive)
REMARK    1  A    between atoms: C_2  and  N_3 
REMARK    2  A    between atoms: C_2  and  C_24 
REMARK       I    between atoms: N_3  and  C_4 
REMARK    3  A    between atoms: C_4  and  C_5 
REMARK    4  A    between atoms: C_5  and  N_6 
REMARK    5  A    between atoms: C_10  and  N_11 
REMARK       I    between atoms: N_11  and  C_12 
REMARK       I    between atoms: C_12  and  N_13 
REMARK    6  A    between atoms: N_13  and  C_14 
ROOT
HETATM    1  N   UNL     1       4.951  29.499  56.332  1.00  0.00    -0.063 N 
HETATM    2  H   UNL     1       4.742  29.718  55.347  1.00  0.00     0.280 HD
HETATM    3  C   UNL     1       3.670  29.731  57.098  1.00  0.00     0.237 C 
HETATM    4  C   UNL     1       3.432  31.199  57.387  1.00  0.00     0.053 C 
HETATM    5  C   UNL     1       4.616  31.883  58.058  1.00  0.00     0.089 C 
HETATM    6  C   UNL     1       5.876  31.699  57.218  1.00  0.00     0.053 C 
HETATM    7  C   UNL     1       6.169  30.279  56.764  1.00  0.00     0.237 C 
ENDROOT
BRANCH   1   8
HETATM    8  C   UNL     1       5.309  27.997  56.347  1.00  0.00     0.337 C 
BRANCH   8   9
HETATM    9  C   UNL     1       5.780  27.483  54.987  1.00  0.00     0.244 C 
HETATM   10  N   UNL     1       5.645  26.130  54.803  1.00  0.00    -0.351 N 
HETATM   11  H   UNL     1       5.238  25.542  55.523  1.00  0.00     0.163 HD
HETATM   12  O   UNL     1       6.169  28.267  54.126  1.00  0.00    -0.272 OA
BRANCH  10  13
HETATM   13  C   UNL     1       5.973  25.462  53.551  1.00  0.00     0.120 C 
HETATM   14  C   UNL     1       4.736  24.874  52.874  1.00  0.00     0.038 C 
BRANCH  13  15
HETATM   15  C   UNL     1       7.006  24.402  53.851  1.00  0.00     0.005 A 
HETATM   16  S   UNL     1       7.645  24.196  55.437  1.00  0.00    -0.104 SA
HETATM   17  C   UNL     1       8.653  22.911  54.940  1.00  0.00     0.050 A 
HETATM   18  C   UNL     1       8.519  22.639  53.598  1.00  0.00     0.008 A 
HETATM   19  C   UNL     1       7.570  23.498  52.970  1.00  0.00     0.017 A 
ENDBRANCH  13  15
ENDBRANCH  10  13
ENDBRANCH   8   9
ENDBRANCH   1   8
BRANCH   5  20
HETATM   20  N   UNL     1       4.728  31.577  59.487  1.00  0.00    -0.338 N 
HETATM   21  C   UNL     1       5.092  32.441  60.491  1.00  0.00     0.321 C 
HETATM   22  N   UNL     1       5.437  31.779  61.642  1.00  0.00    -0.309 N 
HETATM   23  O   UNL     1       5.181  33.648  60.306  1.00  0.00    -0.247 OA
HETATM   24  H   UNL     1       5.584  30.783  61.563  1.00  0.00     0.170 HD
HETATM   25  H   UNL     1       4.390  30.670  59.787  1.00  0.00     0.164 HD
BRANCH  22  26
HETATM   26  C   UNL     1       5.936  32.380  62.820  1.00  0.00     0.036 A 
HETATM   27  C   UNL     1       5.119  32.913  63.821  1.00  0.00     0.029 A 
HETATM   28  C   UNL     1       5.679  33.530  64.943  1.00  0.00     0.002 A 
HETATM   29  C   UNL     1       7.063  33.616  65.075  1.00  0.00     0.000 A 
HETATM   30  C   UNL     1       7.886  33.069  64.093  1.00  0.00     0.002 A 
HETATM   31  C   UNL     1       7.326  32.444  62.976  1.00  0.00     0.029 A 
ENDBRANCH  22  26
ENDBRANCH   5  20
TORSDOF 6
ENDMDL
MODEL 6
REMARK VINA RESULT:      -8.1      3.224      5.163
REMARK  6 active torsions:
REMARK  status: ('A' for Active; 'I' for Inactive)
REMARK    1  A    between atoms: C_2  and  N_3 
REMARK    2  A    between atoms: C_2  and  C_24 
REMARK       I    between atoms: N_3  and  C_4 
REMARK    3  A    between atoms: C_4  and  C_5 
REMARK    4  A    between atoms: C_5  and  N_6 
REMARK    5  A    between atoms: C_10  and  N_11 
REMARK       I    between atoms: N_11  and  C_12 
REMARK       I    between atoms: C_12  and  N_13 
REMARK    6  A    between atoms: N_13  and  C_14 
ROOT
HETATM    1  N   UNL     1       7.615  31.786  61.212  1.00  0.00    -0.063 N 
HETATM    2  H   UNL     1       8.031  32.725  61.300  1.00  0.00     0.280 HD
HETATM    3  C   UNL     1       8.762  30.840  60.940  1.00  0.00     0.237 C 
HETATM    4  C   UNL     1       9.200  30.872  59.491  1.00  0.00     0.053 C 
HETATM    5  C   UNL     1       8.056  30.661  58.508  1.00  0.00     0.089 C 
HETATM    6  C   UNL     1       6.952  31.684  58.757  1.00  0.00     0.053 C 
HETATM    7  C   UNL     1       6.499  31.832  60.199  1.00  0.00     0.237 C 
ENDROOT
BRANCH   1   8
HETATM    8  C   UNL     1       7.001  31.485  62.597  1.00  0.00     0.337 C 
BRANCH   8   9
HETATM    9  C   UNL     1       7.033  32.688  63.538  1.00  0.00     0.244 C 
HETATM   10  N   UNL     1       5.803  33.201  63.862  1.00  0.00    -0.351 N 
HETATM   11  H   UNL     1       4.950  32.779  63.508  1.00  0.00     0.163 HD
HETATM   12  O   UNL     1       8.097  33.082  64.007  1.00  0.00    -0.272 OA
BRANCH  10  13
HETATM   13  C   UNL     1       5.622  34.302  64.797  1.00  0.00     0.120 C 
HETATM   14  C   UNL     1       4.776  33.897  66.003  1.00  0.00     0.038 C 
BRANCH  13  15
HETATM   15  C   UNL     1       5.007  35.454  64.041  1.00  0.00     0.005 A 
HETATM   16  S   UNL     1       3.432  35.335  63.353  1.00  0.00    -0.104 SA
HETATM   17  C   UNL     1       3.504  36.927  62.739  1.00  0.00     0.050 A 
HETATM   18  C   UNL     1       4.697  37.543  63.040  1.00  0.00     0.008 A 
HETATM   19  C   UNL     1       5.562  36.696  63.791  1.00  0.00     0.017 A 
ENDBRANCH  13  15
ENDBRANCH  10  13
ENDBRANCH   8   9
ENDBRANCH   1   8
BRANCH   5  20
HETATM   20  N   UNL     1       7.641  29.260  58.394  1.00  0.00    -0.338 N 
HETATM   21  C   UNL     1       8.236  28.281  57.638  1.00  0.00     0.321 C 
HETATM   22  N   UNL     1       7.421  27.189  57.472  1.00  0.00    -0.309 N 
HETATM   23  O   UNL     1       9.328  28.445  57.109  1.00  0.00    -0.247 OA
HETATM   24  H   UNL     1       6.451  27.308  57.727  1.00  0.00     0.170 HD
HETATM   25  H   UNL     1       6.913  28.947  59.026  1.00  0.00     0.164 HD
BRANCH  22  26
HETATM   26  C   UNL     1       7.712  26.057  56.676  1.00  0.00     0.036 A 
HETATM   27  C   UNL     1       7.306  25.925  55.346  1.00  0.00     0.029 A 
HETATM   28  C   UNL     1       7.592  24.761  54.628  1.00  0.00     0.002 A 
HETATM   29  C   UNL     1       8.289  23.719  55.234  1.00  0.00     0.000 A 
HETATM   30  C   UNL     1       8.717  23.850  56.554  1.00  0.00     0.002 A 
HETATM   31  C   UNL     1       8.439  25.018  57.269  1.00  0.00     0.029 A 
ENDBRANCH  22  26
ENDBRANCH   5  20
TORSDOF 6
ENDMDL
MODEL 7
REMARK VINA RESULT:      -7.9      3.534      5.535
REMARK  6 active torsions:
REMARK  status: ('A' for Active; 'I' for Inactive)
REMARK    1  A    between atoms: C_2  and  N_3 
REMARK    2  A    between atoms: C_2  and  C_24 
REMARK       I    between atoms: N_3  and  C_4 
REMARK    3  A    between atoms: C_4  and  C_5 
REMARK    4  A    between atoms: C_5  and  N_6 
REMARK    5  A    between atoms: C_10  and  N_11 
REMARK       I    between atoms: N_11  and  C_12 
REMARK       I    between atoms: C_12  and  N_13 
REMARK    6  A    between atoms: N_13  and  C_14 
ROOT
HETATM    1  N   UNL     1       7.466  31.826  61.276  1.00  0.00    -0.063 N 
HETATM    2  H   UNL     1       7.869  32.770  61.356  1.00  0.00     0.280 HD
HETATM    3  C   UNL     1       8.632  30.881  61.101  1.00  0.00     0.237 C 
HETATM    4  C   UNL     1       9.153  30.869  59.679  1.00  0.00     0.053 C 
HETATM    5  C   UNL     1       8.068  30.617  58.640  1.00  0.00     0.089 C 
HETATM    6  C   UNL     1       6.945  31.639  58.791  1.00  0.00     0.053 C 
HETATM    7  C   UNL     1       6.409  31.829  60.199  1.00  0.00     0.237 C 
ENDROOT
BRANCH   1   8
HETATM    8  C   UNL     1       6.774  31.564  62.632  1.00  0.00     0.337 C 
BRANCH   8   9
HETATM    9  C   UNL     1       5.658  32.563  62.935  1.00  0.00     0.244 C 
HETATM   10  N   UNL     1       6.077  33.855  63.130  1.00  0.00    -0.351 N 
HETATM   11  H   UNL     1       7.058  34.105  63.049  1.00  0.00     0.163 HD
HETATM   12  O   UNL     1       4.483  32.208  62.918  1.00  0.00    -0.272 OA
BRANCH  10  13
HETATM   13  C   UNL     1       5.159  34.961  63.361  1.00  0.00     0.120 C 
HETATM   14  C   UNL     1       5.628  36.247  62.680  1.00  0.00     0.038 C 
BRANCH  13  15
HETATM   15  C   UNL     1       5.015  35.137  64.854  1.00  0.00     0.005 A 
HETATM   16  S   UNL     1       5.922  34.179  65.960  1.00  0.00    -0.104 SA
HETATM   17  C   UNL     1       5.220  34.950  67.312  1.00  0.00     0.050 A 
HETATM   18  C   UNL     1       4.309  35.913  66.942  1.00  0.00     0.008 A 
HETATM   19  C   UNL     1       4.192  36.021  65.526  1.00  0.00     0.017 A 
ENDBRANCH  13  15
ENDBRANCH  10  13
ENDBRANCH   8   9
ENDBRANCH   1   8
BRANCH   5  20
HETATM   20  N   UNL     1       7.669  29.210  58.549  1.00  0.00    -0.338 N 
HETATM   21  C   UNL     1       8.238  28.239  57.762  1.00  0.00     0.321 C 
HETATM   22  N   UNL     1       7.432  27.135  57.640  1.00  0.00    -0.309 N 
HETATM   23  O   UNL     1       9.298  28.419  57.175  1.00  0.00    -0.247 OA
HETATM   24  H   UNL     1       6.476  27.239  57.946  1.00  0.00     0.170 HD
HETATM   25  H   UNL     1       6.981  28.887  59.218  1.00  0.00     0.164 HD
BRANCH  22  26
HETATM   26  C   UNL     1       7.697  26.007  56.830  1.00  0.00     0.036 A 
HETATM   27  C   UNL     1       8.509  24.942  57.230  1.00  0.00     0.029 A 
HETATM   28  C   UNL     1       8.762  23.876  56.364  1.00  0.00     0.002 A 
HETATM   29  C   UNL     1       8.202  23.863  55.089  1.00  0.00     0.000 A 
HETATM   30  C   UNL     1       7.374  24.910  54.687  1.00  0.00     0.002 A 
HETATM   31  C   UNL     1       7.114  25.972  55.558  1.00  0.00     0.029 A 
ENDBRANCH  22  26
ENDBRANCH   5  20
TORSDOF 6
ENDMDL
MODEL 8
REMARK VINA RESULT:      -7.9      2.039      2.803
REMARK  6 active torsions:
REMARK  status: ('A' for Active; 'I' for Inactive)
REMARK    1  A    between atoms: C_2  and  N_3 
REMARK    2  A    between atoms: C_2  and  C_24 
REMARK       I    between atoms: N_3  and  C_4 
REMARK    3  A    between atoms: C_4  and  C_5 
REMARK    4  A    between atoms: C_5  and  N_6 
REMARK    5  A    between atoms: C_10  and  N_11 
REMARK       I    between atoms: N_11  and  C_12 
REMARK       I    between atoms: C_12  and  N_13 
REMARK    6  A    between atoms: N_13  and  C_14 
ROOT
HETATM    1  N   UNL     1       6.254  29.487  57.071  1.00  0.00    -0.063 N 
HETATM    2  H   UNL     1       5.551  30.238  57.124  1.00  0.00     0.280 HD
HETATM    3  C   UNL     1       6.855  29.566  55.687  1.00  0.00     0.237 C 
HETATM    4  C   UNL     1       5.969  28.924  54.640  1.00  0.00     0.053 C 
HETATM    5  C   UNL     1       5.553  27.501  54.989  1.00  0.00     0.089 C 
HETATM    6  C   UNL     1       4.877  27.470  56.356  1.00  0.00     0.053 C 
HETATM    7  C   UNL     1       5.614  28.182  57.476  1.00  0.00     0.237 C 
ENDROOT
BRANCH   1   8
HETATM    8  C   UNL     1       7.318  29.852  58.129  1.00  0.00     0.337 C 
BRANCH   8   9
HETATM    9  C   UNL     1       7.111  31.243  58.728  1.00  0.00     0.244 C 
HETATM   10  N   UNL     1       5.821  31.522  59.105  1.00  0.00    -0.351 N 
HETATM   11  H   UNL     1       5.085  30.830  59.005  1.00  0.00     0.163 HD
HETATM   12  O   UNL     1       8.067  31.991  58.912  1.00  0.00    -0.272 OA
BRANCH  10  13
HETATM   13  C   UNL     1       5.436  32.765  59.757  1.00  0.00     0.120 C 
HETATM   14  C   UNL     1       4.751  32.520  61.101  1.00  0.00     0.038 C 
BRANCH  13  15
HETATM   15  C   UNL     1       4.547  33.530  58.805  1.00  0.00     0.005 A 
HETATM   16  S   UNL     1       3.202  34.442  59.374  1.00  0.00    -0.104 SA
HETATM   17  C   UNL     1       2.783  34.940  57.795  1.00  0.00     0.050 A 
HETATM   18  C   UNL     1       3.637  34.424  56.847  1.00  0.00     0.008 A 
HETATM   19  C   UNL     1       4.654  33.612  57.429  1.00  0.00     0.017 A 
ENDBRANCH  13  15
ENDBRANCH  10  13
ENDBRANCH   8   9
ENDBRANCH   1   8
BRANCH   5  20
HETATM   20  N   UNL     1       6.612  26.515  54.756  1.00  0.00    -0.338 N 
HETATM   21  C   UNL     1       6.451  25.193  54.419  1.00  0.00     0.321 C 
HETATM   22  N   UNL     1       7.598  24.467  54.614  1.00  0.00    -0.309 N 
HETATM   23  O   UNL     1       5.365  24.738  54.083  1.00  0.00    -0.247 OA
HETATM   24  H   UNL     1       8.327  24.911  55.155  1.00  0.00     0.170 HD
HETATM   25  H   UNL     1       7.562  26.865  54.723  1.00  0.00     0.164 HD
BRANCH  22  26
HETATM   26  C   UNL     1       7.728  23.070  54.442  1.00  0.00     0.036 A 
HETATM   27  C   UNL     1       7.619  22.150  55.488  1.00  0.00     0.029 A 
HETATM   28  C   UNL     1       7.799  20.784  55.255  1.00  0.00     0.002 A 
HETATM   29  C   UNL     1       8.087  20.325  53.972  1.00  0.00     0.000 A 
HETATM   30  C   UNL     1       8.177  21.232  52.918  1.00  0.00     0.002 A 
HETATM   31  C   UNL     1       7.988  22.598  53.150  1.00  0.00     0.029 A 
ENDBRANCH  22  26
ENDBRANCH   5  20
TORSDOF 6
ENDMDL
MODEL 9
REMARK VINA RESULT:      -7.9      4.361      5.058
REMARK  6 active torsions:
REMARK  status: ('A' for Active; 'I' for Inactive)
REMARK    1  A    between atoms: C_2  and  N_3 
REMARK    2  A    between atoms: C_2  and  C_24 
REMARK       I    between atoms: N_3  and  C_4 
REMARK    3  A    between atoms: C_4  and  C_5 
REMARK    4  A    between atoms: C_5  and  N_6 
REMARK    5  A    between atoms: C_10  and  N_11 
REMARK       I    between atoms: N_11  and  C_12 
REMARK       I    between atoms: C_12  and  N_13 
REMARK    6  A    between atoms: N_13  and  C_14 
ROOT
HETATM    1  N   UNL     1       6.195  29.430  57.716  1.00  0.00    -0.063 N 
HETATM    2  H   UNL     1       5.745  29.699  58.603  1.00  0.00     0.280 HD
HETATM    3  C   UNL     1       6.402  30.711  56.941  1.00  0.00     0.237 C 
HETATM    4  C   UNL     1       5.136  31.175  56.253  1.00  0.00     0.053 C 
HETATM    5  C   UNL     1       4.485  30.099  55.393  1.00  0.00     0.089 C 
HETATM    6  C   UNL     1       4.216  28.850  56.225  1.00  0.00     0.053 C 
HETATM    7  C   UNL     1       5.381  28.344  57.057  1.00  0.00     0.237 C 
ENDROOT
BRANCH   1   8
HETATM    8  C   UNL     1       7.561  28.833  58.121  1.00  0.00     0.337 C 
BRANCH   8   9
HETATM    9  C   UNL     1       8.460  29.836  58.843  1.00  0.00     0.244 C 
HETATM   10  N   UNL     1       8.017  30.218  60.084  1.00  0.00    -0.351 N 
HETATM   11  H   UNL     1       7.166  29.830  60.479  1.00  0.00     0.163 HD
HETATM   12  O   UNL     1       9.527  30.185  58.346  1.00  0.00    -0.272 OA
BRANCH  10  13
HETATM   13  C   UNL     1       8.768  31.111  60.954  1.00  0.00     0.120 C 
HETATM   14  C   UNL     1       9.652  30.345  61.938  1.00  0.00     0.038 C 
BRANCH  13  15
HETATM   15  C   UNL     1       7.778  32.002  61.666  1.00  0.00     0.005 A 
HETATM   16  S   UNL     1       6.372  32.596  60.868  1.00  0.00    -0.104 SA
HETATM   17  C   UNL     1       5.854  33.440  62.259  1.00  0.00     0.050 A 
HETATM   18  C   UNL     1       6.726  33.285  63.312  1.00  0.00     0.008 A 
HETATM   19  C   UNL     1       7.835  32.456  62.971  1.00  0.00     0.017 A 
ENDBRANCH  13  15
ENDBRANCH  10  13
ENDBRANCH   8   9
ENDBRANCH   1   8
BRANCH   5  20
HETATM   20  N   UNL     1       5.160  29.899  54.107  1.00  0.00    -0.338 N 
HETATM   21  C   UNL     1       4.596  29.443  52.940  1.00  0.00     0.321 C 
HETATM   22  N   UNL     1       5.543  29.040  52.032  1.00  0.00    -0.309 N 
HETATM   23  O   UNL     1       3.384  29.332  52.806  1.00  0.00    -0.247 OA
HETATM   24  H   UNL     1       6.484  28.928  52.382  1.00  0.00     0.170 HD
HETATM   25  H   UNL     1       6.110  30.242  54.032  1.00  0.00     0.164 HD
BRANCH  22  26
HETATM   26  C   UNL     1       5.281  28.445  50.777  1.00  0.00     0.036 A 
HETATM   27  C   UNL     1       4.963  27.093  50.616  1.00  0.00     0.029 A 
HETATM   28  C   UNL     1       4.755  26.559  49.342  1.00  0.00     0.002 A 
HETATM   29  C   UNL     1       4.860  27.374  48.217  1.00  0.00     0.000 A 
HETATM   30  C   UNL     1       5.155  28.727  48.368  1.00  0.00     0.002 A 
HETATM   31  C   UNL     1       5.354  29.262  49.644  1.00  0.00     0.029 A 
ENDBRANCH  22  26
ENDBRANCH   5  20
TORSDOF 6
ENDMDL
MODEL 10
REMARK VINA RESULT:      -7.3      6.268      8.318
REMARK  6 active torsions:
REMARK  status: ('A' for Active; 'I' for Inactive)
REMARK    1  A    between atoms: C_2  and  N_3 
REMARK    2  A    between atoms: C_2  and  C_24 
REMARK       I    between atoms: N_3  and  C_4 
REMARK    3  A    between atoms: C_4  and  C_5 
REMARK    4  A    between atoms: C_5  and  N_6 
REMARK    5  A    between atoms: C_10  and  N_11 
REMARK       I    between atoms: N_11  and  C_12 
REMARK       I    between atoms: C_12  and  N_13 
REMARK    6  A    between atoms: N_13  and  C_14 
ROOT
HETATM    1  N   UNL     1       5.371  27.737  53.263  1.00  0.00    -0.063 N 
HETATM    2  H   UNL     1       6.337  27.667  53.615  1.00  0.00     0.280 HD
HETATM    3  C   UNL     1       4.949  26.330  52.907  1.00  0.00     0.237 C 
HETATM    4  C   UNL     1       5.494  25.891  51.564  1.00  0.00     0.053 C 
HETATM    5  C   UNL     1       5.188  26.870  50.437  1.00  0.00     0.089 C 
HETATM    6  C   UNL     1       5.700  28.262  50.795  1.00  0.00     0.053 C 
HETATM    7  C   UNL     1       5.315  28.776  52.171  1.00  0.00     0.237 C 
ENDROOT
BRANCH   1   8
HETATM    8  C   UNL     1       4.540  28.248  54.461  1.00  0.00     0.337 C 
BRANCH   8   9
HETATM    9  C   UNL     1       5.312  28.217  55.779  1.00  0.00     0.244 C 
HETATM   10  N   UNL     1       5.897  29.406  56.134  1.00  0.00    -0.351 N 
HETATM   11  H   UNL     1       5.788  30.235  55.558  1.00  0.00     0.163 HD
HETATM   12  O   UNL     1       5.317  27.205  56.474  1.00  0.00    -0.272 OA
BRANCH  10  13
HETATM   13  C   UNL     1       6.616  29.595  57.386  1.00  0.00     0.120 C 
HETATM   14  C   UNL     1       6.123  30.823  58.150  1.00  0.00     0.038 C 
BRANCH  13  15
HETATM   15  C   UNL     1       8.088  29.688  57.063  1.00  0.00     0.005 A 
HETATM   16  S   UNL     1       9.220  30.297  58.209  1.00  0.00    -0.104 SA
HETATM   17  C   UNL     1      10.530  30.077  57.136  1.00  0.00     0.050 A 
HETATM   18  C   UNL     1      10.127  29.558  55.928  1.00  0.00     0.008 A 
HETATM   19  C   UNL     1       8.720  29.333  55.885  1.00  0.00     0.017 A 
ENDBRANCH  13  15
ENDBRANCH  10  13
ENDBRANCH   8   9
ENDBRANCH   1   8
BRANCH   5  20
HETATM   20  N   UNL     1       3.808  26.781  49.952  1.00  0.00    -0.338 N 
HETATM   21  C   UNL     1       3.312  27.284  48.774  1.00  0.00     0.321 C 
HETATM   22  N   UNL     1       1.941  27.345  48.774  1.00  0.00    -0.309 N 
HETATM   23  O   UNL     1       4.047  27.710  47.892  1.00  0.00    -0.247 OA
HETATM   24  H   UNL     1       1.485  27.223  49.667  1.00  0.00     0.170 HD
HETATM   25  H   UNL     1       3.177  26.188  50.478  1.00  0.00     0.164 HD
BRANCH  22  26
HETATM   26  C   UNL     1       1.141  27.893  47.746  1.00  0.00     0.036 A 
HETATM   27  C   UNL     1       0.562  27.129  46.729  1.00  0.00     0.029 A 
HETATM   28  C   UNL     1      -0.186  27.741  45.719  1.00  0.00     0.002 A 
HETATM   29  C   UNL     1      -0.365  29.122  45.721  1.00  0.00     0.000 A 
HETATM   30  C   UNL     1       0.190  29.889  46.742  1.00  0.00     0.002 A 
HETATM   31  C   UNL     1       0.931  29.276  47.757  1.00  0.00     0.029 A 
ENDBRANCH  22  26
ENDBRANCH   5  20
TORSDOF 6
ENDMDL
