MODEL 1
REMARK VINA RESULT:      -7.9      0.000      0.000
REMARK  7 active torsions:
REMARK  status: ('A' for Active; 'I' for Inactive)
REMARK    1  A    between atoms: C_2  and  C_3 
REMARK    2  A    between atoms: C_3  and  C_4 
REMARK    3  A    between atoms: C_7  and  C_8 
REMARK    4  A    between atoms: C_14  and  C_15 
REMARK    5  A    between atoms: C_16  and  O_17 
REMARK    6  A    between atoms: O_17  and  C_18 
REMARK       I    between atoms: C_18  and  N_19 
REMARK    7  A    between atoms: C_33  and  N_34 
ROOT
HETATM    1  C   UNL     1       3.878  26.580  48.995  1.00  0.00     0.099 A 
HETATM    2  N   UNL     1       3.948  25.788  47.905  1.00  0.00    -0.172 NA
HETATM    3  N   UNL     1       3.089  26.331  47.024  1.00  0.00    -0.256 N 
HETATM    4  H   UNL     1       2.959  25.880  46.126  1.00  0.00     0.191 HD
HETATM    5  C   UNL     1       2.489  27.449  47.499  1.00  0.00     0.175 A 
HETATM    6  C   UNL     1       2.994  27.668  48.754  1.00  0.00     0.040 A 
HETATM    7  C   UNL     1       2.538  28.855  49.532  1.00  0.00     0.109 A 
HETATM    8  C   UNL     1       1.397  29.568  48.800  1.00  0.00     0.081 A 
HETATM    9  C   UNL     1       0.723  30.590  49.529  1.00  0.00     0.100 C 
HETATM   10  N   UNL     1       0.170  31.407  50.143  1.00  0.00    -0.191 NA
HETATM   11  C   UNL     1       0.986  29.219  47.550  1.00  0.00     0.140 A 
HETATM   12  O   UNL     1       1.584  28.162  46.840  1.00  0.00    -0.279 OA
ENDROOT
BRANCH   7  13
HETATM   13  C   UNL     1       3.749  29.759  49.729  1.00  0.00    -0.010 A 
HETATM   14  C   UNL     1       4.026  30.325  50.991  1.00  0.00     0.088 A 
HETATM   15  C   UNL     1       5.081  31.223  51.167  1.00  0.00     0.038 A 
HETATM   16  C   UNL     1       5.898  31.555  50.088  1.00  0.00     0.003 A 
HETATM   17  C   UNL     1       5.648  31.011  48.832  1.00  0.00     0.001 A 
HETATM   18  C   UNL     1       4.579  30.133  48.650  1.00  0.00     0.011 A 
BRANCH  14  19
HETATM   19  O   UNL     1       3.122  30.012  52.041  1.00  0.00    -0.261 OA
BRANCH  19  20
HETATM   20  C   UNL     1       3.456  29.426  53.268  1.00  0.00     0.368 C 
HETATM   21  N   UNL     1       3.245  30.288  54.335  1.00  0.00    -0.324 N 
HETATM   22  C   UNL     1       2.936  31.707  54.157  1.00  0.00     0.154 C 
HETATM   23  C   UNL     1       3.835  29.944  55.627  1.00  0.00     0.154 C 
HETATM   24  C   UNL     1       2.208  32.273  55.379  1.00  0.00     0.187 C 
HETATM   25  O   UNL     1       2.933  32.005  56.588  1.00  0.00    -0.388 OA
HETATM   26  C   UNL     1       3.075  30.591  56.786  1.00  0.00     0.187 C 
HETATM   27  O   UNL     1       3.876  28.283  53.401  1.00  0.00    -0.238 OA
ENDBRANCH  19  20
ENDBRANCH  14  19
ENDBRANCH   7  13
BRANCH  11  28
HETATM   28  N   UNL     1      -0.035  29.820  46.848  1.00  0.00    -0.282 NA
HETATM   29  H   UNL     1      -0.958  29.748  47.269  1.00  0.00     0.126 HD
HETATM   30  H   UNL     1       0.200  30.769  46.569  1.00  0.00     0.126 HD
ENDBRANCH  11  28
BRANCH   1  31
HETATM   31  C   UNL     1       4.653  26.269  50.196  1.00  0.00    -0.005 A 
HETATM   32  C   UNL     1       4.334  25.140  50.961  1.00  0.00     0.014 A 
HETATM   33  C   UNL     1       5.053  24.837  52.120  1.00  0.00     0.008 A 
HETATM   34  C   UNL     1       6.106  25.659  52.538  1.00  0.00    -0.058 A 
HETATM   35  C   UNL     1       6.424  26.791  51.777  1.00  0.00     0.008 A 
HETATM   36  C   UNL     1       5.699  27.096  50.620  1.00  0.00     0.014 A 
BRANCH  34  37
HETATM   37  C   UNL     1       6.882  25.339  53.794  1.00  0.00     0.042 C 
BRANCH  37  38
HETATM   38  C   UNL     1       7.058  23.830  54.046  1.00  0.00    -0.019 C 
HETATM   39  C   UNL     1       7.352  23.526  55.518  1.00  0.00     0.010 C 
HETATM   40  C   UNL     1       8.191  23.289  53.171  1.00  0.00     0.010 C 
ENDBRANCH  37  38
ENDBRANCH  34  37
ENDBRANCH   1  31
TORSDOF 7
ENDMDL
MODEL 2
REMARK VINA RESULT:      -7.7     18.894     21.721
REMARK  7 active torsions:
REMARK  status: ('A' for Active; 'I' for Inactive)
REMARK    1  A    between atoms: C_2  and  C_3 
REMARK    2  A    between atoms: C_3  and  C_4 
REMARK    3  A    between atoms: C_7  and  C_8 
REMARK    4  A    between atoms: C_14  and  C_15 
REMARK    5  A    between atoms: C_16  and  O_17 
REMARK    6  A    between atoms: O_17  and  C_18 
REMARK       I    between atoms: C_18  and  N_19 
REMARK    7  A    between atoms: C_33  and  N_34 
ROOT
HETATM    1  C   UNL     1      16.409   9.328  51.190  1.00  0.00     0.099 A 
HETATM    2  N   UNL     1      17.541   9.269  50.459  1.00  0.00    -0.172 NA
HETATM    3  N   UNL     1      17.146   8.868  49.237  1.00  0.00    -0.256 N 
HETATM    4  H   UNL     1      17.846   8.730  48.518  1.00  0.00     0.191 HD
HETATM    5  C   UNL     1      15.806   8.688  49.153  1.00  0.00     0.175 A 
HETATM    6  C   UNL     1      15.284   9.007  50.380  1.00  0.00     0.040 A 
HETATM    7  C   UNL     1      13.811   8.930  50.594  1.00  0.00     0.109 A 
HETATM    8  C   UNL     1      13.124   8.316  49.371  1.00  0.00     0.081 A 
HETATM    9  C   UNL     1      11.746   7.986  49.522  1.00  0.00     0.100 C 
HETATM   10  N   UNL     1      10.629   7.704  49.667  1.00  0.00    -0.191 NA
HETATM   11  C   UNL     1      13.785   8.029  48.216  1.00  0.00     0.140 A 
HETATM   12  O   UNL     1      15.163   8.272  48.069  1.00  0.00    -0.279 OA
ENDROOT
BRANCH   7  13
HETATM   13  C   UNL     1      13.321  10.345  50.880  1.00  0.00    -0.010 A 
HETATM   14  C   UNL     1      12.516  10.613  52.005  1.00  0.00     0.088 A 
HETATM   15  C   UNL     1      11.988  11.886  52.233  1.00  0.00     0.038 A 
HETATM   16  C   UNL     1      12.277  12.926  51.350  1.00  0.00     0.003 A 
HETATM   17  C   UNL     1      13.069  12.689  50.232  1.00  0.00     0.001 A 
HETATM   18  C   UNL     1      13.576  11.411  49.991  1.00  0.00     0.011 A 
BRANCH  14  19
HETATM   19  O   UNL     1      12.191   9.506  52.835  1.00  0.00    -0.261 OA
BRANCH  19  20
HETATM   20  C   UNL     1      12.158   9.507  54.234  1.00  0.00     0.368 C 
HETATM   21  N   UNL     1      10.874   9.327  54.728  1.00  0.00    -0.324 N 
HETATM   22  C   UNL     1       9.685   9.370  53.876  1.00  0.00     0.154 C 
HETATM   23  C   UNL     1      10.630   9.618  56.139  1.00  0.00     0.154 C 
HETATM   24  C   UNL     1       8.521   8.602  54.509  1.00  0.00     0.187 C 
HETATM   25  O   UNL     1       8.267   9.052  55.847  1.00  0.00    -0.388 OA
HETATM   26  C   UNL     1       9.422   8.847  56.675  1.00  0.00     0.187 C 
HETATM   27  O   UNL     1      13.141   9.639  54.953  1.00  0.00    -0.238 OA
ENDBRANCH  19  20
ENDBRANCH  14  19
ENDBRANCH   7  13
BRANCH  11  28
HETATM   28  N   UNL     1      13.221   7.473  47.090  1.00  0.00    -0.282 NA
HETATM   29  H   UNL     1      12.207   7.398  47.099  1.00  0.00     0.126 HD
HETATM   30  H   UNL     1      13.579   7.893  46.236  1.00  0.00     0.126 HD
ENDBRANCH  11  28
BRANCH   1  31
HETATM   31  C   UNL     1      16.452   9.690  52.607  1.00  0.00    -0.005 A 
HETATM   32  C   UNL     1      16.712   8.708  53.572  1.00  0.00     0.014 A 
HETATM   33  C   UNL     1      16.740   9.032  54.931  1.00  0.00     0.008 A 
HETATM   34  C   UNL     1      16.508  10.346  55.352  1.00  0.00    -0.058 A 
HETATM   35  C   UNL     1      16.245  11.329  54.389  1.00  0.00     0.008 A 
HETATM   36  C   UNL     1      16.210  11.001  53.030  1.00  0.00     0.014 A 
BRANCH  34  37
HETATM   37  C   UNL     1      16.532  10.700  56.820  1.00  0.00     0.042 C 
BRANCH  37  38
HETATM   38  C   UNL     1      17.228   9.646  57.701  1.00  0.00    -0.019 C 
HETATM   39  C   UNL     1      16.222   8.818  58.506  1.00  0.00     0.010 C 
HETATM   40  C   UNL     1      18.209  10.334  58.652  1.00  0.00     0.010 C 
ENDBRANCH  37  38
ENDBRANCH  34  37
ENDBRANCH   1  31
TORSDOF 7
ENDMDL
MODEL 3
REMARK VINA RESULT:      -7.5      7.894     12.112
REMARK  7 active torsions:
REMARK  status: ('A' for Active; 'I' for Inactive)
REMARK    1  A    between atoms: C_2  and  C_3 
REMARK    2  A    between atoms: C_3  and  C_4 
REMARK    3  A    between atoms: C_7  and  C_8 
REMARK    4  A    between atoms: C_14  and  C_15 
REMARK    5  A    between atoms: C_16  and  O_17 
REMARK    6  A    between atoms: O_17  and  C_18 
REMARK       I    between atoms: C_18  and  N_19 
REMARK    7  A    between atoms: C_33  and  N_34 
ROOT
HETATM    1  C   UNL     1       7.429  32.931  62.841  1.00  0.00     0.099 A 
HETATM    2  N   UNL     1       7.927  32.766  64.084  1.00  0.00    -0.172 NA
HETATM    3  N   UNL     1       7.149  33.528  64.875  1.00  0.00    -0.256 N 
HETATM    4  H   UNL     1       7.357  33.576  65.865  1.00  0.00     0.191 HD
HETATM    5  C   UNL     1       6.163  34.156  64.190  1.00  0.00     0.175 A 
HETATM    6  C   UNL     1       6.283  33.772  62.879  1.00  0.00     0.040 A 
HETATM    7  C   UNL     1       5.311  34.286  61.873  1.00  0.00     0.109 A 
HETATM    8  C   UNL     1       4.396  35.340  62.501  1.00  0.00     0.081 A 
HETATM    9  C   UNL     1       3.563  36.068  61.602  1.00  0.00     0.100 C 
HETATM   10  N   UNL     1       2.905  36.666  60.856  1.00  0.00    -0.191 NA
HETATM   11  C   UNL     1       4.406  35.633  63.831  1.00  0.00     0.140 A 
HETATM   12  O   UNL     1       5.275  34.983  64.727  1.00  0.00    -0.279 OA
ENDROOT
BRANCH   7  13
HETATM   13  C   UNL     1       4.531  33.087  61.345  1.00  0.00    -0.010 A 
HETATM   14  C   UNL     1       4.217  32.980  59.975  1.00  0.00     0.088 A 
HETATM   15  C   UNL     1       3.429  31.934  59.490  1.00  0.00     0.038 A 
HETATM   16  C   UNL     1       2.960  30.955  60.365  1.00  0.00     0.003 A 
HETATM   17  C   UNL     1       3.255  31.036  61.722  1.00  0.00     0.001 A 
HETATM   18  C   UNL     1       4.021  32.095  62.210  1.00  0.00     0.011 A 
BRANCH  14  19
HETATM   19  O   UNL     1       4.657  34.039  59.136  1.00  0.00    -0.261 OA
BRANCH  19  20
HETATM   20  C   UNL     1       4.829  33.974  57.749  1.00  0.00     0.368 C 
HETATM   21  N   UNL     1       3.934  34.790  57.071  1.00  0.00    -0.324 N 
HETATM   22  C   UNL     1       2.804  35.446  57.731  1.00  0.00     0.154 C 
HETATM   23  C   UNL     1       3.775  34.594  55.631  1.00  0.00     0.154 C 
HETATM   24  C   UNL     1       2.347  36.681  56.950  1.00  0.00     0.187 C 
HETATM   25  O   UNL     1       2.084  36.361  55.577  1.00  0.00    -0.388 OA
HETATM   26  C   UNL     1       3.270  35.861  54.940  1.00  0.00     0.187 C 
HETATM   27  O   UNL     1       5.674  33.290  57.183  1.00  0.00    -0.238 OA
ENDBRANCH  19  20
ENDBRANCH  14  19
ENDBRANCH   7  13
BRANCH  11  28
HETATM   28  N   UNL     1       3.612  36.572  64.448  1.00  0.00    -0.282 NA
HETATM   29  H   UNL     1       3.418  36.403  65.433  1.00  0.00     0.126 HD
HETATM   30  H   UNL     1       3.929  37.521  64.265  1.00  0.00     0.126 HD
ENDBRANCH  11  28
BRANCH   1  31
HETATM   31  C   UNL     1       8.059  32.280  61.692  1.00  0.00    -0.005 A 
HETATM   32  C   UNL     1       8.855  31.143  61.882  1.00  0.00     0.014 A 
HETATM   33  C   UNL     1       9.478  30.519  60.798  1.00  0.00     0.008 A 
HETATM   34  C   UNL     1       9.318  31.021  59.502  1.00  0.00    -0.058 A 
HETATM   35  C   UNL     1       8.525  32.160  59.310  1.00  0.00     0.008 A 
HETATM   36  C   UNL     1       7.908  32.787  60.397  1.00  0.00     0.014 A 
BRANCH  34  37
HETATM   37  C   UNL     1       9.994  30.353  58.328  1.00  0.00     0.042 C 
BRANCH  37  38
HETATM   38  C   UNL     1       9.014  29.855  57.249  1.00  0.00    -0.019 C 
HETATM   39  C   UNL     1       8.204  28.646  57.726  1.00  0.00     0.010 C 
HETATM   40  C   UNL     1       9.785  29.490  55.979  1.00  0.00     0.010 C 
ENDBRANCH  37  38
ENDBRANCH  34  37
ENDBRANCH   1  31
TORSDOF 7
ENDMDL
MODEL 4
REMARK VINA RESULT:      -7.3      2.133      2.978
REMARK  7 active torsions:
REMARK  status: ('A' for Active; 'I' for Inactive)
REMARK    1  A    between atoms: C_2  and  C_3 
REMARK    2  A    between atoms: C_3  and  C_4 
REMARK    3  A    between atoms: C_7  and  C_8 
REMARK    4  A    between atoms: C_14  and  C_15 
REMARK    5  A    between atoms: C_16  and  O_17 
REMARK    6  A    between atoms: O_17  and  C_18 
REMARK       I    between atoms: C_18  and  N_19 
REMARK    7  A    between atoms: C_33  and  N_34 
ROOT
HETATM    1  C   UNL     1       4.588  27.396  51.149  1.00  0.00     0.099 A 
HETATM    2  N   UNL     1       4.961  26.255  50.533  1.00  0.00    -0.172 NA
HETATM    3  N   UNL     1       4.261  26.234  49.385  1.00  0.00    -0.256 N 
HETATM    4  H   UNL     1       4.367  25.442  48.762  1.00  0.00     0.191 HD
HETATM    5  C   UNL     1       3.472  27.325  49.233  1.00  0.00     0.175 A 
HETATM    6  C   UNL     1       3.677  28.120  50.331  1.00  0.00     0.040 A 
HETATM    7  C   UNL     1       2.957  29.420  50.440  1.00  0.00     0.109 A 
HETATM    8  C   UNL     1       1.935  29.563  49.308  1.00  0.00     0.081 A 
HETATM    9  C   UNL     1       1.029  30.658  49.412  1.00  0.00     0.100 C 
HETATM   10  N   UNL     1       0.285  31.543  49.520  1.00  0.00    -0.191 NA
HETATM   11  C   UNL     1       1.833  28.671  48.285  1.00  0.00     0.140 A 
HETATM   12  O   UNL     1       2.664  27.538  48.202  1.00  0.00    -0.279 OA
ENDROOT
BRANCH   7  13
HETATM   13  C   UNL     1       4.009  30.524  50.408  1.00  0.00    -0.010 A 
HETATM   14  C   UNL     1       3.986  31.566  51.357  1.00  0.00     0.088 A 
HETATM   15  C   UNL     1       4.889  32.629  51.289  1.00  0.00     0.038 A 
HETATM   16  C   UNL     1       5.853  32.658  50.282  1.00  0.00     0.003 A 
HETATM   17  C   UNL     1       5.899  31.642  49.333  1.00  0.00     0.001 A 
HETATM   18  C   UNL     1       4.980  30.593  49.387  1.00  0.00     0.011 A 
BRANCH  14  19
HETATM   19  O   UNL     1       2.941  31.529  52.319  1.00  0.00    -0.261 OA
BRANCH  19  20
HETATM   20  C   UNL     1       2.253  32.634  52.831  1.00  0.00     0.368 C 
HETATM   21  N   UNL     1       2.450  32.788  54.196  1.00  0.00    -0.324 N 
HETATM   22  C   UNL     1       3.106  31.773  55.021  1.00  0.00     0.154 C 
HETATM   23  C   UNL     1       1.560  33.691  54.925  1.00  0.00     0.154 C 
HETATM   24  C   UNL     1       3.699  32.389  56.292  1.00  0.00     0.187 C 
HETATM   25  O   UNL     1       2.714  33.144  57.012  1.00  0.00    -0.388 OA
HETATM   26  C   UNL     1       2.214  34.219  56.202  1.00  0.00     0.187 C 
HETATM   27  O   UNL     1       1.563  33.395  52.163  1.00  0.00    -0.238 OA
ENDBRANCH  19  20
ENDBRANCH  14  19
ENDBRANCH   7  13
BRANCH  11  28
HETATM   28  N   UNL     1       0.932  28.745  47.247  1.00  0.00    -0.282 NA
HETATM   29  H   UNL     1       0.915  29.629  46.744  1.00  0.00     0.126 HD
HETATM   30  H   UNL     1       0.994  27.940  46.629  1.00  0.00     0.126 HD
ENDBRANCH  11  28
BRANCH   1  31
HETATM   31  C   UNL     1       5.117  27.741  52.469  1.00  0.00    -0.005 A 
HETATM   32  C   UNL     1       6.499  27.714  52.697  1.00  0.00     0.014 A 
HETATM   33  C   UNL     1       7.021  28.023  53.955  1.00  0.00     0.008 A 
HETATM   34  C   UNL     1       6.170  28.364  55.013  1.00  0.00    -0.058 A 
HETATM   35  C   UNL     1       4.788  28.388  54.788  1.00  0.00     0.008 A 
HETATM   36  C   UNL     1       4.267  28.072  53.529  1.00  0.00     0.014 A 
BRANCH  34  37
HETATM   37  C   UNL     1       6.729  28.694  56.376  1.00  0.00     0.042 C 
BRANCH  37  38
HETATM   38  C   UNL     1       8.129  28.104  56.632  1.00  0.00    -0.019 C 
HETATM   39  C   UNL     1       8.058  26.741  57.327  1.00  0.00     0.010 C 
HETATM   40  C   UNL     1       8.951  29.074  57.483  1.00  0.00     0.010 C 
ENDBRANCH  37  38
ENDBRANCH  34  37
ENDBRANCH   1  31
TORSDOF 7
ENDMDL
MODEL 5
REMARK VINA RESULT:      -7.2      9.378     13.236
REMARK  7 active torsions:
REMARK  status: ('A' for Active; 'I' for Inactive)
REMARK    1  A    between atoms: C_2  and  C_3 
REMARK    2  A    between atoms: C_3  and  C_4 
REMARK    3  A    between atoms: C_7  and  C_8 
REMARK    4  A    between atoms: C_14  and  C_15 
REMARK    5  A    between atoms: C_16  and  O_17 
REMARK    6  A    between atoms: O_17  and  C_18 
REMARK       I    between atoms: C_18  and  N_19 
REMARK    7  A    between atoms: C_33  and  N_34 
ROOT
HETATM    1  C   UNL     1       4.700  38.595  60.235  1.00  0.00     0.099 A 
HETATM    2  N   UNL     1       4.689  39.925  60.010  1.00  0.00    -0.172 NA
HETATM    3  N   UNL     1       4.649  40.051  58.671  1.00  0.00    -0.256 N 
HETATM    4  H   UNL     1       4.657  40.980  58.267  1.00  0.00     0.191 HD
HETATM    5  C   UNL     1       4.613  38.856  58.034  1.00  0.00     0.175 A 
HETATM    6  C   UNL     1       4.609  37.888  59.005  1.00  0.00     0.040 A 
HETATM    7  C   UNL     1       4.548  36.452  58.609  1.00  0.00     0.109 A 
HETATM    8  C   UNL     1       4.669  36.310  57.088  1.00  0.00     0.081 A 
HETATM    9  C   UNL     1       4.840  34.985  56.591  1.00  0.00     0.100 C 
HETATM   10  N   UNL     1       4.999  33.903  56.203  1.00  0.00    -0.191 NA
HETATM   11  C   UNL     1       4.683  37.377  56.244  1.00  0.00     0.140 A 
HETATM   12  O   UNL     1       4.594  38.700  56.716  1.00  0.00    -0.279 OA
ENDROOT
BRANCH   7  13
HETATM   13  C   UNL     1       3.231  35.894  59.136  1.00  0.00    -0.010 A 
HETATM   14  C   UNL     1       3.219  34.931  60.166  1.00  0.00     0.088 A 
HETATM   15  C   UNL     1       2.027  34.346  60.599  1.00  0.00     0.038 A 
HETATM   16  C   UNL     1       0.816  34.733  60.027  1.00  0.00     0.003 A 
HETATM   17  C   UNL     1       0.798  35.682  59.010  1.00  0.00     0.001 A 
HETATM   18  C   UNL     1       1.992  36.247  58.560  1.00  0.00     0.011 A 
BRANCH  14  19
HETATM   19  O   UNL     1       4.483  34.518  60.666  1.00  0.00    -0.261 OA
BRANCH  19  20
HETATM   20  C   UNL     1       5.134  33.315  60.368  1.00  0.00     0.368 C 
HETATM   21  N   UNL     1       6.110  33.001  61.303  1.00  0.00    -0.324 N 
HETATM   22  C   UNL     1       6.551  33.943  62.333  1.00  0.00     0.154 C 
HETATM   23  C   UNL     1       7.078  31.960  60.967  1.00  0.00     0.154 C 
HETATM   24  C   UNL     1       7.162  33.208  63.530  1.00  0.00     0.187 C 
HETATM   25  O   UNL     1       8.198  32.308  63.114  1.00  0.00    -0.388 OA
HETATM   26  C   UNL     1       7.673  31.316  62.219  1.00  0.00     0.187 C 
HETATM   27  O   UNL     1       4.874  32.604  59.404  1.00  0.00    -0.238 OA
ENDBRANCH  19  20
ENDBRANCH  14  19
ENDBRANCH   7  13
BRANCH  11  28
HETATM   28  N   UNL     1       4.795  37.310  54.873  1.00  0.00    -0.282 NA
HETATM   29  H   UNL     1       4.022  37.714  54.350  1.00  0.00     0.126 HD
HETATM   30  H   UNL     1       5.703  37.630  54.548  1.00  0.00     0.126 HD
ENDBRANCH  11  28
BRANCH   1  31
HETATM   31  C   UNL     1       4.789  38.069  61.598  1.00  0.00    -0.005 A 
HETATM   32  C   UNL     1       3.647  37.553  62.224  1.00  0.00     0.014 A 
HETATM   33  C   UNL     1       3.709  37.063  63.531  1.00  0.00     0.008 A 
HETATM   34  C   UNL     1       4.917  37.079  64.238  1.00  0.00    -0.058 A 
HETATM   35  C   UNL     1       6.059  37.598  63.615  1.00  0.00     0.008 A 
HETATM   36  C   UNL     1       5.993  38.094  62.310  1.00  0.00     0.014 A 
BRANCH  34  37
HETATM   37  C   UNL     1       4.988  36.556  65.653  1.00  0.00     0.042 C 
BRANCH  37  38
HETATM   38  C   UNL     1       4.313  35.184  65.841  1.00  0.00    -0.019 C 
HETATM   39  C   UNL     1       3.032  35.285  66.673  1.00  0.00     0.010 C 
HETATM   40  C   UNL     1       5.289  34.216  66.513  1.00  0.00     0.010 C 
ENDBRANCH  37  38
ENDBRANCH  34  37
ENDBRANCH   1  31
TORSDOF 7
ENDMDL
MODEL 6
REMARK VINA RESULT:      -7.2      8.790     10.647
REMARK  7 active torsions:
REMARK  status: ('A' for Active; 'I' for Inactive)
REMARK    1  A    between atoms: C_2  and  C_3 
REMARK    2  A    between atoms: C_3  and  C_4 
REMARK    3  A    between atoms: C_7  and  C_8 
REMARK    4  A    between atoms: C_14  and  C_15 
REMARK    5  A    between atoms: C_16  and  O_17 
REMARK    6  A    between atoms: O_17  and  C_18 
REMARK       I    between atoms: C_18  and  N_19 
REMARK    7  A    between atoms: C_33  and  N_34 
ROOT
HETATM    1  C   UNL     1      -5.392  29.689  50.624  1.00  0.00     0.099 A 
HETATM    2  N   UNL     1      -5.427  28.381  50.954  1.00  0.00    -0.172 NA
HETATM    3  N   UNL     1      -5.968  27.766  49.887  1.00  0.00    -0.256 N 
HETATM    4  H   UNL     1      -6.114  26.764  49.922  1.00  0.00     0.191 HD
HETATM    5  C   UNL     1      -6.261  28.625  48.881  1.00  0.00     0.175 A 
HETATM    6  C   UNL     1      -5.874  29.872  49.298  1.00  0.00     0.040 A 
HETATM    7  C   UNL     1      -6.048  31.038  48.386  1.00  0.00     0.109 A 
HETATM    8  C   UNL     1      -6.824  30.625  47.131  1.00  0.00     0.081 A 
HETATM    9  C   UNL     1      -7.247  31.683  46.275  1.00  0.00     0.100 C 
HETATM   10  N   UNL     1      -7.603  32.557  45.599  1.00  0.00    -0.191 NA
HETATM   11  C   UNL     1      -7.161  29.334  46.861  1.00  0.00     0.140 A 
HETATM   12  O   UNL     1      -6.823  28.280  47.729  1.00  0.00    -0.279 OA
ENDROOT
BRANCH   7  13
HETATM   13  C   UNL     1      -4.656  31.565  48.054  1.00  0.00    -0.010 A 
HETATM   14  C   UNL     1      -4.322  32.913  48.295  1.00  0.00     0.088 A 
HETATM   15  C   UNL     1      -3.082  33.432  47.917  1.00  0.00     0.038 A 
HETATM   16  C   UNL     1      -2.138  32.603  47.313  1.00  0.00     0.003 A 
HETATM   17  C   UNL     1      -2.441  31.268  47.064  1.00  0.00     0.001 A 
HETATM   18  C   UNL     1      -3.690  30.757  47.419  1.00  0.00     0.011 A 
BRANCH  14  19
HETATM   19  O   UNL     1      -5.343  33.734  48.847  1.00  0.00    -0.261 OA
BRANCH  19  20
HETATM   20  C   UNL     1      -5.305  34.369  50.093  1.00  0.00     0.368 C 
HETATM   21  N   UNL     1      -6.514  34.273  50.767  1.00  0.00    -0.324 N 
HETATM   22  C   UNL     1      -7.735  33.771  50.136  1.00  0.00     0.154 C 
HETATM   23  C   UNL     1      -6.732  35.142  51.922  1.00  0.00     0.154 C 
HETATM   24  C   UNL     1      -8.720  33.236  51.180  1.00  0.00     0.187 C 
HETATM   25  O   UNL     1      -8.978  34.211  52.199  1.00  0.00    -0.388 OA
HETATM   26  C   UNL     1      -7.764  34.555  52.885  1.00  0.00     0.187 C 
HETATM   27  O   UNL     1      -4.323  34.938  50.554  1.00  0.00    -0.238 OA
ENDBRANCH  19  20
ENDBRANCH  14  19
ENDBRANCH   7  13
BRANCH  11  28
HETATM   28  N   UNL     1      -7.860  28.906  45.754  1.00  0.00    -0.282 NA
HETATM   29  H   UNL     1      -8.248  27.968  45.817  1.00  0.00     0.126 HD
HETATM   30  H   UNL     1      -8.541  29.595  45.443  1.00  0.00     0.126 HD
ENDBRANCH  11  28
BRANCH   1  31
HETATM   31  C   UNL     1      -4.901  30.687  51.574  1.00  0.00    -0.005 A 
HETATM   32  C   UNL     1      -5.742  31.159  52.590  1.00  0.00     0.014 A 
HETATM   33  C   UNL     1      -5.295  32.125  53.495  1.00  0.00     0.008 A 
HETATM   34  C   UNL     1      -3.997  32.639  53.401  1.00  0.00    -0.058 A 
HETATM   35  C   UNL     1      -3.155  32.171  52.384  1.00  0.00     0.008 A 
HETATM   36  C   UNL     1      -3.606  31.209  51.475  1.00  0.00     0.014 A 
BRANCH  34  37
HETATM   37  C   UNL     1      -3.511  33.686  54.374  1.00  0.00     0.042 C 
BRANCH  37  38
HETATM   38  C   UNL     1      -2.797  33.104  55.609  1.00  0.00    -0.019 C 
HETATM   39  C   UNL     1      -3.602  33.323  56.893  1.00  0.00     0.010 C 
HETATM   40  C   UNL     1      -1.413  33.739  55.753  1.00  0.00     0.010 C 
ENDBRANCH  37  38
ENDBRANCH  34  37
ENDBRANCH   1  31
TORSDOF 7
ENDMDL
MODEL 7
REMARK VINA RESULT:      -7.2      7.013     12.189
REMARK  7 active torsions:
REMARK  status: ('A' for Active; 'I' for Inactive)
REMARK    1  A    between atoms: C_2  and  C_3 
REMARK    2  A    between atoms: C_3  and  C_4 
REMARK    3  A    between atoms: C_7  and  C_8 
REMARK    4  A    between atoms: C_14  and  C_15 
REMARK    5  A    between atoms: C_16  and  O_17 
REMARK    6  A    between atoms: O_17  and  C_18 
REMARK       I    between atoms: C_18  and  N_19 
REMARK    7  A    between atoms: C_33  and  N_34 
ROOT
HETATM    1  C   UNL     1       5.436  32.873  61.686  1.00  0.00     0.099 A 
HETATM    2  N   UNL     1       5.805  32.083  62.716  1.00  0.00    -0.172 NA
HETATM    3  N   UNL     1       5.865  32.904  63.780  1.00  0.00    -0.256 N 
HETATM    4  H   UNL     1       6.150  32.524  64.675  1.00  0.00     0.191 HD
HETATM    5  C   UNL     1       5.529  34.181  63.475  1.00  0.00     0.175 A 
HETATM    6  C   UNL     1       5.211  34.201  62.142  1.00  0.00     0.040 A 
HETATM    7  C   UNL     1       4.773  35.478  61.511  1.00  0.00     0.109 A 
HETATM    8  C   UNL     1       4.921  36.641  62.497  1.00  0.00     0.081 A 
HETATM    9  C   UNL     1       4.742  37.949  61.960  1.00  0.00     0.100 C 
HETATM   10  N   UNL     1       4.612  39.009  61.504  1.00  0.00    -0.191 NA
HETATM   11  C   UNL     1       5.271  36.466  63.801  1.00  0.00     0.140 A 
HETATM   12  O   UNL     1       5.530  35.191  64.336  1.00  0.00    -0.279 OA
ENDROOT
BRANCH   7  13
HETATM   13  C   UNL     1       3.329  35.287  61.060  1.00  0.00    -0.010 A 
HETATM   14  C   UNL     1       2.923  35.673  59.766  1.00  0.00     0.088 A 
HETATM   15  C   UNL     1       1.587  35.585  59.368  1.00  0.00     0.038 A 
HETATM   16  C   UNL     1       0.631  35.084  60.250  1.00  0.00     0.003 A 
HETATM   17  C   UNL     1       1.004  34.695  61.533  1.00  0.00     0.001 A 
HETATM   18  C   UNL     1       2.335  34.806  61.939  1.00  0.00     0.011 A 
BRANCH  14  19
HETATM   19  O   UNL     1       3.920  36.244  58.930  1.00  0.00    -0.261 OA
BRANCH  19  20
HETATM   20  C   UNL     1       4.344  35.744  57.694  1.00  0.00     0.368 C 
HETATM   21  N   UNL     1       5.057  36.684  56.964  1.00  0.00    -0.324 N 
HETATM   22  C   UNL     1       5.141  38.092  57.355  1.00  0.00     0.154 C 
HETATM   23  C   UNL     1       5.290  36.425  55.544  1.00  0.00     0.154 C 
HETATM   24  C   UNL     1       6.388  38.758  56.765  1.00  0.00     0.187 C 
HETATM   25  O   UNL     1       6.458  38.566  55.345  1.00  0.00    -0.388 OA
HETATM   26  C   UNL     1       6.524  37.167  55.029  1.00  0.00     0.187 C 
HETATM   27  O   UNL     1       4.128  34.606  57.293  1.00  0.00    -0.238 OA
ENDBRANCH  19  20
ENDBRANCH  14  19
ENDBRANCH   7  13
BRANCH  11  28
HETATM   28  N   UNL     1       5.424  37.472  64.729  1.00  0.00    -0.282 NA
HETATM   29  H   UNL     1       6.346  37.539  65.153  1.00  0.00     0.126 HD
HETATM   30  H   UNL     1       5.081  38.365  64.384  1.00  0.00     0.126 HD
ENDBRANCH  11  28
BRANCH   1  31
HETATM   31  C   UNL     1       5.311  32.327  60.334  1.00  0.00    -0.005 A 
HETATM   32  C   UNL     1       4.051  31.963  59.841  1.00  0.00     0.014 A 
HETATM   33  C   UNL     1       3.915  31.424  58.559  1.00  0.00     0.008 A 
HETATM   34  C   UNL     1       5.038  31.238  57.744  1.00  0.00    -0.058 A 
HETATM   35  C   UNL     1       6.299  31.598  58.237  1.00  0.00     0.008 A 
HETATM   36  C   UNL     1       6.434  32.130  59.523  1.00  0.00     0.014 A 
BRANCH  34  37
HETATM   37  C   UNL     1       4.897  30.651  56.360  1.00  0.00     0.042 C 
BRANCH  37  38
HETATM   38  C   UNL     1       4.412  29.189  56.353  1.00  0.00    -0.019 C 
HETATM   39  C   UNL     1       5.380  28.261  57.092  1.00  0.00     0.010 C 
HETATM   40  C   UNL     1       4.239  28.709  54.910  1.00  0.00     0.010 C 
ENDBRANCH  37  38
ENDBRANCH  34  37
ENDBRANCH   1  31
TORSDOF 7
ENDMDL
MODEL 8
REMARK VINA RESULT:      -7.1      2.328      5.338
REMARK  7 active torsions:
REMARK  status: ('A' for Active; 'I' for Inactive)
REMARK    1  A    between atoms: C_2  and  C_3 
REMARK    2  A    between atoms: C_3  and  C_4 
REMARK    3  A    between atoms: C_7  and  C_8 
REMARK    4  A    between atoms: C_14  and  C_15 
REMARK    5  A    between atoms: C_16  and  O_17 
REMARK    6  A    between atoms: O_17  and  C_18 
REMARK       I    between atoms: C_18  and  N_19 
REMARK    7  A    between atoms: C_33  and  N_34 
ROOT
HETATM    1  C   UNL     1       4.905  28.080  53.424  1.00  0.00     0.099 A 
HETATM    2  N   UNL     1       4.162  28.272  54.533  1.00  0.00    -0.172 NA
HETATM    3  N   UNL     1       3.660  29.514  54.405  1.00  0.00    -0.256 N 
HETATM    4  H   UNL     1       3.079  29.885  55.147  1.00  0.00     0.191 HD
HETATM    5  C   UNL     1       4.035  30.113  53.249  1.00  0.00     0.175 A 
HETATM    6  C   UNL     1       4.812  29.212  52.568  1.00  0.00     0.040 A 
HETATM    7  C   UNL     1       5.360  29.579  51.231  1.00  0.00     0.109 A 
HETATM    8  C   UNL     1       5.067  31.049  50.917  1.00  0.00     0.081 A 
HETATM    9  C   UNL     1       5.718  31.590  49.771  1.00  0.00     0.100 C 
HETATM   10  N   UNL     1       6.270  32.022  48.845  1.00  0.00    -0.191 NA
HETATM   11  C   UNL     1       4.288  31.835  51.710  1.00  0.00     0.140 A 
HETATM   12  O   UNL     1       3.698  31.345  52.890  1.00  0.00    -0.279 OA
ENDROOT
BRANCH   7  13
HETATM   13  C   UNL     1       4.731  28.636  50.211  1.00  0.00    -0.010 A 
HETATM   14  C   UNL     1       3.454  28.902  49.678  1.00  0.00     0.088 A 
HETATM   15  C   UNL     1       2.828  28.004  48.809  1.00  0.00     0.038 A 
HETATM   16  C   UNL     1       3.482  26.832  48.434  1.00  0.00     0.003 A 
HETATM   17  C   UNL     1       4.745  26.545  48.944  1.00  0.00     0.001 A 
HETATM   18  C   UNL     1       5.358  27.430  49.832  1.00  0.00     0.011 A 
BRANCH  14  19
HETATM   19  O   UNL     1       2.799  30.073  50.146  1.00  0.00    -0.261 OA
BRANCH  19  20
HETATM   20  C   UNL     1       1.467  30.425  49.902  1.00  0.00     0.368 C 
HETATM   21  N   UNL     1       1.344  31.312  48.842  1.00  0.00    -0.324 N 
HETATM   22  C   UNL     1       2.496  31.969  48.222  1.00  0.00     0.154 C 
HETATM   23  C   UNL     1       0.072  32.011  48.670  1.00  0.00     0.154 C 
HETATM   24  C   UNL     1       2.180  32.405  46.789  1.00  0.00     0.187 C 
HETATM   25  O   UNL     1       0.988  33.202  46.739  1.00  0.00    -0.388 OA
HETATM   26  C   UNL     1      -0.138  32.454  47.221  1.00  0.00     0.187 C 
HETATM   27  O   UNL     1       0.508  30.000  50.536  1.00  0.00    -0.238 OA
ENDBRANCH  19  20
ENDBRANCH  14  19
ENDBRANCH   7  13
BRANCH  11  28
HETATM   28  N   UNL     1       3.996  33.160  51.481  1.00  0.00    -0.282 NA
HETATM   29  H   UNL     1       4.313  33.809  52.197  1.00  0.00     0.126 HD
HETATM   30  H   UNL     1       4.254  33.452  50.541  1.00  0.00     0.126 HD
ENDBRANCH  11  28
BRANCH   1  31
HETATM   31  C   UNL     1       5.654  26.838  53.233  1.00  0.00    -0.005 A 
HETATM   32  C   UNL     1       7.055  26.855  53.256  1.00  0.00     0.014 A 
HETATM   33  C   UNL     1       7.787  25.681  53.058  1.00  0.00     0.008 A 
HETATM   34  C   UNL     1       7.131  24.466  52.831  1.00  0.00    -0.058 A 
HETATM   35  C   UNL     1       5.731  24.447  52.804  1.00  0.00     0.008 A 
HETATM   36  C   UNL     1       5.000  25.624  52.995  1.00  0.00     0.014 A 
BRANCH  34  37
HETATM   37  C   UNL     1       7.918  23.196  52.611  1.00  0.00     0.042 C 
BRANCH  37  38
HETATM   38  C   UNL     1       7.560  22.066  53.595  1.00  0.00    -0.019 C 
HETATM   39  C   UNL     1       7.984  22.399  55.028  1.00  0.00     0.010 C 
HETATM   40  C   UNL     1       8.226  20.763  53.149  1.00  0.00     0.010 C 
ENDBRANCH  37  38
ENDBRANCH  34  37
ENDBRANCH   1  31
TORSDOF 7
ENDMDL
MODEL 9
REMARK VINA RESULT:      -6.9      3.365      5.976
REMARK  7 active torsions:
REMARK  status: ('A' for Active; 'I' for Inactive)
REMARK    1  A    between atoms: C_2  and  C_3 
REMARK    2  A    between atoms: C_3  and  C_4 
REMARK    3  A    between atoms: C_7  and  C_8 
REMARK    4  A    between atoms: C_14  and  C_15 
REMARK    5  A    between atoms: C_16  and  O_17 
REMARK    6  A    between atoms: O_17  and  C_18 
REMARK       I    between atoms: C_18  and  N_19 
REMARK    7  A    between atoms: C_33  and  N_34 
ROOT
HETATM    1  C   UNL     1       4.446  28.146  50.448  1.00  0.00     0.099 A 
HETATM    2  N   UNL     1       5.457  27.297  50.727  1.00  0.00    -0.172 NA
HETATM    3  N   UNL     1       5.385  26.346  49.778  1.00  0.00    -0.256 N 
HETATM    4  H   UNL     1       6.045  25.578  49.804  1.00  0.00     0.191 HD
HETATM    5  C   UNL     1       4.383  26.565  48.893  1.00  0.00     0.175 A 
HETATM    6  C   UNL     1       3.771  27.734  49.266  1.00  0.00     0.040 A 
HETATM    7  C   UNL     1       2.633  28.256  48.458  1.00  0.00     0.109 A 
HETATM    8  C   UNL     1       2.227  27.242  47.385  1.00  0.00     0.081 A 
HETATM    9  C   UNL     1       1.018  27.517  46.683  1.00  0.00     0.100 C 
HETATM   10  N   UNL     1       0.021  27.744  46.133  1.00  0.00    -0.191 NA
HETATM   11  C   UNL     1       2.928  26.100  47.143  1.00  0.00     0.140 A 
HETATM   12  O   UNL     1       4.081  25.767  47.877  1.00  0.00    -0.279 OA
ENDROOT
BRANCH   7  13
HETATM   13  C   UNL     1       3.077  29.585  47.856  1.00  0.00    -0.010 A 
HETATM   14  C   UNL     1       2.237  30.716  47.913  1.00  0.00     0.088 A 
HETATM   15  C   UNL     1       2.592  31.915  47.290  1.00  0.00     0.038 A 
HETATM   16  C   UNL     1       3.810  32.015  46.619  1.00  0.00     0.003 A 
HETATM   17  C   UNL     1       4.658  30.914  46.548  1.00  0.00     0.001 A 
HETATM   18  C   UNL     1       4.291  29.708  47.148  1.00  0.00     0.011 A 
BRANCH  14  19
HETATM   19  O   UNL     1       0.977  30.543  48.546  1.00  0.00    -0.261 OA
BRANCH  19  20
HETATM   20  C   UNL     1      -0.243  31.071  48.110  1.00  0.00     0.368 C 
HETATM   21  N   UNL     1      -0.837  31.880  49.069  1.00  0.00    -0.324 N 
HETATM   22  C   UNL     1      -0.348  31.966  50.445  1.00  0.00     0.154 C 
HETATM   23  C   UNL     1      -2.242  32.242  48.892  1.00  0.00     0.154 C 
HETATM   24  C   UNL     1      -0.770  33.283  51.102  1.00  0.00     0.187 C 
HETATM   25  O   UNL     1      -2.186  33.486  50.998  1.00  0.00    -0.388 OA
HETATM   26  C   UNL     1      -2.587  33.542  49.621  1.00  0.00     0.187 C 
HETATM   27  O   UNL     1      -0.738  30.862  47.008  1.00  0.00    -0.238 OA
ENDBRANCH  19  20
ENDBRANCH  14  19
ENDBRANCH   7  13
BRANCH  11  28
HETATM   28  N   UNL     1       2.607  25.152  46.198  1.00  0.00    -0.282 NA
HETATM   29  H   UNL     1       2.758  24.185  46.478  1.00  0.00     0.126 HD
HETATM   30  H   UNL     1       1.686  25.308  45.796  1.00  0.00     0.126 HD
ENDBRANCH  11  28
BRANCH   1  31
HETATM   31  C   UNL     1       4.180  29.299  51.308  1.00  0.00    -0.005 A 
HETATM   32  C   UNL     1       3.616  29.110  52.577  1.00  0.00     0.014 A 
HETATM   33  C   UNL     1       3.339  30.200  53.405  1.00  0.00     0.008 A 
HETATM   34  C   UNL     1       3.620  31.504  52.979  1.00  0.00    -0.058 A 
HETATM   35  C   UNL     1       4.180  31.696  51.710  1.00  0.00     0.008 A 
HETATM   36  C   UNL     1       4.450  30.604  50.880  1.00  0.00     0.014 A 
BRANCH  34  37
HETATM   37  C   UNL     1       3.317  32.686  53.869  1.00  0.00     0.042 C 
BRANCH  37  38
HETATM   38  C   UNL     1       1.928  33.307  53.625  1.00  0.00    -0.019 C 
HETATM   39  C   UNL     1       2.013  34.810  53.346  1.00  0.00     0.010 C 
HETATM   40  C   UNL     1       1.031  33.056  54.838  1.00  0.00     0.010 C 
ENDBRANCH  37  38
ENDBRANCH  34  37
ENDBRANCH   1  31
TORSDOF 7
ENDMDL
MODEL 10
REMARK VINA RESULT:      -6.7      2.696      3.821
REMARK  7 active torsions:
REMARK  status: ('A' for Active; 'I' for Inactive)
REMARK    1  A    between atoms: C_2  and  C_3 
REMARK    2  A    between atoms: C_3  and  C_4 
REMARK    3  A    between atoms: C_7  and  C_8 
REMARK    4  A    between atoms: C_14  and  C_15 
REMARK    5  A    between atoms: C_16  and  O_17 
REMARK    6  A    between atoms: O_17  and  C_18 
REMARK       I    between atoms: C_18  and  N_19 
REMARK    7  A    between atoms: C_33  and  N_34 
ROOT
HETATM    1  C   UNL     1       5.382  27.503  51.853  1.00  0.00     0.099 A 
HETATM    2  N   UNL     1       5.980  26.383  51.396  1.00  0.00    -0.172 NA
HETATM    3  N   UNL     1       5.380  26.121  50.222  1.00  0.00    -0.256 N 
HETATM    4  H   UNL     1       5.658  25.297  49.703  1.00  0.00     0.191 HD
HETATM    5  C   UNL     1       4.437  27.039  49.900  1.00  0.00     0.175 A 
HETATM    6  C   UNL     1       4.428  27.970  50.907  1.00  0.00     0.040 A 
HETATM    7  C   UNL     1       3.500  29.133  50.823  1.00  0.00     0.109 A 
HETATM    8  C   UNL     1       2.555  28.979  49.627  1.00  0.00     0.081 A 
HETATM    9  C   UNL     1       1.477  29.909  49.552  1.00  0.00     0.100 C 
HETATM   10  N   UNL     1       0.593  30.661  49.516  1.00  0.00    -0.191 NA
HETATM   11  C   UNL     1       2.675  27.978  48.712  1.00  0.00     0.140 A 
HETATM   12  O   UNL     1       3.683  27.001  48.808  1.00  0.00    -0.279 OA
ENDROOT
BRANCH   7  13
HETATM   13  C   UNL     1       4.358  30.389  50.720  1.00  0.00    -0.010 A 
HETATM   14  C   UNL     1       4.104  31.503  51.546  1.00  0.00     0.088 A 
HETATM   15  C   UNL     1       4.824  32.691  51.404  1.00  0.00     0.038 A 
HETATM   16  C   UNL     1       5.834  32.781  50.447  1.00  0.00     0.003 A 
HETATM   17  C   UNL     1       6.106  31.697  49.619  1.00  0.00     0.001 A 
HETATM   18  C   UNL     1       5.369  30.518  49.744  1.00  0.00     0.011 A 
BRANCH  14  19
HETATM   19  O   UNL     1       3.018  31.387  52.456  1.00  0.00    -0.261 OA
BRANCH  19  20
HETATM   20  C   UNL     1       2.778  32.211  53.560  1.00  0.00     0.368 C 
HETATM   21  N   UNL     1       1.679  33.036  53.371  1.00  0.00    -0.324 N 
HETATM   22  C   UNL     1       1.011  33.179  52.076  1.00  0.00     0.154 C 
HETATM   23  C   UNL     1       1.492  34.160  54.286  1.00  0.00     0.154 C 
HETATM   24  C   UNL     1      -0.437  33.647  52.248  1.00  0.00     0.187 C 
HETATM   25  O   UNL     1      -0.508  34.836  53.048  1.00  0.00    -0.388 OA
HETATM   26  C   UNL     1       0.027  34.593  54.358  1.00  0.00     0.187 C 
HETATM   27  O   UNL     1       3.445  32.208  54.589  1.00  0.00    -0.238 OA
ENDBRANCH  19  20
ENDBRANCH  14  19
ENDBRANCH   7  13
BRANCH  11  28
HETATM   28  N   UNL     1       1.853  27.788  47.625  1.00  0.00    -0.282 NA
HETATM   29  H   UNL     1       1.174  28.526  47.454  1.00  0.00     0.126 HD
HETATM   30  H   UNL     1       2.376  27.531  46.791  1.00  0.00     0.126 HD
ENDBRANCH  11  28
BRANCH   1  31
HETATM   31  C   UNL     1       5.750  28.071  53.150  1.00  0.00    -0.005 A 
HETATM   32  C   UNL     1       4.767  28.651  53.963  1.00  0.00     0.014 A 
HETATM   33  C   UNL     1       5.103  29.213  55.197  1.00  0.00     0.008 A 
HETATM   34  C   UNL     1       6.430  29.208  55.642  1.00  0.00    -0.058 A 
HETATM   35  C   UNL     1       7.414  28.632  54.829  1.00  0.00     0.008 A 
HETATM   36  C   UNL     1       7.078  28.075  53.591  1.00  0.00     0.014 A 
BRANCH  34  37
HETATM   37  C   UNL     1       6.799  29.820  56.973  1.00  0.00     0.042 C 
BRANCH  37  38
HETATM   38  C   UNL     1       7.985  29.125  57.668  1.00  0.00    -0.019 C 
HETATM   39  C   UNL     1       7.697  27.648  57.951  1.00  0.00     0.010 C 
HETATM   40  C   UNL     1       8.312  29.847  58.976  1.00  0.00     0.010 C 
ENDBRANCH  37  38
ENDBRANCH  34  37
ENDBRANCH   1  31
TORSDOF 7
ENDMDL
