MODEL 1
REMARK VINA RESULT:     -10.2      0.000      0.000
REMARK  6 active torsions:
REMARK  status: ('A' for Active; 'I' for Inactive)
REMARK    1  A    between atoms: O_2  and  C_3 
REMARK    2  A    between atoms: C_6  and  C_7 
REMARK    3  A    between atoms: C_12  and  C_13 
REMARK       I    between atoms: C_13  and  N_14 
REMARK    4  A    between atoms: N_14  and  C_15 
REMARK    5  A    between atoms: C_17  and  O_18 
REMARK    6  A    between atoms: C_24  and  C_25 
ROOT
HETATM    1  C   UNL     1       6.659  25.402  54.276  1.00  0.00     0.118 C 
HETATM    2  N   UNL     1       6.617  25.874  55.661  1.00  0.00    -0.366 N 
HETATM    3  C   UNL     1       7.107  27.072  56.036  1.00  0.00     0.123 C 
HETATM    4  N   UNL     1       7.479  28.003  55.108  1.00  0.00    -0.240 N 
HETATM    5  N   UNL     1       8.130  29.061  55.621  1.00  0.00    -0.165 NA
HETATM    6  C   UNL     1       8.024  28.867  56.957  1.00  0.00     0.148 C 
HETATM    7  C   UNL     1       7.360  27.644  57.254  1.00  0.00     0.089 C 
HETATM    8  C   UNL     1       7.334  27.797  53.680  1.00  0.00     0.221 C 
HETATM    9  C   UNL     1       7.531  26.308  53.380  1.00  0.00     0.066 C 
HETATM   10  H   UNL     1       6.317  25.184  56.350  1.00  0.00     0.161 HD
ENDROOT
BRANCH   6  11
HETATM   11  C   UNL     1       8.607  29.814  57.927  1.00  0.00     0.276 C 
HETATM   12  N   UNL     1       7.802  29.959  59.040  1.00  0.00    -0.322 N 
HETATM   13  H   UNL     1       6.953  29.400  58.996  1.00  0.00     0.169 HD
HETATM   14  O   UNL     1       9.656  30.406  57.699  1.00  0.00    -0.266 OA
BRANCH  12  15
HETATM   15  C   UNL     1       7.979  30.807  60.144  1.00  0.00     0.037 A 
HETATM   16  C   UNL     1       7.148  31.892  60.430  1.00  0.00     0.066 A 
HETATM   17  C   UNL     1       7.401  32.678  61.554  1.00  0.00     0.067 A 
HETATM   18  C   UNL     1       8.463  32.398  62.403  1.00  0.00     0.036 A 
HETATM   19  C   UNL     1       9.296  31.319  62.125  1.00  0.00     0.005 A 
HETATM   20  C   UNL     1       9.058  30.531  60.995  1.00  0.00     0.029 A 
BRANCH  17  21
HETATM   21  O   UNL     1       6.615  33.754  61.855  1.00  0.00    -0.361 OA
HETATM   22  H   UNL     1       7.186  34.536  61.937  1.00  0.00     0.217 HD
ENDBRANCH  17  21
ENDBRANCH  12  15
ENDBRANCH   6  11
BRANCH   8  23
HETATM   23  C   UNL     1       5.996  28.318  53.212  1.00  0.00     0.409 C 
HETATM   24  F   UNL     1       5.433  29.162  54.104  1.00  0.00    -0.169 F 
HETATM   25  F   UNL     1       6.159  29.024  52.062  1.00  0.00    -0.169 F 
HETATM   26  F   UNL     1       5.100  27.346  52.941  1.00  0.00    -0.169 F 
ENDBRANCH   8  23
BRANCH   1  27
HETATM   27  C   UNL     1       7.202  23.983  54.237  1.00  0.00    -0.035 A 
HETATM   28  C   UNL     1       7.310  23.230  55.412  1.00  0.00     0.012 A 
HETATM   29  C   UNL     1       7.727  21.896  55.361  1.00  0.00     0.037 A 
HETATM   30  C   UNL     1       8.027  21.288  54.140  1.00  0.00     0.068 A 
HETATM   31  C   UNL     1       7.957  22.039  52.968  1.00  0.00     0.037 A 
HETATM   32  C   UNL     1       7.545  23.373  53.017  1.00  0.00     0.012 A 
BRANCH  30  33
HETATM   33  O   UNL     1       8.385  19.971  54.218  1.00  0.00    -0.356 OA
HETATM   34  C   UNL     1       9.110  19.589  55.382  1.00  0.00     0.210 C 
ENDBRANCH  30  33
ENDBRANCH   1  27
TORSDOF 6
ENDMDL
MODEL 2
REMARK VINA RESULT:      -9.7      3.322      4.811
REMARK  6 active torsions:
REMARK  status: ('A' for Active; 'I' for Inactive)
REMARK    1  A    between atoms: O_2  and  C_3 
REMARK    2  A    between atoms: C_6  and  C_7 
REMARK    3  A    between atoms: C_12  and  C_13 
REMARK       I    between atoms: C_13  and  N_14 
REMARK    4  A    between atoms: N_14  and  C_15 
REMARK    5  A    between atoms: C_17  and  O_18 
REMARK    6  A    between atoms: C_24  and  C_25 
ROOT
HETATM    1  C   UNL     1       8.206  28.850  55.766  1.00  0.00     0.118 C 
HETATM    2  N   UNL     1       7.247  29.901  56.110  1.00  0.00    -0.366 N 
HETATM    3  C   UNL     1       7.237  30.510  57.312  1.00  0.00     0.123 C 
HETATM    4  N   UNL     1       8.256  30.329  58.202  1.00  0.00    -0.240 N 
HETATM    5  N   UNL     1       8.014  30.833  59.424  1.00  0.00    -0.165 NA
HETATM    6  C   UNL     1       6.851  31.507  59.253  1.00  0.00     0.148 C 
HETATM    7  C   UNL     1       6.351  31.351  57.930  1.00  0.00     0.089 C 
HETATM    8  C   UNL     1       9.425  29.523  57.912  1.00  0.00     0.221 C 
HETATM    9  C   UNL     1       9.008  28.369  56.996  1.00  0.00     0.066 C 
HETATM   10  H   UNL     1       6.499  30.049  55.432  1.00  0.00     0.161 HD
ENDROOT
BRANCH   6  11
HETATM   11  C   UNL     1       6.207  32.235  60.362  1.00  0.00     0.276 C 
HETATM   12  N   UNL     1       6.956  32.161  61.520  1.00  0.00    -0.322 N 
HETATM   13  H   UNL     1       7.809  31.617  61.412  1.00  0.00     0.169 HD
HETATM   14  O   UNL     1       5.117  32.781  60.227  1.00  0.00    -0.266 OA
BRANCH  12  15
HETATM   15  C   UNL     1       6.652  32.668  62.793  1.00  0.00     0.037 A 
HETATM   16  C   UNL     1       5.350  32.876  63.254  1.00  0.00     0.066 A 
HETATM   17  C   UNL     1       5.145  33.383  64.538  1.00  0.00     0.067 A 
HETATM   18  C   UNL     1       6.215  33.677  65.374  1.00  0.00     0.036 A 
HETATM   19  C   UNL     1       7.514  33.472  64.921  1.00  0.00     0.005 A 
HETATM   20  C   UNL     1       7.731  32.976  63.633  1.00  0.00     0.029 A 
BRANCH  17  21
HETATM   21  O   UNL     1       3.886  33.610  65.015  1.00  0.00    -0.361 OA
HETATM   22  H   UNL     1       3.304  33.803  64.260  1.00  0.00     0.217 HD
ENDBRANCH  17  21
ENDBRANCH  12  15
ENDBRANCH   6  11
BRANCH   8  23
HETATM   23  C   UNL     1      10.514  30.382  57.313  1.00  0.00     0.409 C 
HETATM   24  F   UNL     1      10.498  31.643  57.798  1.00  0.00    -0.169 F 
HETATM   25  F   UNL     1      11.729  29.863  57.629  1.00  0.00    -0.169 F 
HETATM   26  F   UNL     1      10.468  30.457  55.967  1.00  0.00    -0.169 F 
ENDBRANCH   8  23
BRANCH   1  27
HETATM   27  C   UNL     1       7.470  27.668  55.153  1.00  0.00    -0.035 A 
HETATM   28  C   UNL     1       7.230  27.618  53.775  1.00  0.00     0.012 A 
HETATM   29  C   UNL     1       6.633  26.491  53.202  1.00  0.00     0.037 A 
HETATM   30  C   UNL     1       6.280  25.392  53.989  1.00  0.00     0.068 A 
HETATM   31  C   UNL     1       6.483  25.446  55.367  1.00  0.00     0.037 A 
HETATM   32  C   UNL     1       7.076  26.574  55.942  1.00  0.00     0.012 A 
BRANCH  30  33
HETATM   33  O   UNL     1       5.740  24.337  53.308  1.00  0.00    -0.356 OA
HETATM   34  C   UNL     1       4.833  24.668  52.262  1.00  0.00     0.210 C 
ENDBRANCH  30  33
ENDBRANCH   1  27
TORSDOF 6
ENDMDL
MODEL 3
REMARK VINA RESULT:      -9.6      3.693      5.430
REMARK  6 active torsions:
REMARK  status: ('A' for Active; 'I' for Inactive)
REMARK    1  A    between atoms: O_2  and  C_3 
REMARK    2  A    between atoms: C_6  and  C_7 
REMARK    3  A    between atoms: C_12  and  C_13 
REMARK       I    between atoms: C_13  and  N_14 
REMARK    4  A    between atoms: N_14  and  C_15 
REMARK    5  A    between atoms: C_17  and  O_18 
REMARK    6  A    between atoms: C_24  and  C_25 
ROOT
HETATM    1  C   UNL     1       5.989  25.903  51.849  1.00  0.00     0.118 C 
HETATM    2  N   UNL     1       6.807  26.928  52.500  1.00  0.00    -0.366 N 
HETATM    3  C   UNL     1       7.014  26.955  53.831  1.00  0.00     0.123 C 
HETATM    4  N   UNL     1       6.646  25.905  54.623  1.00  0.00    -0.240 N 
HETATM    5  N   UNL     1       6.731  26.155  55.941  1.00  0.00    -0.165 NA
HETATM    6  C   UNL     1       7.333  27.368  55.985  1.00  0.00     0.148 C 
HETATM    7  C   UNL     1       7.554  27.886  54.677  1.00  0.00     0.089 C 
HETATM    8  C   UNL     1       6.061  24.687  54.099  1.00  0.00     0.221 C 
HETATM    9  C   UNL     1       5.216  25.041  52.871  1.00  0.00     0.066 C 
HETATM   10  H   UNL     1       7.099  27.700  51.900  1.00  0.00     0.161 HD
ENDROOT
BRANCH   6  11
HETATM   11  C   UNL     1       7.633  28.039  57.264  1.00  0.00     0.276 C 
HETATM   12  N   UNL     1       7.680  29.411  57.117  1.00  0.00    -0.322 N 
HETATM   13  H   UNL     1       7.509  29.718  56.163  1.00  0.00     0.169 HD
HETATM   14  O   UNL     1       7.851  27.403  58.289  1.00  0.00    -0.266 OA
BRANCH  12  15
HETATM   15  C   UNL     1       7.993  30.384  58.079  1.00  0.00     0.037 A 
HETATM   16  C   UNL     1       7.035  31.071  58.827  1.00  0.00     0.066 A 
HETATM   17  C   UNL     1       7.442  32.021  59.764  1.00  0.00     0.067 A 
HETATM   18  C   UNL     1       8.788  32.292  59.976  1.00  0.00     0.036 A 
HETATM   19  C   UNL     1       9.748  31.611  59.234  1.00  0.00     0.005 A 
HETATM   20  C   UNL     1       9.351  30.666  58.284  1.00  0.00     0.029 A 
BRANCH  17  21
HETATM   21  O   UNL     1       6.531  32.720  60.504  1.00  0.00    -0.361 OA
HETATM   22  H   UNL     1       6.816  33.649  60.541  1.00  0.00     0.217 HD
ENDBRANCH  17  21
ENDBRANCH  12  15
ENDBRANCH   6  11
BRANCH   8  23
HETATM   23  C   UNL     1       7.143  23.678  53.795  1.00  0.00     0.409 C 
HETATM   24  F   UNL     1       8.368  24.244  53.728  1.00  0.00    -0.169 F 
HETATM   25  F   UNL     1       7.198  22.756  54.792  1.00  0.00    -0.169 F 
HETATM   26  F   UNL     1       6.941  22.993  52.651  1.00  0.00    -0.169 F 
ENDBRANCH   8  23
BRANCH   1  27
HETATM   27  C   UNL     1       5.001  26.564  50.901  1.00  0.00    -0.035 A 
HETATM   28  C   UNL     1       4.507  27.846  51.169  1.00  0.00     0.012 A 
HETATM   29  C   UNL     1       3.668  28.487  50.252  1.00  0.00     0.037 A 
HETATM   30  C   UNL     1       3.322  27.868  49.049  1.00  0.00     0.068 A 
HETATM   31  C   UNL     1       3.780  26.578  48.787  1.00  0.00     0.037 A 
HETATM   32  C   UNL     1       4.615  25.934  49.705  1.00  0.00     0.012 A 
BRANCH  30  33
HETATM   33  O   UNL     1       2.529  28.612  48.219  1.00  0.00    -0.356 OA
HETATM   34  C   UNL     1       1.314  27.997  47.801  1.00  0.00     0.210 C 
ENDBRANCH  30  33
ENDBRANCH   1  27
TORSDOF 6
ENDMDL
MODEL 4
REMARK VINA RESULT:      -9.2      4.940      8.549
REMARK  6 active torsions:
REMARK  status: ('A' for Active; 'I' for Inactive)
REMARK    1  A    between atoms: O_2  and  C_3 
REMARK    2  A    between atoms: C_6  and  C_7 
REMARK    3  A    between atoms: C_12  and  C_13 
REMARK       I    between atoms: C_13  and  N_14 
REMARK    4  A    between atoms: N_14  and  C_15 
REMARK    5  A    between atoms: C_17  and  O_18 
REMARK    6  A    between atoms: C_24  and  C_25 
ROOT
HETATM    1  C   UNL     1       6.995  25.945  54.589  1.00  0.00     0.118 C 
HETATM    2  N   UNL     1       6.870  26.533  53.254  1.00  0.00    -0.366 N 
HETATM    3  C   UNL     1       5.807  27.272  52.882  1.00  0.00     0.123 C 
HETATM    4  N   UNL     1       4.885  27.691  53.799  1.00  0.00    -0.240 N 
HETATM    5  N   UNL     1       3.785  28.243  53.259  1.00  0.00    -0.165 NA
HETATM    6  C   UNL     1       4.095  28.322  51.943  1.00  0.00     0.148 C 
HETATM    7  C   UNL     1       5.372  27.750  51.676  1.00  0.00     0.089 C 
HETATM    8  C   UNL     1       5.001  27.420  55.218  1.00  0.00     0.221 C 
HETATM    9  C   UNL     1       5.686  26.062  55.401  1.00  0.00     0.066 C 
HETATM   10  H   UNL     1       7.574  26.236  52.578  1.00  0.00     0.161 HD
ENDROOT
BRANCH   6  11
HETATM   11  C   UNL     1       3.154  28.882  50.955  1.00  0.00     0.276 C 
HETATM   12  N   UNL     1       3.051  28.076  49.839  1.00  0.00    -0.322 N 
HETATM   13  H   UNL     1       3.641  27.249  49.886  1.00  0.00     0.169 HD
HETATM   14  O   UNL     1       2.595  29.959  51.137  1.00  0.00    -0.266 OA
BRANCH  12  15
HETATM   15  C   UNL     1       2.312  28.295  48.666  1.00  0.00     0.037 A 
HETATM   16  C   UNL     1       2.573  29.332  47.767  1.00  0.00     0.066 A 
HETATM   17  C   UNL     1       1.784  29.470  46.625  1.00  0.00     0.067 A 
HETATM   18  C   UNL     1       0.746  28.587  46.357  1.00  0.00     0.036 A 
HETATM   19  C   UNL     1       0.481  27.552  47.248  1.00  0.00     0.005 A 
HETATM   20  C   UNL     1       1.256  27.411  48.401  1.00  0.00     0.029 A 
BRANCH  17  21
HETATM   21  O   UNL     1       2.004  30.480  45.733  1.00  0.00    -0.361 OA
HETATM   22  H   UNL     1       1.830  31.326  46.179  1.00  0.00     0.217 HD
ENDBRANCH  17  21
ENDBRANCH  12  15
ENDBRANCH   6  11
BRANCH   8  23
HETATM   23  C   UNL     1       5.739  28.546  55.905  1.00  0.00     0.409 C 
HETATM   24  F   UNL     1       4.903  29.504  56.360  1.00  0.00    -0.169 F 
HETATM   25  F   UNL     1       6.399  28.062  56.989  1.00  0.00    -0.169 F 
HETATM   26  F   UNL     1       6.666  29.142  55.127  1.00  0.00    -0.169 F 
ENDBRANCH   8  23
BRANCH   1  27
HETATM   27  C   UNL     1       7.382  24.480  54.467  1.00  0.00    -0.035 A 
HETATM   28  C   UNL     1       7.356  23.642  55.589  1.00  0.00     0.012 A 
HETATM   29  C   UNL     1       7.626  22.277  55.457  1.00  0.00     0.037 A 
HETATM   30  C   UNL     1       7.910  21.722  54.207  1.00  0.00     0.068 A 
HETATM   31  C   UNL     1       7.972  22.553  53.090  1.00  0.00     0.037 A 
HETATM   32  C   UNL     1       7.707  23.919  53.220  1.00  0.00     0.012 A 
BRANCH  30  33
HETATM   33  O   UNL     1       8.117  20.370  54.203  1.00  0.00    -0.356 OA
HETATM   34  C   UNL     1       8.896  19.856  55.278  1.00  0.00     0.210 C 
ENDBRANCH  30  33
ENDBRANCH   1  27
TORSDOF 6
ENDMDL
MODEL 5
REMARK VINA RESULT:      -9.2      1.707      2.169
REMARK  6 active torsions:
REMARK  status: ('A' for Active; 'I' for Inactive)
REMARK    1  A    between atoms: O_2  and  C_3 
REMARK    2  A    between atoms: C_6  and  C_7 
REMARK    3  A    between atoms: C_12  and  C_13 
REMARK       I    between atoms: C_13  and  N_14 
REMARK    4  A    between atoms: N_14  and  C_15 
REMARK    5  A    between atoms: C_17  and  O_18 
REMARK    6  A    between atoms: C_24  and  C_25 
ROOT
HETATM    1  C   UNL     1       6.057  25.411  53.708  1.00  0.00     0.118 C 
HETATM    2  N   UNL     1       5.327  25.848  54.900  1.00  0.00    -0.366 N 
HETATM    3  C   UNL     1       5.423  27.098  55.392  1.00  0.00     0.123 C 
HETATM    4  N   UNL     1       6.043  28.089  54.685  1.00  0.00    -0.240 N 
HETATM    5  N   UNL     1       6.237  29.222  55.381  1.00  0.00    -0.165 NA
HETATM    6  C   UNL     1       5.565  28.992  56.535  1.00  0.00     0.148 C 
HETATM    7  C   UNL     1       5.015  27.680  56.562  1.00  0.00     0.089 C 
HETATM    8  C   UNL     1       6.591  27.889  53.358  1.00  0.00     0.221 C 
HETATM    9  C   UNL     1       7.107  26.450  53.256  1.00  0.00     0.066 C 
HETATM   10  H   UNL     1       4.846  25.110  55.413  1.00  0.00     0.161 HD
ENDROOT
BRANCH   6  11
HETATM   11  C   UNL     1       5.508  29.998  57.612  1.00  0.00     0.276 C 
HETATM   12  N   UNL     1       6.757  30.233  58.153  1.00  0.00    -0.322 N 
HETATM   13  H   UNL     1       7.491  29.673  57.725  1.00  0.00     0.169 HD
HETATM   14  O   UNL     1       4.447  30.496  57.973  1.00  0.00    -0.266 OA
BRANCH  12  15
HETATM   15  C   UNL     1       7.103  31.067  59.227  1.00  0.00     0.037 A 
HETATM   16  C   UNL     1       8.329  31.006  59.893  1.00  0.00     0.066 A 
HETATM   17  C   UNL     1       8.585  31.879  60.951  1.00  0.00     0.067 A 
HETATM   18  C   UNL     1       7.644  32.820  61.350  1.00  0.00     0.036 A 
HETATM   19  C   UNL     1       6.421  32.887  60.691  1.00  0.00     0.005 A 
HETATM   20  C   UNL     1       6.149  32.009  59.638  1.00  0.00     0.029 A 
BRANCH  17  21
HETATM   21  O   UNL     1       9.768  31.836  61.631  1.00  0.00    -0.361 OA
HETATM   22  H   UNL     1       9.722  32.475  62.363  1.00  0.00     0.217 HD
ENDBRANCH  17  21
ENDBRANCH  12  15
ENDBRANCH   6  11
BRANCH   8  23
HETATM   23  C   UNL     1       5.553  28.215  52.311  1.00  0.00     0.409 C 
HETATM   24  F   UNL     1       4.303  28.259  52.823  1.00  0.00    -0.169 F 
HETATM   25  F   UNL     1       5.801  29.446  51.792  1.00  0.00    -0.169 F 
HETATM   26  F   UNL     1       5.543  27.356  51.270  1.00  0.00    -0.169 F 
ENDBRANCH   8  23
BRANCH   1  27
HETATM   27  C   UNL     1       6.750  24.087  53.991  1.00  0.00    -0.035 A 
HETATM   28  C   UNL     1       7.322  23.347  52.950  1.00  0.00     0.012 A 
HETATM   29  C   UNL     1       8.034  22.176  53.224  1.00  0.00     0.037 A 
HETATM   30  C   UNL     1       8.202  21.733  54.538  1.00  0.00     0.068 A 
HETATM   31  C   UNL     1       7.607  22.443  55.579  1.00  0.00     0.037 A 
HETATM   32  C   UNL     1       6.891  23.611  55.307  1.00  0.00     0.012 A 
BRANCH  30  33
HETATM   33  O   UNL     1       8.951  20.597  54.678  1.00  0.00    -0.356 OA
HETATM   34  C   UNL     1       9.399  20.305  55.998  1.00  0.00     0.210 C 
ENDBRANCH  30  33
ENDBRANCH   1  27
TORSDOF 6
ENDMDL
MODEL 6
REMARK VINA RESULT:      -9.1      3.276      4.839
REMARK  6 active torsions:
REMARK  status: ('A' for Active; 'I' for Inactive)
REMARK    1  A    between atoms: O_2  and  C_3 
REMARK    2  A    between atoms: C_6  and  C_7 
REMARK    3  A    between atoms: C_12  and  C_13 
REMARK       I    between atoms: C_13  and  N_14 
REMARK    4  A    between atoms: N_14  and  C_15 
REMARK    5  A    between atoms: C_17  and  O_18 
REMARK    6  A    between atoms: C_24  and  C_25 
ROOT
HETATM    1  C   UNL     1       6.556  26.633  53.422  1.00  0.00     0.118 C 
HETATM    2  N   UNL     1       7.647  27.537  53.790  1.00  0.00    -0.366 N 
HETATM    3  C   UNL     1       7.816  27.997  55.046  1.00  0.00     0.123 C 
HETATM    4  N   UNL     1       7.103  27.477  56.089  1.00  0.00    -0.240 N 
HETATM    5  N   UNL     1       7.230  28.165  57.237  1.00  0.00    -0.165 NA
HETATM    6  C   UNL     1       8.195  29.071  56.948  1.00  0.00     0.148 C 
HETATM    7  C   UNL     1       8.608  28.973  55.588  1.00  0.00     0.089 C 
HETATM    8  C   UNL     1       6.166  26.383  55.938  1.00  0.00     0.221 C 
HETATM    9  C   UNL     1       5.517  26.483  54.554  1.00  0.00     0.066 C 
HETATM   10  H   UNL     1       8.192  27.906  53.011  1.00  0.00     0.161 HD
ENDROOT
BRANCH   6  11
HETATM   11  C   UNL     1       8.664  30.050  57.946  1.00  0.00     0.276 C 
HETATM   12  N   UNL     1       7.838  30.079  59.053  1.00  0.00    -0.322 N 
HETATM   13  H   UNL     1       7.055  29.434  58.986  1.00  0.00     0.169 HD
HETATM   14  O   UNL     1       9.645  30.756  57.743  1.00  0.00    -0.266 OA
BRANCH  12  15
HETATM   15  C   UNL     1       7.914  30.914  60.179  1.00  0.00     0.037 A 
HETATM   16  C   UNL     1       7.041  31.977  60.417  1.00  0.00     0.066 A 
HETATM   17  C   UNL     1       7.192  32.751  61.567  1.00  0.00     0.067 A 
HETATM   18  C   UNL     1       8.193  32.478  62.491  1.00  0.00     0.036 A 
HETATM   19  C   UNL     1       9.067  31.420  62.261  1.00  0.00     0.005 A 
HETATM   20  C   UNL     1       8.932  30.646  61.105  1.00  0.00     0.029 A 
BRANCH  17  21
HETATM   21  O   UNL     1       6.364  33.806  61.823  1.00  0.00    -0.361 OA
HETATM   22  H   UNL     1       6.521  34.489  61.149  1.00  0.00     0.217 HD
ENDBRANCH  17  21
ENDBRANCH  12  15
ENDBRANCH   6  11
BRANCH   8  23
HETATM   23  C   UNL     1       6.866  25.063  56.162  1.00  0.00     0.409 C 
HETATM   24  F   UNL     1       8.198  25.145  55.950  1.00  0.00    -0.169 F 
HETATM   25  F   UNL     1       6.705  24.675  57.454  1.00  0.00    -0.169 F 
HETATM   26  F   UNL     1       6.388  24.058  55.399  1.00  0.00    -0.169 F 
ENDBRANCH   8  23
BRANCH   1  27
HETATM   27  C   UNL     1       5.865  27.151  52.171  1.00  0.00    -0.035 A 
HETATM   28  C   UNL     1       5.700  28.527  51.967  1.00  0.00     0.012 A 
HETATM   29  C   UNL     1       5.143  29.003  50.776  1.00  0.00     0.037 A 
HETATM   30  C   UNL     1       4.758  28.121  49.765  1.00  0.00     0.068 A 
HETATM   31  C   UNL     1       4.885  26.748  49.971  1.00  0.00     0.037 A 
HETATM   32  C   UNL     1       5.437  26.270  51.162  1.00  0.00     0.012 A 
BRANCH  30  33
HETATM   33  O   UNL     1       4.264  28.711  48.634  1.00  0.00    -0.356 OA
HETATM   34  C   UNL     1       3.206  29.643  48.828  1.00  0.00     0.210 C 
ENDBRANCH  30  33
ENDBRANCH   1  27
TORSDOF 6
ENDMDL
MODEL 7
REMARK VINA RESULT:      -9.1      4.460      9.842
REMARK  6 active torsions:
REMARK  status: ('A' for Active; 'I' for Inactive)
REMARK    1  A    between atoms: O_2  and  C_3 
REMARK    2  A    between atoms: C_6  and  C_7 
REMARK    3  A    between atoms: C_12  and  C_13 
REMARK       I    between atoms: C_13  and  N_14 
REMARK    4  A    between atoms: N_14  and  C_15 
REMARK    5  A    between atoms: C_17  and  O_18 
REMARK    6  A    between atoms: C_24  and  C_25 
ROOT
HETATM    1  C   UNL     1       6.796  27.714  56.380  1.00  0.00     0.118 C 
HETATM    2  N   UNL     1       5.748  28.276  55.526  1.00  0.00    -0.366 N 
HETATM    3  C   UNL     1       5.612  27.942  54.228  1.00  0.00     0.123 C 
HETATM    4  N   UNL     1       6.314  26.901  53.691  1.00  0.00    -0.240 N 
HETATM    5  N   UNL     1       6.229  26.814  52.352  1.00  0.00    -0.165 NA
HETATM    6  C   UNL     1       5.300  27.749  52.042  1.00  0.00     0.148 C 
HETATM    7  C   UNL     1       4.867  28.455  53.200  1.00  0.00     0.089 C 
HETATM    8  C   UNL     1       7.204  26.062  54.469  1.00  0.00     0.221 C 
HETATM    9  C   UNL     1       7.841  26.916  55.569  1.00  0.00     0.066 C 
HETATM   10  H   UNL     1       5.210  29.038  55.938  1.00  0.00     0.161 HD
ENDROOT
BRANCH   6  11
HETATM   11  C   UNL     1       4.883  27.997  50.649  1.00  0.00     0.276 C 
HETATM   12  N   UNL     1       3.672  27.394  50.368  1.00  0.00    -0.322 N 
HETATM   13  H   UNL     1       3.285  26.884  51.158  1.00  0.00     0.169 HD
HETATM   14  O   UNL     1       5.587  28.628  49.869  1.00  0.00    -0.266 OA
BRANCH  12  15
HETATM   15  C   UNL     1       2.980  27.348  49.148  1.00  0.00     0.037 A 
HETATM   16  C   UNL     1       3.168  26.353  48.186  1.00  0.00     0.066 A 
HETATM   17  C   UNL     1       2.432  26.389  47.003  1.00  0.00     0.067 A 
HETATM   18  C   UNL     1       1.503  27.393  46.764  1.00  0.00     0.036 A 
HETATM   19  C   UNL     1       1.310  28.388  47.717  1.00  0.00     0.005 A 
HETATM   20  C   UNL     1       2.051  28.369  48.902  1.00  0.00     0.029 A 
BRANCH  17  21
HETATM   21  O   UNL     1       2.601  25.439  46.036  1.00  0.00    -0.361 OA
HETATM   22  H   UNL     1       2.532  25.870  45.168  1.00  0.00     0.217 HD
ENDBRANCH  17  21
ENDBRANCH  12  15
ENDBRANCH   6  11
BRANCH   8  23
HETATM   23  C   UNL     1       6.452  24.870  55.014  1.00  0.00     0.409 C 
HETATM   24  F   UNL     1       7.236  24.073  55.773  1.00  0.00    -0.169 F 
HETATM   25  F   UNL     1       5.443  25.297  55.818  1.00  0.00    -0.169 F 
HETATM   26  F   UNL     1       5.884  24.104  54.060  1.00  0.00    -0.169 F 
ENDBRANCH   8  23
BRANCH   1  27
HETATM   27  C   UNL     1       7.494  28.834  57.135  1.00  0.00    -0.035 A 
HETATM   28  C   UNL     1       8.885  28.981  57.063  1.00  0.00     0.012 A 
HETATM   29  C   UNL     1       9.514  30.063  57.686  1.00  0.00     0.037 A 
HETATM   30  C   UNL     1       8.769  31.022  58.376  1.00  0.00     0.068 A 
HETATM   31  C   UNL     1       7.388  30.867  58.483  1.00  0.00     0.037 A 
HETATM   32  C   UNL     1       6.757  29.783  57.865  1.00  0.00     0.012 A 
BRANCH  30  33
HETATM   33  O   UNL     1       9.495  32.052  58.907  1.00  0.00    -0.356 OA
HETATM   34  C   UNL     1       9.217  32.374  60.266  1.00  0.00     0.210 C 
ENDBRANCH  30  33
ENDBRANCH   1  27
TORSDOF 6
ENDMDL
MODEL 8
REMARK VINA RESULT:      -9.1      2.619      2.987
REMARK  6 active torsions:
REMARK  status: ('A' for Active; 'I' for Inactive)
REMARK    1  A    between atoms: O_2  and  C_3 
REMARK    2  A    between atoms: C_6  and  C_7 
REMARK    3  A    between atoms: C_12  and  C_13 
REMARK       I    between atoms: C_13  and  N_14 
REMARK    4  A    between atoms: N_14  and  C_15 
REMARK    5  A    between atoms: C_17  and  O_18 
REMARK    6  A    between atoms: C_24  and  C_25 
ROOT
HETATM    1  C   UNL     1       6.082  25.449  53.726  1.00  0.00     0.118 C 
HETATM    2  N   UNL     1       5.394  25.930  54.925  1.00  0.00    -0.366 N 
HETATM    3  C   UNL     1       5.536  27.187  55.390  1.00  0.00     0.123 C 
HETATM    4  N   UNL     1       6.165  28.146  54.647  1.00  0.00    -0.240 N 
HETATM    5  N   UNL     1       6.407  29.286  55.315  1.00  0.00    -0.165 NA
HETATM    6  C   UNL     1       5.758  29.099  56.489  1.00  0.00     0.148 C 
HETATM    7  C   UNL     1       5.173  27.802  56.557  1.00  0.00     0.089 C 
HETATM    8  C   UNL     1       6.675  27.904  53.312  1.00  0.00     0.221 C 
HETATM    9  C   UNL     1       7.148  26.450  53.227  1.00  0.00     0.066 C 
HETATM   10  H   UNL     1       4.907  25.216  55.466  1.00  0.00     0.161 HD
ENDROOT
BRANCH   6  11
HETATM   11  C   UNL     1       5.754  30.127  57.547  1.00  0.00     0.276 C 
HETATM   12  N   UNL     1       4.594  30.876  57.521  1.00  0.00    -0.322 N 
HETATM   13  H   UNL     1       3.954  30.598  56.782  1.00  0.00     0.169 HD
HETATM   14  O   UNL     1       6.711  30.281  58.298  1.00  0.00    -0.266 OA
BRANCH  12  15
HETATM   15  C   UNL     1       4.245  31.976  58.320  1.00  0.00     0.037 A 
HETATM   16  C   UNL     1       3.593  31.866  59.549  1.00  0.00     0.066 A 
HETATM   17  C   UNL     1       3.288  33.017  60.275  1.00  0.00     0.067 A 
HETATM   18  C   UNL     1       3.631  34.277  59.802  1.00  0.00     0.036 A 
HETATM   19  C   UNL     1       4.281  34.395  58.577  1.00  0.00     0.005 A 
HETATM   20  C   UNL     1       4.581  33.249  57.836  1.00  0.00     0.029 A 
BRANCH  17  21
HETATM   21  O   UNL     1       2.640  32.945  61.475  1.00  0.00    -0.361 OA
HETATM   22  H   UNL     1       1.965  32.248  61.416  1.00  0.00     0.217 HD
ENDBRANCH  17  21
ENDBRANCH  12  15
ENDBRANCH   6  11
BRANCH   8  23
HETATM   23  C   UNL     1       5.620  28.238  52.284  1.00  0.00     0.409 C 
HETATM   24  F   UNL     1       5.802  29.462  51.740  1.00  0.00    -0.169 F 
HETATM   25  F   UNL     1       5.685  27.348  51.259  1.00  0.00    -0.169 F 
HETATM   26  F   UNL     1       4.359  28.182  52.760  1.00  0.00    -0.169 F 
ENDBRANCH   8  23
BRANCH   1  27
HETATM   27  C   UNL     1       6.746  24.113  54.019  1.00  0.00    -0.035 A 
HETATM   28  C   UNL     1       7.257  23.329  52.978  1.00  0.00     0.012 A 
HETATM   29  C   UNL     1       7.944  22.144  53.258  1.00  0.00     0.037 A 
HETATM   30  C   UNL     1       8.147  21.730  54.576  1.00  0.00     0.068 A 
HETATM   31  C   UNL     1       7.613  22.485  55.619  1.00  0.00     0.037 A 
HETATM   32  C   UNL     1       6.921  23.667  55.341  1.00  0.00     0.012 A 
BRANCH  30  33
HETATM   33  O   UNL     1       8.867  20.577  54.720  1.00  0.00    -0.356 OA
HETATM   34  C   UNL     1       9.382  20.321  56.023  1.00  0.00     0.210 C 
ENDBRANCH  30  33
ENDBRANCH   1  27
TORSDOF 6
ENDMDL
MODEL 9
REMARK VINA RESULT:      -9.0      5.135      9.901
REMARK  6 active torsions:
REMARK  status: ('A' for Active; 'I' for Inactive)
REMARK    1  A    between atoms: O_2  and  C_3 
REMARK    2  A    between atoms: C_6  and  C_7 
REMARK    3  A    between atoms: C_12  and  C_13 
REMARK       I    between atoms: C_13  and  N_14 
REMARK    4  A    between atoms: N_14  and  C_15 
REMARK    5  A    between atoms: C_17  and  O_18 
REMARK    6  A    between atoms: C_24  and  C_25 
ROOT
HETATM    1  C   UNL     1       6.146  26.801  55.432  1.00  0.00     0.118 C 
HETATM    2  N   UNL     1       4.971  27.187  54.651  1.00  0.00    -0.366 N 
HETATM    3  C   UNL     1       4.937  27.115  53.305  1.00  0.00     0.123 C 
HETATM    4  N   UNL     1       5.923  26.476  52.609  1.00  0.00    -0.240 N 
HETATM    5  N   UNL     1       5.860  26.657  51.279  1.00  0.00    -0.165 NA
HETATM    6  C   UNL     1       4.685  27.310  51.112  1.00  0.00     0.148 C 
HETATM    7  C   UNL     1       4.063  27.586  52.362  1.00  0.00     0.089 C 
HETATM    8  C   UNL     1       7.033  25.801  53.250  1.00  0.00     0.221 C 
HETATM    9  C   UNL     1       7.382  26.551  54.539  1.00  0.00     0.066 C 
HETATM   10  H   UNL     1       4.226  27.644  55.177  1.00  0.00     0.161 HD
ENDROOT
BRANCH   6  11
HETATM   11  C   UNL     1       4.204  27.712  49.777  1.00  0.00     0.276 C 
HETATM   12  N   UNL     1       2.827  27.825  49.748  1.00  0.00    -0.322 N 
HETATM   13  H   UNL     1       2.388  27.607  50.639  1.00  0.00     0.169 HD
HETATM   14  O   UNL     1       4.972  27.868  48.835  1.00  0.00    -0.266 OA
BRANCH  12  15
HETATM   15  C   UNL     1       1.996  28.124  48.657  1.00  0.00     0.037 A 
HETATM   16  C   UNL     1       1.656  27.202  47.666  1.00  0.00     0.066 A 
HETATM   17  C   UNL     1       0.820  27.590  46.619  1.00  0.00     0.067 A 
HETATM   18  C   UNL     1       0.309  28.879  46.547  1.00  0.00     0.036 A 
HETATM   19  C   UNL     1       0.644  29.804  47.531  1.00  0.00     0.005 A 
HETATM   20  C   UNL     1       1.491  29.429  48.578  1.00  0.00     0.029 A 
BRANCH  17  21
HETATM   21  O   UNL     1       0.478  26.716  45.627  1.00  0.00    -0.361 OA
HETATM   22  H   UNL     1       1.133  25.998  45.612  1.00  0.00     0.217 HD
ENDBRANCH  17  21
ENDBRANCH  12  15
ENDBRANCH   6  11
BRANCH   8  23
HETATM   23  C   UNL     1       6.691  24.350  53.491  1.00  0.00     0.409 C 
HETATM   24  F   UNL     1       5.621  23.947  52.770  1.00  0.00    -0.169 F 
HETATM   25  F   UNL     1       7.732  23.566  53.106  1.00  0.00    -0.169 F 
HETATM   26  F   UNL     1       6.449  24.056  54.786  1.00  0.00    -0.169 F 
ENDBRANCH   8  23
BRANCH   1  27
HETATM   27  C   UNL     1       6.469  27.890  56.442  1.00  0.00    -0.035 A 
HETATM   28  C   UNL     1       7.585  27.777  57.279  1.00  0.00     0.012 A 
HETATM   29  C   UNL     1       7.929  28.819  58.145  1.00  0.00     0.037 A 
HETATM   30  C   UNL     1       7.177  29.996  58.179  1.00  0.00     0.068 A 
HETATM   31  C   UNL     1       6.044  30.106  57.376  1.00  0.00     0.037 A 
HETATM   32  C   UNL     1       5.696  29.063  56.513  1.00  0.00     0.012 A 
BRANCH  30  33
HETATM   33  O   UNL     1       7.637  30.956  59.037  1.00  0.00    -0.356 OA
HETATM   34  C   UNL     1       8.605  30.529  59.990  1.00  0.00     0.210 C 
ENDBRANCH  30  33
ENDBRANCH   1  27
TORSDOF 6
ENDMDL
MODEL 10
REMARK VINA RESULT:      -8.8      3.178      4.679
REMARK  6 active torsions:
REMARK  status: ('A' for Active; 'I' for Inactive)
REMARK    1  A    between atoms: O_2  and  C_3 
REMARK    2  A    between atoms: C_6  and  C_7 
REMARK    3  A    between atoms: C_12  and  C_13 
REMARK       I    between atoms: C_13  and  N_14 
REMARK    4  A    between atoms: N_14  and  C_15 
REMARK    5  A    between atoms: C_17  and  O_18 
REMARK    6  A    between atoms: C_24  and  C_25 
ROOT
HETATM    1  C   UNL     1       8.258  28.444  55.666  1.00  0.00     0.118 C 
HETATM    2  N   UNL     1       7.220  29.473  55.593  1.00  0.00    -0.366 N 
HETATM    3  C   UNL     1       6.892  30.250  56.644  1.00  0.00     0.123 C 
HETATM    4  N   UNL     1       7.656  30.263  57.776  1.00  0.00    -0.240 N 
HETATM    5  N   UNL     1       7.101  30.926  58.805  1.00  0.00    -0.165 NA
HETATM    6  C   UNL     1       6.004  31.494  58.249  1.00  0.00     0.148 C 
HETATM    7  C   UNL     1       5.860  31.116  56.884  1.00  0.00     0.089 C 
HETATM    8  C   UNL     1       8.878  29.497  57.914  1.00  0.00     0.221 C 
HETATM    9  C   UNL     1       8.732  28.198  57.115  1.00  0.00     0.066 C 
HETATM   10  H   UNL     1       6.665  29.475  54.737  1.00  0.00     0.161 HD
ENDROOT
BRANCH   6  11
HETATM   11  C   UNL     1       5.083  32.336  59.036  1.00  0.00     0.276 C 
HETATM   12  N   UNL     1       5.584  32.593  60.297  1.00  0.00    -0.322 N 
HETATM   13  H   UNL     1       6.487  32.156  60.467  1.00  0.00     0.169 HD
HETATM   14  O   UNL     1       4.000  32.696  58.590  1.00  0.00    -0.266 OA
BRANCH  12  15
HETATM   15  C   UNL     1       4.982  33.297  61.351  1.00  0.00     0.037 A 
HETATM   16  C   UNL     1       3.734  32.973  61.887  1.00  0.00     0.066 A 
HETATM   17  C   UNL     1       3.216  33.731  62.938  1.00  0.00     0.067 A 
HETATM   18  C   UNL     1       3.924  34.800  63.471  1.00  0.00     0.036 A 
HETATM   19  C   UNL     1       5.168  35.129  62.942  1.00  0.00     0.005 A 
HETATM   20  C   UNL     1       5.692  34.384  61.881  1.00  0.00     0.029 A 
BRANCH  17  21
HETATM   21  O   UNL     1       1.993  33.449  63.476  1.00  0.00    -0.361 OA
HETATM   22  H   UNL     1       1.341  33.420  62.756  1.00  0.00     0.217 HD
ENDBRANCH  17  21
ENDBRANCH  12  15
ENDBRANCH   6  11
BRANCH   8  23
HETATM   23  C   UNL     1      10.064  30.324  57.476  1.00  0.00     0.409 C 
HETATM   24  F   UNL     1      10.046  31.568  58.004  1.00  0.00    -0.169 F 
HETATM   25  F   UNL     1      11.212  29.738  57.906  1.00  0.00    -0.169 F 
HETATM   26  F   UNL     1      10.175  30.446  56.137  1.00  0.00    -0.169 F 
ENDBRANCH   8  23
BRANCH   1  27
HETATM   27  C   UNL     1       7.729  27.143  55.084  1.00  0.00    -0.035 A 
HETATM   28  C   UNL     1       7.516  27.015  53.706  1.00  0.00     0.012 A 
HETATM   29  C   UNL     1       7.114  25.791  53.163  1.00  0.00     0.037 A 
HETATM   30  C   UNL     1       6.933  24.673  53.980  1.00  0.00     0.068 A 
HETATM   31  C   UNL     1       7.107  24.798  55.357  1.00  0.00     0.037 A 
HETATM   32  C   UNL     1       7.505  26.022  55.902  1.00  0.00     0.012 A 
BRANCH  30  33
HETATM   33  O   UNL     1       6.577  23.525  53.327  1.00  0.00    -0.356 OA
HETATM   34  C   UNL     1       7.618  22.576  53.121  1.00  0.00     0.210 C 
ENDBRANCH  30  33
ENDBRANCH   1  27
TORSDOF 6
ENDMDL
