MODEL 1
REMARK VINA RESULT:      -9.1      0.000      0.000
REMARK  5 active torsions:
REMARK  status: ('A' for Active; 'I' for Inactive)
REMARK    1  A    between atoms: C_2  and  O_3 
REMARK    2  A    between atoms: O_3  and  C_4 
REMARK    3  A    between atoms: C_4  and  C_5 
REMARK    4  A    between atoms: C_6  and  N_7 
REMARK    5  A    between atoms: N_8  and  C_9 
ROOT
HETATM    1  C   UNL     1       7.612  27.436  55.908  1.00  0.00     0.084 A 
HETATM    2  C   UNL     1       7.312  27.241  54.528  1.00  0.00     0.119 A 
HETATM    3  N   UNL     1       7.305  25.956  54.029  1.00  0.00    -0.312 N 
HETATM    4  C   UNL     1       7.643  24.899  54.838  1.00  0.00     0.150 A 
HETATM    5  C   UNL     1       7.963  25.095  56.173  1.00  0.00     0.080 A 
HETATM    6  C   UNL     1       8.317  23.923  56.987  1.00  0.00     0.267 A 
HETATM    7  O   UNL     1       8.610  24.111  58.164  1.00  0.00    -0.267 OA
HETATM    8  N   UNL     1       8.292  22.688  56.346  1.00  0.00    -0.272 N 
HETATM    9  C   UNL     1       7.955  22.594  54.998  1.00  0.00     0.145 A 
HETATM   10  N   UNL     1       7.650  23.625  54.269  1.00  0.00    -0.211 NA
HETATM   11  C   UNL     1       8.613  21.555  57.084  1.00  0.00     0.102 A 
HETATM   12  C   UNL     1       8.613  20.334  56.538  1.00  0.00     0.018 A 
HETATM   13  C   UNL     1       8.272  20.169  55.152  1.00  0.00     0.012 A 
HETATM   14  C   UNL     1       7.953  21.222  54.383  1.00  0.00    -0.015 A 
HETATM   15  C   UNL     1       7.592  21.097  52.936  1.00  0.00     0.052 C 
HETATM   16  C   UNL     1       7.948  26.363  56.725  1.00  0.00     0.042 A 
ENDROOT
BRANCH   1  17
HETATM   17  C   UNL     1       7.629  28.814  56.466  1.00  0.00     0.297 C 
HETATM   18  O   UNL     1       6.672  29.566  56.384  1.00  0.00    -0.259 OA
BRANCH  17  19
HETATM   19  O   UNL     1       8.811  29.058  57.072  1.00  0.00    -0.318 OA
BRANCH  19  20
HETATM   20  C   UNL     1       9.834  29.658  56.255  1.00  0.00     0.174 C 
HETATM   21  C   UNL     1      11.145  29.677  57.015  1.00  0.00     0.034 C 
ENDBRANCH  19  20
ENDBRANCH  17  19
ENDBRANCH   1  17
BRANCH   2  22
HETATM   22  N   UNL     1       6.911  28.334  53.760  1.00  0.00    -0.384 N 
HETATM   23  H   UNL     1       7.679  28.963  53.485  1.00  0.00     0.157 HD
HETATM   24  H   UNL     1       6.194  28.301  53.055  1.00  0.00     0.157 HD
ENDBRANCH   2  22
BRANCH   3  25
HETATM   25  C   UNL     1       6.923  25.648  52.597  1.00  0.00     0.085 C 
HETATM   26  C   UNL     1       8.001  24.840  51.882  1.00  0.00     0.032 C 
HETATM   27  C   UNL     1       5.511  25.082  52.517  1.00  0.00     0.032 C 
ENDBRANCH   3  25
TORSDOF 5
ENDMDL
MODEL 2
REMARK VINA RESULT:      -8.2      1.604      2.179
REMARK  5 active torsions:
REMARK  status: ('A' for Active; 'I' for Inactive)
REMARK    1  A    between atoms: C_2  and  O_3 
REMARK    2  A    between atoms: O_3  and  C_4 
REMARK    3  A    between atoms: C_4  and  C_5 
REMARK    4  A    between atoms: C_6  and  N_7 
REMARK    5  A    between atoms: N_8  and  C_9 
ROOT
HETATM    1  C   UNL     1       7.376  28.548  57.356  1.00  0.00     0.084 A 
HETATM    2  C   UNL     1       6.751  28.702  56.084  1.00  0.00     0.119 A 
HETATM    3  N   UNL     1       6.627  27.595  55.271  1.00  0.00    -0.312 N 
HETATM    4  C   UNL     1       7.154  26.389  55.662  1.00  0.00     0.150 A 
HETATM    5  C   UNL     1       7.787  26.249  56.887  1.00  0.00     0.080 A 
HETATM    6  C   UNL     1       8.331  24.932  57.248  1.00  0.00     0.267 A 
HETATM    7  O   UNL     1       8.899  24.824  58.330  1.00  0.00    -0.267 OA
HETATM    8  N   UNL     1       8.155  23.910  56.320  1.00  0.00    -0.272 N 
HETATM    9  C   UNL     1       7.502  24.150  55.114  1.00  0.00     0.145 A 
HETATM   10  N   UNL     1       7.026  25.313  54.783  1.00  0.00    -0.211 NA
HETATM   11  C   UNL     1       8.649  22.647  56.627  1.00  0.00     0.102 A 
HETATM   12  C   UNL     1       8.519  21.616  55.786  1.00  0.00     0.018 A 
HETATM   13  C   UNL     1       7.854  21.797  54.526  1.00  0.00     0.012 A 
HETATM   14  C   UNL     1       7.355  22.991  54.167  1.00  0.00    -0.015 A 
HETATM   15  C   UNL     1       6.654  23.225  52.866  1.00  0.00     0.052 C 
HETATM   16  C   UNL     1       7.902  27.324  57.750  1.00  0.00     0.042 A 
ENDROOT
BRANCH   1  17
HETATM   17  C   UNL     1       7.524  29.730  58.247  1.00  0.00     0.297 C 
HETATM   18  O   UNL     1       6.611  30.511  58.454  1.00  0.00    -0.259 OA
BRANCH  17  19
HETATM   19  O   UNL     1       8.765  29.762  58.778  1.00  0.00    -0.318 OA
BRANCH  19  20
HETATM   20  C   UNL     1       9.630  30.814  58.312  1.00  0.00     0.174 C 
HETATM   21  C   UNL     1      10.656  30.241  57.354  1.00  0.00     0.034 C 
ENDBRANCH  19  20
ENDBRANCH  17  19
ENDBRANCH   1  17
BRANCH   2  22
HETATM   22  N   UNL     1       6.173  29.928  55.756  1.00  0.00    -0.384 N 
HETATM   23  H   UNL     1       5.204  30.043  56.088  1.00  0.00     0.157 HD
HETATM   24  H   UNL     1       6.666  30.806  55.753  1.00  0.00     0.157 HD
ENDBRANCH   2  22
BRANCH   3  25
HETATM   25  C   UNL     1       5.911  27.649  53.938  1.00  0.00     0.085 C 
HETATM   26  C   UNL     1       4.428  27.965  54.103  1.00  0.00     0.032 C 
HETATM   27  C   UNL     1       6.667  28.523  52.946  1.00  0.00     0.032 C 
ENDBRANCH   3  25
TORSDOF 5
ENDMDL
MODEL 3
REMARK VINA RESULT:      -8.2      2.008      6.306
REMARK  5 active torsions:
REMARK  status: ('A' for Active; 'I' for Inactive)
REMARK    1  A    between atoms: C_2  and  O_3 
REMARK    2  A    between atoms: O_3  and  C_4 
REMARK    3  A    between atoms: C_4  and  C_5 
REMARK    4  A    between atoms: C_6  and  N_7 
REMARK    5  A    between atoms: N_8  and  C_9 
ROOT
HETATM    1  C   UNL     1       8.044  24.244  55.541  1.00  0.00     0.084 A 
HETATM    2  C   UNL     1       7.235  24.326  54.370  1.00  0.00     0.119 A 
HETATM    3  N   UNL     1       6.529  25.487  54.136  1.00  0.00    -0.312 N 
HETATM    4  C   UNL     1       6.562  26.512  55.049  1.00  0.00     0.150 A 
HETATM    5  C   UNL     1       7.326  26.417  56.202  1.00  0.00     0.080 A 
HETATM    6  C   UNL     1       7.319  27.547  57.141  1.00  0.00     0.267 A 
HETATM    7  O   UNL     1       7.990  27.446  58.164  1.00  0.00    -0.267 OA
HETATM    8  N   UNL     1       6.541  28.646  56.789  1.00  0.00    -0.272 N 
HETATM    9  C   UNL     1       5.808  28.647  55.606  1.00  0.00     0.145 A 
HETATM   10  N   UNL     1       5.801  27.648  54.774  1.00  0.00    -0.211 NA
HETATM   11  C   UNL     1       6.514  29.738  57.648  1.00  0.00     0.102 A 
HETATM   12  C   UNL     1       5.790  30.830  57.378  1.00  0.00     0.018 A 
HETATM   13  C   UNL     1       5.012  30.894  56.172  1.00  0.00     0.012 A 
HETATM   14  C   UNL     1       4.993  29.873  55.300  1.00  0.00    -0.015 A 
HETATM   15  C   UNL     1       4.199  29.897  54.032  1.00  0.00     0.052 C 
HETATM   16  C   UNL     1       8.079  25.285  56.460  1.00  0.00     0.042 A 
ENDROOT
BRANCH   1  17
HETATM   17  C   UNL     1       8.810  22.999  55.815  1.00  0.00     0.297 C 
HETATM   18  O   UNL     1       9.729  22.626  55.105  1.00  0.00    -0.259 OA
BRANCH  17  19
HETATM   19  O   UNL     1       8.355  22.409  56.942  1.00  0.00    -0.318 OA
BRANCH  19  20
HETATM   20  C   UNL     1       8.462  20.975  56.997  1.00  0.00     0.174 C 
HETATM   21  C   UNL     1       7.531  20.357  55.973  1.00  0.00     0.034 C 
ENDBRANCH  19  20
ENDBRANCH  17  19
ENDBRANCH   1  17
BRANCH   2  22
HETATM   22  N   UNL     1       7.283  23.289  53.438  1.00  0.00    -0.384 N 
HETATM   23  H   UNL     1       6.448  22.685  53.433  1.00  0.00     0.157 HD
HETATM   24  H   UNL     1       7.683  23.370  52.518  1.00  0.00     0.157 HD
ENDBRANCH   2  22
BRANCH   3  25
HETATM   25  C   UNL     1       5.706  25.692  52.882  1.00  0.00     0.085 C 
HETATM   26  C   UNL     1       6.573  25.691  51.627  1.00  0.00     0.032 C 
HETATM   27  C   UNL     1       4.505  24.755  52.857  1.00  0.00     0.032 C 
ENDBRANCH   3  25
TORSDOF 5
ENDMDL
MODEL 4
REMARK VINA RESULT:      -8.1      1.458      2.199
REMARK  5 active torsions:
REMARK  status: ('A' for Active; 'I' for Inactive)
REMARK    1  A    between atoms: C_2  and  O_3 
REMARK    2  A    between atoms: O_3  and  C_4 
REMARK    3  A    between atoms: C_4  and  C_5 
REMARK    4  A    between atoms: C_6  and  N_7 
REMARK    5  A    between atoms: N_8  and  C_9 
ROOT
HETATM    1  C   UNL     1       6.737  27.000  55.853  1.00  0.00     0.084 A 
HETATM    2  C   UNL     1       6.312  26.721  54.521  1.00  0.00     0.119 A 
HETATM    3  N   UNL     1       6.488  25.446  54.026  1.00  0.00    -0.312 N 
HETATM    4  C   UNL     1       7.116  24.490  54.786  1.00  0.00     0.150 A 
HETATM    5  C   UNL     1       7.554  24.773  56.070  1.00  0.00     0.080 A 
HETATM    6  C   UNL     1       8.220  23.708  56.833  1.00  0.00     0.267 A 
HETATM    7  O   UNL     1       8.615  23.974  57.964  1.00  0.00    -0.267 OA
HETATM    8  N   UNL     1       8.351  22.476  56.199  1.00  0.00    -0.272 N 
HETATM    9  C   UNL     1       7.876  22.290  54.904  1.00  0.00     0.145 A 
HETATM   10  N   UNL     1       7.294  23.228  54.219  1.00  0.00    -0.211 NA
HETATM   11  C   UNL     1       8.970  21.441  56.890  1.00  0.00     0.102 A 
HETATM   12  C   UNL     1       9.133  20.230  56.347  1.00  0.00     0.018 A 
HETATM   13  C   UNL     1       8.663  19.972  55.015  1.00  0.00     0.012 A 
HETATM   14  C   UNL     1       8.059  20.929  54.292  1.00  0.00    -0.015 A 
HETATM   15  C   UNL     1       7.552  20.704  52.902  1.00  0.00     0.052 C 
HETATM   16  C   UNL     1       7.367  26.029  56.621  1.00  0.00     0.042 A 
ENDROOT
BRANCH   1  17
HETATM   17  C   UNL     1       6.561  28.370  56.406  1.00  0.00     0.297 C 
HETATM   18  O   UNL     1       7.367  29.264  56.207  1.00  0.00    -0.259 OA
BRANCH  17  19
HETATM   19  O   UNL     1       5.403  28.450  57.096  1.00  0.00    -0.318 OA
BRANCH  19  20
HETATM   20  C   UNL     1       4.916  29.776  57.370  1.00  0.00     0.174 C 
HETATM   21  C   UNL     1       3.640  30.020  56.588  1.00  0.00     0.034 C 
ENDBRANCH  19  20
ENDBRANCH  17  19
ENDBRANCH   1  17
BRANCH   2  22
HETATM   22  N   UNL     1       5.621  27.702  53.810  1.00  0.00    -0.384 N 
HETATM   23  H   UNL     1       5.914  28.666  54.023  1.00  0.00     0.157 HD
HETATM   24  H   UNL     1       5.331  27.610  52.851  1.00  0.00     0.157 HD
ENDBRANCH   2  22
BRANCH   3  25
HETATM   25  C   UNL     1       5.998  25.040  52.652  1.00  0.00     0.085 C 
HETATM   26  C   UNL     1       4.486  24.848  52.622  1.00  0.00     0.032 C 
HETATM   27  C   UNL     1       6.571  25.953  51.576  1.00  0.00     0.032 C 
ENDBRANCH   3  25
TORSDOF 5
ENDMDL
MODEL 5
REMARK VINA RESULT:      -8.1      5.992      9.742
REMARK  5 active torsions:
REMARK  status: ('A' for Active; 'I' for Inactive)
REMARK    1  A    between atoms: C_2  and  O_3 
REMARK    2  A    between atoms: O_3  and  C_4 
REMARK    3  A    between atoms: C_4  and  C_5 
REMARK    4  A    between atoms: C_6  and  N_7 
REMARK    5  A    between atoms: N_8  and  C_9 
ROOT
HETATM    1  C   UNL     1       7.799  30.104  58.425  1.00  0.00     0.084 A 
HETATM    2  C   UNL     1       6.600  30.747  58.001  1.00  0.00     0.119 A 
HETATM    3  N   UNL     1       6.017  31.676  58.837  1.00  0.00    -0.312 N 
HETATM    4  C   UNL     1       6.555  31.923  60.076  1.00  0.00     0.150 A 
HETATM    5  C   UNL     1       7.706  31.274  60.498  1.00  0.00     0.080 A 
HETATM    6  C   UNL     1       8.232  31.580  61.835  1.00  0.00     0.267 A 
HETATM    7  O   UNL     1       9.244  30.991  62.201  1.00  0.00    -0.267 OA
HETATM    8  N   UNL     1       7.528  32.521  62.581  1.00  0.00    -0.272 N 
HETATM    9  C   UNL     1       6.381  33.120  62.069  1.00  0.00     0.145 A 
HETATM   10  N   UNL     1       5.904  32.849  60.891  1.00  0.00    -0.211 NA
HETATM   11  C   UNL     1       7.998  32.844  63.849  1.00  0.00     0.102 A 
HETATM   12  C   UNL     1       7.376  33.737  64.626  1.00  0.00     0.018 A 
HETATM   13  C   UNL     1       6.187  34.392  64.154  1.00  0.00     0.012 A 
HETATM   14  C   UNL     1       5.680  34.125  62.940  1.00  0.00    -0.015 A 
HETATM   15  C   UNL     1       4.446  34.784  62.408  1.00  0.00     0.052 C 
HETATM   16  C   UNL     1       8.344  30.361  59.677  1.00  0.00     0.042 A 
ENDROOT
BRANCH   1  17
HETATM   17  C   UNL     1       8.441  29.096  57.540  1.00  0.00     0.297 C 
HETATM   18  O   UNL     1       8.390  27.899  57.766  1.00  0.00    -0.259 OA
BRANCH  17  19
HETATM   19  O   UNL     1       9.028  29.706  56.487  1.00  0.00    -0.318 OA
BRANCH  19  20
HETATM   20  C   UNL     1      10.416  29.394  56.263  1.00  0.00     0.174 C 
HETATM   21  C   UNL     1      11.263  30.057  57.331  1.00  0.00     0.034 C 
ENDBRANCH  19  20
ENDBRANCH  17  19
ENDBRANCH   1  17
BRANCH   2  22
HETATM   22  N   UNL     1       6.126  30.515  56.710  1.00  0.00    -0.384 N 
HETATM   23  H   UNL     1       6.748  29.936  56.127  1.00  0.00     0.157 HD
HETATM   24  H   UNL     1       5.158  30.361  56.479  1.00  0.00     0.157 HD
ENDBRANCH   2  22
BRANCH   3  25
HETATM   25  C   UNL     1       4.787  32.462  58.438  1.00  0.00     0.085 C 
HETATM   26  C   UNL     1       5.060  33.382  57.253  1.00  0.00     0.032 C 
HETATM   27  C   UNL     1       3.575  31.548  58.300  1.00  0.00     0.032 C 
ENDBRANCH   3  25
TORSDOF 5
ENDMDL
MODEL 6
REMARK VINA RESULT:      -8.0      7.487     11.057
REMARK  5 active torsions:
REMARK  status: ('A' for Active; 'I' for Inactive)
REMARK    1  A    between atoms: C_2  and  O_3 
REMARK    2  A    between atoms: O_3  and  C_4 
REMARK    3  A    between atoms: C_4  and  C_5 
REMARK    4  A    between atoms: C_6  and  N_7 
REMARK    5  A    between atoms: N_8  and  C_9 
ROOT
HETATM    1  C   UNL     1       7.931  32.010  59.887  1.00  0.00     0.084 A 
HETATM    2  C   UNL     1       6.642  32.068  59.280  1.00  0.00     0.119 A 
HETATM    3  N   UNL     1       5.578  32.518  60.032  1.00  0.00    -0.312 N 
HETATM    4  C   UNL     1       5.755  32.842  61.355  1.00  0.00     0.150 A 
HETATM    5  C   UNL     1       7.004  32.756  61.950  1.00  0.00     0.080 A 
HETATM    6  C   UNL     1       7.130  33.114  63.370  1.00  0.00     0.267 A 
HETATM    7  O   UNL     1       8.238  33.023  63.888  1.00  0.00    -0.267 OA
HETATM    8  N   UNL     1       5.967  33.529  64.013  1.00  0.00    -0.272 N 
HETATM    9  C   UNL     1       4.757  33.584  63.327  1.00  0.00     0.145 A 
HETATM   10  N   UNL     1       4.636  33.260  62.074  1.00  0.00    -0.211 NA
HETATM   11  C   UNL     1       6.045  33.885  65.354  1.00  0.00     0.102 A 
HETATM   12  C   UNL     1       4.972  34.292  66.040  1.00  0.00     0.018 A 
HETATM   13  C   UNL     1       3.694  34.372  65.389  1.00  0.00     0.012 A 
HETATM   14  C   UNL     1       3.549  34.042  64.096  1.00  0.00    -0.015 A 
HETATM   15  C   UNL     1       2.238  34.111  63.377  1.00  0.00     0.052 C 
HETATM   16  C   UNL     1       8.107  32.343  61.224  1.00  0.00     0.042 A 
ENDROOT
BRANCH   1  17
HETATM   17  C   UNL     1       9.091  31.523  59.094  1.00  0.00     0.297 C 
HETATM   18  O   UNL     1       9.998  32.259  58.741  1.00  0.00    -0.259 OA
BRANCH  17  19
HETATM   19  O   UNL     1       8.984  30.194  58.877  1.00  0.00    -0.318 OA
BRANCH  19  20
HETATM   20  C   UNL     1       9.479  29.713  57.614  1.00  0.00     0.174 C 
HETATM   21  C   UNL     1       8.751  28.438  57.236  1.00  0.00     0.034 C 
ENDBRANCH  19  20
ENDBRANCH  17  19
ENDBRANCH   1  17
BRANCH   2  22
HETATM   22  N   UNL     1       6.520  31.794  57.918  1.00  0.00    -0.384 N 
HETATM   23  H   UNL     1       5.548  31.743  57.580  1.00  0.00     0.157 HD
HETATM   24  H   UNL     1       7.136  32.154  57.208  1.00  0.00     0.157 HD
ENDBRANCH   2  22
BRANCH   3  25
HETATM   25  C   UNL     1       4.191  32.686  59.450  1.00  0.00     0.085 C 
HETATM   26  C   UNL     1       4.128  33.841  58.456  1.00  0.00     0.032 C 
HETATM   27  C   UNL     1       3.643  31.354  58.952  1.00  0.00     0.032 C 
ENDBRANCH   3  25
TORSDOF 5
ENDMDL
MODEL 7
REMARK VINA RESULT:      -7.8      3.159      7.239
REMARK  5 active torsions:
REMARK  status: ('A' for Active; 'I' for Inactive)
REMARK    1  A    between atoms: C_2  and  O_3 
REMARK    2  A    between atoms: O_3  and  C_4 
REMARK    3  A    between atoms: C_4  and  C_5 
REMARK    4  A    between atoms: C_6  and  N_7 
REMARK    5  A    between atoms: N_8  and  C_9 
ROOT
HETATM    1  C   UNL     1       7.186  23.764  53.969  1.00  0.00     0.084 A 
HETATM    2  C   UNL     1       7.038  24.360  55.256  1.00  0.00     0.119 A 
HETATM    3  N   UNL     1       6.322  25.533  55.362  1.00  0.00    -0.312 N 
HETATM    4  C   UNL     1       5.820  26.140  54.237  1.00  0.00     0.150 A 
HETATM    5  C   UNL     1       5.990  25.574  52.983  1.00  0.00     0.080 A 
HETATM    6  C   UNL     1       5.430  26.272  51.818  1.00  0.00     0.267 A 
HETATM    7  O   UNL     1       5.598  25.767  50.712  1.00  0.00    -0.267 OA
HETATM    8  N   UNL     1       4.752  27.461  52.070  1.00  0.00    -0.272 N 
HETATM    9  C   UNL     1       4.632  27.948  53.368  1.00  0.00     0.145 A 
HETATM   10  N   UNL     1       5.132  27.342  54.404  1.00  0.00    -0.211 NA
HETATM   11  C   UNL     1       4.201  28.147  50.995  1.00  0.00     0.102 A 
HETATM   12  C   UNL     1       3.536  29.296  51.157  1.00  0.00     0.018 A 
HETATM   13  C   UNL     1       3.376  29.852  52.473  1.00  0.00     0.012 A 
HETATM   14  C   UNL     1       3.885  29.240  53.553  1.00  0.00    -0.015 A 
HETATM   15  C   UNL     1       3.741  29.781  54.941  1.00  0.00     0.052 C 
HETATM   16  C   UNL     1       6.671  24.378  52.834  1.00  0.00     0.042 A 
ENDROOT
BRANCH   1  17
HETATM   17  C   UNL     1       7.958  22.501  53.831  1.00  0.00     0.297 C 
HETATM   18  O   UNL     1       8.964  22.419  53.146  1.00  0.00    -0.259 OA
BRANCH  17  19
HETATM   19  O   UNL     1       7.398  21.528  54.582  1.00  0.00    -0.318 OA
BRANCH  19  20
HETATM   20  C   UNL     1       8.179  20.331  54.758  1.00  0.00     0.174 C 
HETATM   21  C   UNL     1       8.860  20.364  56.112  1.00  0.00     0.034 C 
ENDBRANCH  19  20
ENDBRANCH  17  19
ENDBRANCH   1  17
BRANCH   2  22
HETATM   22  N   UNL     1       7.507  23.676  56.377  1.00  0.00    -0.384 N 
HETATM   23  H   UNL     1       7.395  22.653  56.328  1.00  0.00     0.157 HD
HETATM   24  H   UNL     1       8.334  23.930  56.893  1.00  0.00     0.157 HD
ENDBRANCH   2  22
BRANCH   3  25
HETATM   25  C   UNL     1       6.050  26.194  56.696  1.00  0.00     0.085 C 
HETATM   26  C   UNL     1       4.947  25.480  57.470  1.00  0.00     0.032 C 
HETATM   27  C   UNL     1       7.345  26.435  57.462  1.00  0.00     0.032 C 
ENDBRANCH   3  25
TORSDOF 5
ENDMDL
MODEL 8
REMARK VINA RESULT:      -7.6      2.919      5.016
REMARK  5 active torsions:
REMARK  status: ('A' for Active; 'I' for Inactive)
REMARK    1  A    between atoms: C_2  and  O_3 
REMARK    2  A    between atoms: O_3  and  C_4 
REMARK    3  A    between atoms: C_4  and  C_5 
REMARK    4  A    between atoms: C_6  and  N_7 
REMARK    5  A    between atoms: N_8  and  C_9 
ROOT
HETATM    1  C   UNL     1       5.851  28.204  52.491  1.00  0.00     0.084 A 
HETATM    2  C   UNL     1       5.856  28.575  53.867  1.00  0.00     0.119 A 
HETATM    3  N   UNL     1       6.431  27.717  54.780  1.00  0.00    -0.312 N 
HETATM    4  C   UNL     1       6.931  26.505  54.370  1.00  0.00     0.150 A 
HETATM    5  C   UNL     1       6.898  26.135  53.034  1.00  0.00     0.080 A 
HETATM    6  C   UNL     1       7.447  24.825  52.658  1.00  0.00     0.267 A 
HETATM    7  O   UNL     1       7.402  24.503  51.475  1.00  0.00    -0.267 OA
HETATM    8  N   UNL     1       7.975  24.051  53.688  1.00  0.00    -0.272 N 
HETATM    9  C   UNL     1       7.963  24.513  55.001  1.00  0.00     0.145 A 
HETATM   10  N   UNL     1       7.472  25.666  55.344  1.00  0.00    -0.211 NA
HETATM   11  C   UNL     1       8.511  22.808  53.371  1.00  0.00     0.102 A 
HETATM   12  C   UNL     1       9.035  22.008  54.306  1.00  0.00     0.018 A 
HETATM   13  C   UNL     1       9.055  22.427  55.680  1.00  0.00     0.012 A 
HETATM   14  C   UNL     1       8.552  23.615  56.053  1.00  0.00    -0.015 A 
HETATM   15  C   UNL     1       8.553  24.092  57.471  1.00  0.00     0.052 C 
HETATM   16  C   UNL     1       6.362  26.980  52.079  1.00  0.00     0.042 A 
ENDROOT
BRANCH   1  17
HETATM   17  C   UNL     1       5.231  29.113  51.490  1.00  0.00     0.297 C 
HETATM   18  O   UNL     1       5.873  29.955  50.885  1.00  0.00    -0.259 OA
BRANCH  17  19
HETATM   19  O   UNL     1       3.917  28.832  51.355  1.00  0.00    -0.318 OA
BRANCH  19  20
HETATM   20  C   UNL     1       3.394  28.860  50.014  1.00  0.00     0.174 C 
HETATM   21  C   UNL     1       3.767  27.578  49.297  1.00  0.00     0.034 C 
ENDBRANCH  19  20
ENDBRANCH  17  19
ENDBRANCH   1  17
BRANCH   2  22
HETATM   22  N   UNL     1       5.398  29.842  54.230  1.00  0.00    -0.384 N 
HETATM   23  H   UNL     1       4.534  30.134  53.750  1.00  0.00     0.157 HD
HETATM   24  H   UNL     1       5.444  30.217  55.162  1.00  0.00     0.157 HD
ENDBRANCH   2  22
BRANCH   3  25
HETATM   25  C   UNL     1       6.550  28.063  56.249  1.00  0.00     0.085 C 
HETATM   26  C   UNL     1       7.458  29.266  56.478  1.00  0.00     0.032 C 
HETATM   27  C   UNL     1       5.177  28.137  56.905  1.00  0.00     0.032 C 
ENDBRANCH   3  25
TORSDOF 5
ENDMDL
MODEL 9
REMARK VINA RESULT:      -7.5      2.765      6.625
REMARK  5 active torsions:
REMARK  status: ('A' for Active; 'I' for Inactive)
REMARK    1  A    between atoms: C_2  and  O_3 
REMARK    2  A    between atoms: O_3  and  C_4 
REMARK    3  A    between atoms: C_4  and  C_5 
REMARK    4  A    between atoms: C_6  and  N_7 
REMARK    5  A    between atoms: N_8  and  C_9 
ROOT
HETATM    1  C   UNL     1       7.109  25.710  53.770  1.00  0.00     0.084 A 
HETATM    2  C   UNL     1       6.156  26.540  53.110  1.00  0.00     0.119 A 
HETATM    3  N   UNL     1       5.831  27.753  53.679  1.00  0.00    -0.312 N 
HETATM    4  C   UNL     1       6.374  28.116  54.887  1.00  0.00     0.150 A 
HETATM    5  C   UNL     1       7.278  27.294  55.541  1.00  0.00     0.080 A 
HETATM    6  C   UNL     1       7.823  27.738  56.831  1.00  0.00     0.267 A 
HETATM    7  O   UNL     1       8.613  26.996  57.406  1.00  0.00    -0.267 OA
HETATM    8  N   UNL     1       7.389  28.975  57.298  1.00  0.00    -0.272 N 
HETATM    9  C   UNL     1       6.476  29.730  56.567  1.00  0.00     0.145 A 
HETATM   10  N   UNL     1       5.983  29.341  55.429  1.00  0.00    -0.211 NA
HETATM   11  C   UNL     1       7.887  29.434  58.512  1.00  0.00     0.102 A 
HETATM   12  C   UNL     1       7.516  30.612  59.027  1.00  0.00     0.018 A 
HETATM   13  C   UNL     1       6.579  31.439  58.319  1.00  0.00     0.012 A 
HETATM   14  C   UNL     1       6.059  31.055  57.143  1.00  0.00    -0.015 A 
HETATM   15  C   UNL     1       5.081  31.885  56.372  1.00  0.00     0.052 C 
HETATM   16  C   UNL     1       7.660  26.084  54.989  1.00  0.00     0.042 A 
ENDROOT
BRANCH   1  17
HETATM   17  C   UNL     1       7.470  24.395  53.176  1.00  0.00     0.297 C 
HETATM   18  O   UNL     1       7.984  24.293  52.075  1.00  0.00    -0.259 OA
BRANCH  17  19
HETATM   19  O   UNL     1       7.175  23.397  54.036  1.00  0.00    -0.318 OA
BRANCH  19  20
HETATM   20  C   UNL     1       8.191  22.394  54.221  1.00  0.00     0.174 C 
HETATM   21  C   UNL     1       7.845  21.164  53.405  1.00  0.00     0.034 C 
ENDBRANCH  19  20
ENDBRANCH  17  19
ENDBRANCH   1  17
BRANCH   2  22
HETATM   22  N   UNL     1       5.681  26.161  51.855  1.00  0.00    -0.384 N 
HETATM   23  H   UNL     1       5.149  26.895  51.364  1.00  0.00     0.157 HD
HETATM   24  H   UNL     1       6.186  25.579  51.208  1.00  0.00     0.157 HD
ENDBRANCH   2  22
BRANCH   3  25
HETATM   25  C   UNL     1       4.889  28.731  53.011  1.00  0.00     0.085 C 
HETATM   26  C   UNL     1       5.404  29.175  51.647  1.00  0.00     0.032 C 
HETATM   27  C   UNL     1       3.455  28.215  53.041  1.00  0.00     0.032 C 
ENDBRANCH   3  25
TORSDOF 5
ENDMDL
MODEL 10
REMARK VINA RESULT:      -7.4      8.821     11.624
REMARK  5 active torsions:
REMARK  status: ('A' for Active; 'I' for Inactive)
REMARK    1  A    between atoms: C_2  and  O_3 
REMARK    2  A    between atoms: O_3  and  C_4 
REMARK    3  A    between atoms: C_4  and  C_5 
REMARK    4  A    between atoms: C_6  and  N_7 
REMARK    5  A    between atoms: N_8  and  C_9 
ROOT
HETATM    1  C   UNL     1       4.458  33.941  64.538  1.00  0.00     0.084 A 
HETATM    2  C   UNL     1       3.525  33.881  63.462  1.00  0.00     0.119 A 
HETATM    3  N   UNL     1       3.954  33.404  62.241  1.00  0.00    -0.312 N 
HETATM    4  C   UNL     1       5.271  33.055  62.061  1.00  0.00     0.150 A 
HETATM    5  C   UNL     1       6.182  33.143  63.101  1.00  0.00     0.080 A 
HETATM    6  C   UNL     1       7.576  32.756  62.845  1.00  0.00     0.267 A 
HETATM    7  O   UNL     1       8.376  32.849  63.770  1.00  0.00    -0.267 OA
HETATM    8  N   UNL     1       7.874  32.316  61.558  1.00  0.00    -0.272 N 
HETATM    9  C   UNL     1       6.887  32.262  60.579  1.00  0.00     0.145 A 
HETATM   10  N   UNL     1       5.653  32.610  60.795  1.00  0.00    -0.211 NA
HETATM   11  C   UNL     1       9.181  31.934  61.278  1.00  0.00     0.102 A 
HETATM   12  C   UNL     1       9.544  31.501  60.066  1.00  0.00     0.018 A 
HETATM   13  C   UNL     1       8.571  31.421  59.012  1.00  0.00     0.012 A 
HETATM   14  C   UNL     1       7.293  31.775  59.216  1.00  0.00    -0.015 A 
HETATM   15  C   UNL     1       6.246  31.707  58.149  1.00  0.00     0.052 C 
HETATM   16  C   UNL     1       5.787  33.582  64.352  1.00  0.00     0.042 A 
ENDROOT
BRANCH   1  17
HETATM   17  C   UNL     1       4.016  34.457  65.861  1.00  0.00     0.297 C 
HETATM   18  O   UNL     1       3.285  35.426  65.975  1.00  0.00    -0.259 OA
BRANCH  17  19
HETATM   19  O   UNL     1       4.513  33.685  66.852  1.00  0.00    -0.318 OA
BRANCH  19  20
HETATM   20  C   UNL     1       5.052  34.380  67.992  1.00  0.00     0.174 C 
HETATM   21  C   UNL     1       6.565  34.386  67.914  1.00  0.00     0.034 C 
ENDBRANCH  19  20
ENDBRANCH  17  19
ENDBRANCH   1  17
BRANCH   2  22
HETATM   22  N   UNL     1       2.185  34.182  63.707  1.00  0.00    -0.384 N 
HETATM   23  H   UNL     1       1.523  33.455  63.400  1.00  0.00     0.157 HD
HETATM   24  H   UNL     1       1.852  34.658  64.529  1.00  0.00     0.157 HD
ENDBRANCH   2  22
BRANCH   3  25
HETATM   25  C   UNL     1       3.016  33.234  61.066  1.00  0.00     0.085 C 
HETATM   26  C   UNL     1       3.136  34.383  60.071  1.00  0.00     0.032 C 
HETATM   27  C   UNL     1       3.129  31.834  60.475  1.00  0.00     0.032 C 
ENDBRANCH   3  25
TORSDOF 5
ENDMDL
