MODEL 1
REMARK VINA RESULT:     -10.8      0.000      0.000
REMARK  8 active torsions:
REMARK  status: ('A' for Active; 'I' for Inactive)
REMARK    1  A    between atoms: C_2  and  N_3 
REMARK    2  A    between atoms: C_2  and  C_34 
REMARK       I    between atoms: N_3  and  C_4 
REMARK    3  A    between atoms: C_4  and  C_5 
REMARK    4  A    between atoms: C_5  and  N_6 
REMARK       I    between atoms: N_12  and  C_13 
REMARK    5  A    between atoms: C_13  and  C_14 
REMARK    6  A    between atoms: C_14  and  O_15 
REMARK    7  A    between atoms: O_15  and  C_16 
REMARK    8  A    between atoms: N_25  and  C_26 
ROOT
HETATM    1  N   UNL     1       4.715  30.726  57.733  1.00  0.00    -0.325 N 
HETATM    2  C   UNL     1       4.644  29.756  56.764  1.00  0.00     0.250 C 
HETATM    3  O   UNL     1       3.614  29.390  56.219  1.00  0.00    -0.270 OA
HETATM    4  C   UNL     1       6.070  29.203  56.555  1.00  0.00     0.118 C 
HETATM    5  C   UNL     1       6.341  29.083  55.053  1.00  0.00     0.061 C 
HETATM    6  C   UNL     1       5.659  27.873  54.420  1.00  0.00     0.129 C 
HETATM    7  N   UNL     1       5.827  26.653  55.205  1.00  0.00    -0.350 N 
HETATM    8  C   UNL     1       5.909  25.440  54.512  1.00  0.00     0.244 C 
HETATM    9  O   UNL     1       5.952  25.394  53.279  1.00  0.00    -0.271 OA
HETATM   10  C   UNL     1       5.426  26.746  56.606  1.00  0.00     0.129 C 
HETATM   11  C   UNL     1       6.150  27.875  57.326  1.00  0.00     0.061 C 
HETATM   12  N   UNL     1       6.895  30.259  57.217  1.00  0.00    -0.346 N 
HETATM   13  C   UNL     1       6.049  31.163  57.994  1.00  0.00     0.254 C 
ENDROOT
BRANCH  12  14
HETATM   14  C   UNL     1       8.270  30.310  57.371  1.00  0.00     0.032 A 
HETATM   15  C   UNL     1       8.912  31.081  58.352  1.00  0.00     0.029 A 
HETATM   16  C   UNL     1      10.307  31.130  58.485  1.00  0.00     0.002 A 
HETATM   17  C   UNL     1      11.118  30.390  57.638  1.00  0.00     0.000 A 
HETATM   18  C   UNL     1      10.528  29.599  56.665  1.00  0.00     0.002 A 
HETATM   19  C   UNL     1       9.131  29.560  56.541  1.00  0.00     0.029 A 
ENDBRANCH  12  14
BRANCH   1  20
HETATM   20  C   UNL     1       3.573  31.412  58.311  1.00  0.00     0.230 C 
BRANCH  20  21
HETATM   21  C   UNL     1       3.453  31.237  59.825  1.00  0.00     0.236 C 
HETATM   22  N   UNL     1       4.231  32.105  60.558  1.00  0.00    -0.351 N 
HETATM   23  H   UNL     1       4.638  32.875  60.037  1.00  0.00     0.163 HD
HETATM   24  O   UNL     1       2.651  30.441  60.306  1.00  0.00    -0.272 OA
BRANCH  22  25
HETATM   25  C   UNL     1       4.105  32.316  61.996  1.00  0.00     0.113 C 
HETATM   26  C   UNL     1       3.089  33.387  62.400  1.00  0.00     0.037 C 
BRANCH  25  27
HETATM   27  C   UNL     1       5.472  32.480  62.639  1.00  0.00    -0.036 A 
HETATM   28  C   UNL     1       6.628  32.133  61.920  1.00  0.00     0.009 A 
HETATM   29  C   UNL     1       7.896  32.296  62.482  1.00  0.00     0.001 A 
HETATM   30  C   UNL     1       8.030  32.816  63.766  1.00  0.00     0.000 A 
HETATM   31  C   UNL     1       6.895  33.175  64.489  1.00  0.00     0.001 A 
HETATM   32  C   UNL     1       5.626  33.011  63.929  1.00  0.00     0.009 A 
ENDBRANCH  25  27
ENDBRANCH  22  25
ENDBRANCH  20  21
ENDBRANCH   1  20
BRANCH   8  33
HETATM   33  C   UNL     1       5.920  24.139  55.320  1.00  0.00     0.278 C 
BRANCH  33  34
HETATM   34  O   UNL     1       7.260  23.742  55.587  1.00  0.00    -0.342 OA
BRANCH  34  35
HETATM   35  C   UNL     1       7.686  22.599  54.967  1.00  0.00     0.069 A 
HETATM   36  C   UNL     1       7.825  22.424  53.589  1.00  0.00     0.037 A 
HETATM   37  C   UNL     1       8.255  21.196  53.077  1.00  0.00     0.003 A 
HETATM   38  C   UNL     1       8.548  20.140  53.939  1.00  0.00     0.000 A 
HETATM   39  C   UNL     1       8.402  20.307  55.315  1.00  0.00     0.003 A 
HETATM   40  C   UNL     1       7.965  21.531  55.824  1.00  0.00     0.037 A 
ENDBRANCH  34  35
ENDBRANCH  33  34
ENDBRANCH   8  33
TORSDOF 8
ENDMDL
MODEL 2
REMARK VINA RESULT:     -10.4      2.053      3.991
REMARK  8 active torsions:
REMARK  status: ('A' for Active; 'I' for Inactive)
REMARK    1  A    between atoms: C_2  and  N_3 
REMARK    2  A    between atoms: C_2  and  C_34 
REMARK       I    between atoms: N_3  and  C_4 
REMARK    3  A    between atoms: C_4  and  C_5 
REMARK    4  A    between atoms: C_5  and  N_6 
REMARK       I    between atoms: N_12  and  C_13 
REMARK    5  A    between atoms: C_13  and  C_14 
REMARK    6  A    between atoms: C_14  and  O_15 
REMARK    7  A    between atoms: O_15  and  C_16 
REMARK    8  A    between atoms: N_25  and  C_26 
ROOT
HETATM    1  N   UNL     1       7.702  29.977  58.196  1.00  0.00    -0.325 N 
HETATM    2  C   UNL     1       7.444  28.692  57.787  1.00  0.00     0.250 C 
HETATM    3  O   UNL     1       8.032  27.701  58.192  1.00  0.00    -0.270 OA
HETATM    4  C   UNL     1       6.343  28.761  56.707  1.00  0.00     0.118 C 
HETATM    5  C   UNL     1       5.303  27.672  56.988  1.00  0.00     0.061 C 
HETATM    6  C   UNL     1       5.776  26.279  56.577  1.00  0.00     0.129 C 
HETATM    7  N   UNL     1       6.391  26.258  55.253  1.00  0.00    -0.350 N 
HETATM    8  C   UNL     1       6.230  25.102  54.480  1.00  0.00     0.244 C 
HETATM    9  O   UNL     1       5.505  24.171  54.842  1.00  0.00    -0.271 OA
HETATM   10  C   UNL     1       7.480  27.209  55.049  1.00  0.00     0.129 C 
HETATM   11  C   UNL     1       7.045  28.637  55.345  1.00  0.00     0.061 C 
HETATM   12  N   UNL     1       5.813  30.144  56.914  1.00  0.00    -0.346 N 
HETATM   13  C   UNL     1       6.697  30.908  57.792  1.00  0.00     0.254 C 
ENDROOT
BRANCH  12  14
HETATM   14  C   UNL     1       4.811  30.796  56.219  1.00  0.00     0.032 A 
HETATM   15  C   UNL     1       4.448  30.477  54.901  1.00  0.00     0.029 A 
HETATM   16  C   UNL     1       3.437  31.158  54.206  1.00  0.00     0.002 A 
HETATM   17  C   UNL     1       2.738  32.187  54.818  1.00  0.00     0.000 A 
HETATM   18  C   UNL     1       3.049  32.526  56.125  1.00  0.00     0.002 A 
HETATM   19  C   UNL     1       4.063  31.838  56.808  1.00  0.00     0.029 A 
ENDBRANCH  12  14
BRANCH   1  20
HETATM   20  C   UNL     1       8.759  30.364  59.114  1.00  0.00     0.230 C 
BRANCH  20  21
HETATM   21  C   UNL     1       8.499  31.691  59.826  1.00  0.00     0.236 C 
HETATM   22  N   UNL     1       7.616  31.605  60.879  1.00  0.00    -0.351 N 
HETATM   23  H   UNL     1       7.390  30.664  61.185  1.00  0.00     0.163 HD
HETATM   24  O   UNL     1       9.116  32.706  59.514  1.00  0.00    -0.272 OA
BRANCH  22  25
HETATM   25  C   UNL     1       7.401  32.656  61.867  1.00  0.00     0.113 C 
HETATM   26  C   UNL     1       8.057  32.400  63.228  1.00  0.00     0.037 C 
BRANCH  25  27
HETATM   27  C   UNL     1       5.931  33.031  61.946  1.00  0.00    -0.036 A 
HETATM   28  C   UNL     1       5.074  32.724  60.876  1.00  0.00     0.009 A 
HETATM   29  C   UNL     1       3.715  33.039  60.934  1.00  0.00     0.001 A 
HETATM   30  C   UNL     1       3.189  33.658  62.064  1.00  0.00     0.000 A 
HETATM   31  C   UNL     1       4.022  33.961  63.139  1.00  0.00     0.001 A 
HETATM   32  C   UNL     1       5.382  33.647  63.081  1.00  0.00     0.009 A 
ENDBRANCH  25  27
ENDBRANCH  22  25
ENDBRANCH  20  21
ENDBRANCH   1  20
BRANCH   8  33
HETATM   33  C   UNL     1       7.001  24.995  53.161  1.00  0.00     0.278 C 
BRANCH  33  34
HETATM   34  O   UNL     1       8.296  24.454  53.395  1.00  0.00    -0.342 OA
BRANCH  34  35
HETATM   35  C   UNL     1       8.340  23.148  53.799  1.00  0.00     0.069 A 
HETATM   36  C   UNL     1       8.812  22.692  55.031  1.00  0.00     0.037 A 
HETATM   37  C   UNL     1       8.819  21.323  55.318  1.00  0.00     0.003 A 
HETATM   38  C   UNL     1       8.354  20.407  54.376  1.00  0.00     0.000 A 
HETATM   39  C   UNL     1       7.891  20.856  53.141  1.00  0.00     0.003 A 
HETATM   40  C   UNL     1       7.891  22.222  52.853  1.00  0.00     0.037 A 
ENDBRANCH  34  35
ENDBRANCH  33  34
ENDBRANCH   8  33
TORSDOF 8
ENDMDL
MODEL 3
REMARK VINA RESULT:     -10.3      2.373     10.136
REMARK  8 active torsions:
REMARK  status: ('A' for Active; 'I' for Inactive)
REMARK    1  A    between atoms: C_2  and  N_3 
REMARK    2  A    between atoms: C_2  and  C_34 
REMARK       I    between atoms: N_3  and  C_4 
REMARK    3  A    between atoms: C_4  and  C_5 
REMARK    4  A    between atoms: C_5  and  N_6 
REMARK       I    between atoms: N_12  and  C_13 
REMARK    5  A    between atoms: C_13  and  C_14 
REMARK    6  A    between atoms: C_14  and  O_15 
REMARK    7  A    between atoms: O_15  and  C_16 
REMARK    8  A    between atoms: N_25  and  C_26 
ROOT
HETATM    1  N   UNL     1       6.142  26.981  56.209  1.00  0.00    -0.325 N 
HETATM    2  C   UNL     1       7.258  27.667  56.619  1.00  0.00     0.250 C 
HETATM    3  O   UNL     1       8.299  27.145  56.989  1.00  0.00    -0.270 OA
HETATM    4  C   UNL     1       6.921  29.173  56.575  1.00  0.00     0.118 C 
HETATM    5  C   UNL     1       8.087  29.924  55.927  1.00  0.00     0.061 C 
HETATM    6  C   UNL     1       9.276  30.104  56.870  1.00  0.00     0.129 C 
HETATM    7  N   UNL     1       8.878  30.552  58.202  1.00  0.00    -0.350 N 
HETATM    8  C   UNL     1       9.760  31.389  58.895  1.00  0.00     0.244 C 
HETATM    9  O   UNL     1      10.787  31.833  58.372  1.00  0.00    -0.271 OA
HETATM   10  C   UNL     1       7.864  29.737  58.865  1.00  0.00     0.129 C 
HETATM   11  C   UNL     1       6.607  29.602  58.018  1.00  0.00     0.061 C 
HETATM   12  N   UNL     1       5.685  29.173  55.734  1.00  0.00    -0.346 N 
HETATM   13  C   UNL     1       5.177  27.814  55.564  1.00  0.00     0.254 C 
ENDROOT
BRANCH  12  14
HETATM   14  C   UNL     1       4.899  30.248  55.356  1.00  0.00     0.032 A 
HETATM   15  C   UNL     1       4.850  31.458  56.064  1.00  0.00     0.029 A 
HETATM   16  C   UNL     1       4.037  32.533  55.674  1.00  0.00     0.002 A 
HETATM   17  C   UNL     1       3.245  32.437  54.540  1.00  0.00     0.000 A 
HETATM   18  C   UNL     1       3.275  31.267  53.798  1.00  0.00     0.002 A 
HETATM   19  C   UNL     1       4.090  30.199  54.200  1.00  0.00     0.029 A 
ENDBRANCH  12  14
BRANCH   1  20
HETATM   20  C   UNL     1       5.999  25.536  56.222  1.00  0.00     0.230 C 
BRANCH  20  21
HETATM   21  C   UNL     1       6.345  24.872  54.890  1.00  0.00     0.236 C 
HETATM   22  N   UNL     1       7.679  24.942  54.553  1.00  0.00    -0.351 N 
HETATM   23  H   UNL     1       8.302  25.244  55.294  1.00  0.00     0.163 HD
HETATM   24  O   UNL     1       5.495  24.260  54.250  1.00  0.00    -0.272 OA
BRANCH  22  25
HETATM   25  C   UNL     1       8.302  24.175  53.480  1.00  0.00     0.113 C 
HETATM   26  C   UNL     1       7.695  24.402  52.093  1.00  0.00     0.037 C 
BRANCH  25  27
HETATM   27  C   UNL     1       8.436  22.713  53.869  1.00  0.00    -0.036 A 
HETATM   28  C   UNL     1       8.030  21.712  52.971  1.00  0.00     0.009 A 
HETATM   29  C   UNL     1       8.163  20.360  53.297  1.00  0.00     0.001 A 
HETATM   30  C   UNL     1       8.712  19.987  54.521  1.00  0.00     0.000 A 
HETATM   31  C   UNL     1       9.130  20.967  55.419  1.00  0.00     0.001 A 
HETATM   32  C   UNL     1       8.996  22.319  55.094  1.00  0.00     0.009 A 
ENDBRANCH  25  27
ENDBRANCH  22  25
ENDBRANCH  20  21
ENDBRANCH   1  20
BRANCH   8  33
HETATM   33  C   UNL     1       9.440  31.737  60.352  1.00  0.00     0.278 C 
BRANCH  33  34
HETATM   34  O   UNL     1       8.336  32.633  60.409  1.00  0.00    -0.342 OA
BRANCH  34  35
HETATM   35  C   UNL     1       7.744  32.783  61.633  1.00  0.00     0.069 A 
HETATM   36  C   UNL     1       8.362  32.576  62.868  1.00  0.00     0.037 A 
HETATM   37  C   UNL     1       7.639  32.748  64.052  1.00  0.00     0.003 A 
HETATM   38  C   UNL     1       6.299  33.127  64.008  1.00  0.00     0.000 A 
HETATM   39  C   UNL     1       5.675  33.326  62.778  1.00  0.00     0.003 A 
HETATM   40  C   UNL     1       6.395  33.147  61.595  1.00  0.00     0.037 A 
ENDBRANCH  34  35
ENDBRANCH  33  34
ENDBRANCH   8  33
TORSDOF 8
ENDMDL
MODEL 4
REMARK VINA RESULT:     -10.2      2.902      8.724
REMARK  8 active torsions:
REMARK  status: ('A' for Active; 'I' for Inactive)
REMARK    1  A    between atoms: C_2  and  N_3 
REMARK    2  A    between atoms: C_2  and  C_34 
REMARK       I    between atoms: N_3  and  C_4 
REMARK    3  A    between atoms: C_4  and  C_5 
REMARK    4  A    between atoms: C_5  and  N_6 
REMARK       I    between atoms: N_12  and  C_13 
REMARK    5  A    between atoms: C_13  and  C_14 
REMARK    6  A    between atoms: C_14  and  O_15 
REMARK    7  A    between atoms: O_15  and  C_16 
REMARK    8  A    between atoms: N_25  and  C_26 
ROOT
HETATM    1  N   UNL     1       6.619  26.704  57.355  1.00  0.00    -0.325 N 
HETATM    2  C   UNL     1       5.570  27.477  56.923  1.00  0.00     0.250 C 
HETATM    3  O   UNL     1       4.493  27.042  56.545  1.00  0.00    -0.270 OA
HETATM    4  C   UNL     1       6.035  28.950  56.955  1.00  0.00     0.118 C 
HETATM    5  C   UNL     1       4.929  29.805  57.579  1.00  0.00     0.061 C 
HETATM    6  C   UNL     1       3.772  30.074  56.618  1.00  0.00     0.129 C 
HETATM    7  N   UNL     1       4.222  30.471  55.287  1.00  0.00    -0.350 N 
HETATM    8  C   UNL     1       3.424  31.372  54.573  1.00  0.00     0.244 C 
HETATM    9  O   UNL     1       2.432  31.908  55.078  1.00  0.00    -0.271 OA
HETATM   10  C   UNL     1       5.170  29.564  54.646  1.00  0.00     0.129 C 
HETATM   11  C   UNL     1       6.401  29.332  55.512  1.00  0.00     0.061 C 
HETATM   12  N   UNL     1       7.256  28.854  57.812  1.00  0.00    -0.346 N 
HETATM   13  C   UNL     1       7.643  27.459  58.003  1.00  0.00     0.254 C 
ENDROOT
BRANCH  12  14
HETATM   14  C   UNL     1       8.126  29.862  58.188  1.00  0.00     0.032 A 
HETATM   15  C   UNL     1       7.824  30.820  59.169  1.00  0.00     0.029 A 
HETATM   16  C   UNL     1       8.713  31.844  59.529  1.00  0.00     0.002 A 
HETATM   17  C   UNL     1       9.956  31.938  58.920  1.00  0.00     0.000 A 
HETATM   18  C   UNL     1      10.305  31.004  57.959  1.00  0.00     0.002 A 
HETATM   19  C   UNL     1       9.406  29.986  57.607  1.00  0.00     0.029 A 
ENDBRANCH  12  14
BRANCH   1  20
HETATM   20  C   UNL     1       6.638  25.252  57.359  1.00  0.00     0.230 C 
BRANCH  20  21
HETATM   21  C   UNL     1       7.721  24.648  56.466  1.00  0.00     0.236 C 
HETATM   22  N   UNL     1       7.312  24.390  55.177  1.00  0.00    -0.351 N 
HETATM   23  H   UNL     1       6.422  24.798  54.910  1.00  0.00     0.163 HD
HETATM   24  O   UNL     1       8.870  24.507  56.875  1.00  0.00    -0.272 OA
BRANCH  22  25
HETATM   25  C   UNL     1       8.209  24.062  54.074  1.00  0.00     0.113 C 
HETATM   26  C   UNL     1       7.856  24.729  52.741  1.00  0.00     0.037 C 
BRANCH  25  27
HETATM   27  C   UNL     1       8.424  22.561  53.981  1.00  0.00    -0.036 A 
HETATM   28  C   UNL     1       9.031  21.876  55.047  1.00  0.00     0.009 A 
HETATM   29  C   UNL     1       9.219  20.493  54.994  1.00  0.00     0.001 A 
HETATM   30  C   UNL     1       8.797  19.772  53.880  1.00  0.00     0.000 A 
HETATM   31  C   UNL     1       8.184  20.434  52.819  1.00  0.00     0.001 A 
HETATM   32  C   UNL     1       7.996  21.817  52.871  1.00  0.00     0.009 A 
ENDBRANCH  25  27
ENDBRANCH  22  25
ENDBRANCH  20  21
ENDBRANCH   1  20
BRANCH   8  33
HETATM   33  C   UNL     1       3.790  31.674  53.117  1.00  0.00     0.278 C 
BRANCH  33  34
HETATM   34  O   UNL     1       2.953  30.930  52.239  1.00  0.00    -0.342 OA
BRANCH  34  35
HETATM   35  C   UNL     1       3.592  30.176  51.292  1.00  0.00     0.069 A 
HETATM   36  C   UNL     1       3.048  29.081  50.620  1.00  0.00     0.037 A 
HETATM   37  C   UNL     1       3.813  28.381  49.681  1.00  0.00     0.003 A 
HETATM   38  C   UNL     1       5.123  28.774  49.412  1.00  0.00     0.000 A 
HETATM   39  C   UNL     1       5.674  29.861  50.087  1.00  0.00     0.003 A 
HETATM   40  C   UNL     1       4.912  30.554  51.029  1.00  0.00     0.037 A 
ENDBRANCH  34  35
ENDBRANCH  33  34
ENDBRANCH   8  33
TORSDOF 8
ENDMDL
MODEL 5
REMARK VINA RESULT:     -10.2      4.629     10.954
REMARK  8 active torsions:
REMARK  status: ('A' for Active; 'I' for Inactive)
REMARK    1  A    between atoms: C_2  and  N_3 
REMARK    2  A    between atoms: C_2  and  C_34 
REMARK       I    between atoms: N_3  and  C_4 
REMARK    3  A    between atoms: C_4  and  C_5 
REMARK    4  A    between atoms: C_5  and  N_6 
REMARK       I    between atoms: N_12  and  C_13 
REMARK    5  A    between atoms: C_13  and  C_14 
REMARK    6  A    between atoms: C_14  and  O_15 
REMARK    7  A    between atoms: O_15  and  C_16 
REMARK    8  A    between atoms: N_25  and  C_26 
ROOT
HETATM    1  N   UNL     1       5.873  27.429  51.541  1.00  0.00    -0.325 N 
HETATM    2  C   UNL     1       5.711  28.077  52.741  1.00  0.00     0.250 C 
HETATM    3  O   UNL     1       5.230  29.192  52.870  1.00  0.00    -0.270 OA
HETATM    4  C   UNL     1       6.295  27.166  53.843  1.00  0.00     0.118 C 
HETATM    5  C   UNL     1       5.321  27.131  55.025  1.00  0.00     0.061 C 
HETATM    6  C   UNL     1       5.380  28.395  55.881  1.00  0.00     0.129 C 
HETATM    7  N   UNL     1       6.747  28.811  56.182  1.00  0.00    -0.350 N 
HETATM    8  C   UNL     1       6.981  29.430  57.415  1.00  0.00     0.244 C 
HETATM    9  O   UNL     1       6.099  29.527  58.275  1.00  0.00    -0.271 OA
HETATM   10  C   UNL     1       7.624  28.979  55.027  1.00  0.00     0.129 C 
HETATM   11  C   UNL     1       7.690  27.715  54.181  1.00  0.00     0.061 C 
HETATM   12  N   UNL     1       6.390  25.859  53.124  1.00  0.00    -0.346 N 
HETATM   13  C   UNL     1       6.187  26.043  51.690  1.00  0.00     0.254 C 
ENDROOT
BRANCH  12  14
HETATM   14  C   UNL     1       6.867  24.648  53.597  1.00  0.00     0.032 A 
HETATM   15  C   UNL     1       6.773  24.249  54.939  1.00  0.00     0.029 A 
HETATM   16  C   UNL     1       7.274  23.024  55.403  1.00  0.00     0.002 A 
HETATM   17  C   UNL     1       7.884  22.139  54.526  1.00  0.00     0.000 A 
HETATM   18  C   UNL     1       7.984  22.483  53.188  1.00  0.00     0.002 A 
HETATM   19  C   UNL     1       7.480  23.712  52.737  1.00  0.00     0.029 A 
ENDBRANCH  12  14
BRANCH   1  20
HETATM   20  C   UNL     1       5.568  27.995  50.240  1.00  0.00     0.230 C 
BRANCH  20  21
HETATM   21  C   UNL     1       4.127  27.756  49.787  1.00  0.00     0.236 C 
HETATM   22  N   UNL     1       4.014  27.079  48.594  1.00  0.00    -0.351 N 
HETATM   23  H   UNL     1       4.867  26.650  48.251  1.00  0.00     0.163 HD
HETATM   24  O   UNL     1       3.181  28.076  50.502  1.00  0.00    -0.272 OA
BRANCH  22  25
HETATM   25  C   UNL     1       2.773  26.507  48.082  1.00  0.00     0.113 C 
HETATM   26  C   UNL     1       2.946  25.209  47.288  1.00  0.00     0.037 C 
BRANCH  25  27
HETATM   27  C   UNL     1       1.944  27.564  47.373  1.00  0.00    -0.036 A 
HETATM   28  C   UNL     1       0.620  27.277  46.999  1.00  0.00     0.009 A 
HETATM   29  C   UNL     1      -0.169  28.240  46.367  1.00  0.00     0.001 A 
HETATM   30  C   UNL     1       0.347  29.506  46.105  1.00  0.00     0.000 A 
HETATM   31  C   UNL     1       1.654  29.811  46.479  1.00  0.00     0.001 A 
HETATM   32  C   UNL     1       2.445  28.848  47.111  1.00  0.00     0.009 A 
ENDBRANCH  25  27
ENDBRANCH  22  25
ENDBRANCH  20  21
ENDBRANCH   1  20
BRANCH   8  33
HETATM   33  C   UNL     1       8.368  30.020  57.683  1.00  0.00     0.278 C 
BRANCH  33  34
HETATM   34  O   UNL     1       8.246  31.328  58.228  1.00  0.00    -0.342 OA
BRANCH  34  35
HETATM   35  C   UNL     1       8.415  31.436  59.581  1.00  0.00     0.069 A 
HETATM   36  C   UNL     1       9.251  30.638  60.364  1.00  0.00     0.037 A 
HETATM   37  C   UNL     1       9.322  30.840  61.746  1.00  0.00     0.003 A 
HETATM   38  C   UNL     1       8.559  31.839  62.350  1.00  0.00     0.000 A 
HETATM   39  C   UNL     1       7.717  32.632  61.574  1.00  0.00     0.003 A 
HETATM   40  C   UNL     1       7.640  32.425  60.195  1.00  0.00     0.037 A 
ENDBRANCH  34  35
ENDBRANCH  33  34
ENDBRANCH   8  33
TORSDOF 8
ENDMDL
MODEL 6
REMARK VINA RESULT:      -9.9      4.441      7.133
REMARK  8 active torsions:
REMARK  status: ('A' for Active; 'I' for Inactive)
REMARK    1  A    between atoms: C_2  and  N_3 
REMARK    2  A    between atoms: C_2  and  C_34 
REMARK       I    between atoms: N_3  and  C_4 
REMARK    3  A    between atoms: C_4  and  C_5 
REMARK    4  A    between atoms: C_5  and  N_6 
REMARK       I    between atoms: N_12  and  C_13 
REMARK    5  A    between atoms: C_13  and  C_14 
REMARK    6  A    between atoms: C_14  and  O_15 
REMARK    7  A    between atoms: O_15  and  C_16 
REMARK    8  A    between atoms: N_25  and  C_26 
ROOT
HETATM    1  N   UNL     1       5.306  28.448  56.067  1.00  0.00    -0.325 N 
HETATM    2  C   UNL     1       5.184  28.908  54.779  1.00  0.00     0.250 C 
HETATM    3  O   UNL     1       4.803  30.028  54.473  1.00  0.00    -0.270 OA
HETATM    4  C   UNL     1       5.554  27.745  53.834  1.00  0.00     0.118 C 
HETATM    5  C   UNL     1       6.474  28.277  52.731  1.00  0.00     0.061 C 
HETATM    6  C   UNL     1       5.723  29.060  51.656  1.00  0.00     0.129 C 
HETATM    7  N   UNL     1       4.505  28.387  51.212  1.00  0.00    -0.350 N 
HETATM    8  C   UNL     1       4.122  28.550  49.876  1.00  0.00     0.244 C 
HETATM    9  O   UNL     1       4.835  29.144  49.061  1.00  0.00    -0.271 OA
HETATM   10  C   UNL     1       3.570  28.015  52.270  1.00  0.00     0.129 C 
HETATM   11  C   UNL     1       4.232  27.144  53.328  1.00  0.00     0.061 C 
HETATM   12  N   UNL     1       6.245  26.811  54.773  1.00  0.00    -0.346 N 
HETATM   13  C   UNL     1       6.034  27.223  56.159  1.00  0.00     0.254 C 
ENDROOT
BRANCH  12  14
HETATM   14  C   UNL     1       6.791  25.567  54.506  1.00  0.00     0.032 A 
HETATM   15  C   UNL     1       7.461  25.255  53.313  1.00  0.00     0.029 A 
HETATM   16  C   UNL     1       7.996  23.985  53.053  1.00  0.00     0.002 A 
HETATM   17  C   UNL     1       7.890  22.974  53.996  1.00  0.00     0.000 A 
HETATM   18  C   UNL     1       7.253  23.241  55.198  1.00  0.00     0.002 A 
HETATM   19  C   UNL     1       6.720  24.515  55.444  1.00  0.00     0.029 A 
ENDBRANCH  12  14
BRANCH   1  20
HETATM   20  C   UNL     1       4.933  29.192  57.257  1.00  0.00     0.230 C 
BRANCH  20  21
HETATM   21  C   UNL     1       5.909  30.313  57.613  1.00  0.00     0.236 C 
HETATM   22  N   UNL     1       7.031  29.892  58.292  1.00  0.00    -0.351 N 
HETATM   23  H   UNL     1       7.181  28.889  58.309  1.00  0.00     0.163 HD
HETATM   24  O   UNL     1       5.716  31.463  57.228  1.00  0.00    -0.272 OA
BRANCH  22  25
HETATM   25  C   UNL     1       8.218  30.709  58.515  1.00  0.00     0.113 C 
HETATM   26  C   UNL     1       9.527  30.088  58.018  1.00  0.00     0.037 C 
BRANCH  25  27
HETATM   27  C   UNL     1       8.271  31.205  59.950  1.00  0.00    -0.036 A 
HETATM   28  C   UNL     1       7.498  32.314  60.333  1.00  0.00     0.009 A 
HETATM   29  C   UNL     1       7.513  32.775  61.651  1.00  0.00     0.001 A 
HETATM   30  C   UNL     1       8.292  32.131  62.609  1.00  0.00     0.000 A 
HETATM   31  C   UNL     1       9.056  31.023  62.248  1.00  0.00     0.001 A 
HETATM   32  C   UNL     1       9.043  30.562  60.929  1.00  0.00     0.009 A 
ENDBRANCH  25  27
ENDBRANCH  22  25
ENDBRANCH  20  21
ENDBRANCH   1  20
BRANCH   8  33
HETATM   33  C   UNL     1       2.767  27.991  49.433  1.00  0.00     0.278 C 
BRANCH  33  34
HETATM   34  O   UNL     1       2.798  27.680  48.045  1.00  0.00    -0.342 OA
BRANCH  34  35
HETATM   35  C   UNL     1       1.806  28.234  47.281  1.00  0.00     0.069 A 
HETATM   36  C   UNL     1       1.722  29.575  46.904  1.00  0.00     0.037 A 
HETATM   37  C   UNL     1       0.645  30.021  46.132  1.00  0.00     0.003 A 
HETATM   38  C   UNL     1      -0.351  29.130  45.735  1.00  0.00     0.000 A 
HETATM   39  C   UNL     1      -0.276  27.792  46.117  1.00  0.00     0.003 A 
HETATM   40  C   UNL     1       0.796  27.349  46.894  1.00  0.00     0.037 A 
ENDBRANCH  34  35
ENDBRANCH  33  34
ENDBRANCH   8  33
TORSDOF 8
ENDMDL
MODEL 7
REMARK VINA RESULT:      -9.8      3.132      9.562
REMARK  8 active torsions:
REMARK  status: ('A' for Active; 'I' for Inactive)
REMARK    1  A    between atoms: C_2  and  N_3 
REMARK    2  A    between atoms: C_2  and  C_34 
REMARK       I    between atoms: N_3  and  C_4 
REMARK    3  A    between atoms: C_4  and  C_5 
REMARK    4  A    between atoms: C_5  and  N_6 
REMARK       I    between atoms: N_12  and  C_13 
REMARK    5  A    between atoms: C_13  and  C_14 
REMARK    6  A    between atoms: C_14  and  O_15 
REMARK    7  A    between atoms: O_15  and  C_16 
REMARK    8  A    between atoms: N_25  and  C_26 
ROOT
HETATM    1  N   UNL     1       6.371  26.908  57.080  1.00  0.00    -0.325 N 
HETATM    2  C   UNL     1       5.307  27.743  56.846  1.00  0.00     0.250 C 
HETATM    3  O   UNL     1       4.188  27.372  56.526  1.00  0.00    -0.270 OA
HETATM    4  C   UNL     1       5.812  29.194  57.004  1.00  0.00     0.118 C 
HETATM    5  C   UNL     1       4.793  29.986  57.828  1.00  0.00     0.061 C 
HETATM    6  C   UNL     1       3.557  30.385  57.023  1.00  0.00     0.129 C 
HETATM    7  N   UNL     1       3.890  30.930  55.710  1.00  0.00    -0.350 N 
HETATM    8  C   UNL     1       3.052  31.921  55.187  1.00  0.00     0.244 C 
HETATM    9  O   UNL     1       2.127  32.408  55.845  1.00  0.00    -0.271 OA
HETATM   10  C   UNL     1       4.749  30.092  54.879  1.00  0.00     0.129 C 
HETATM   11  C   UNL     1       6.050  29.740  55.587  1.00  0.00     0.061 C 
HETATM   12  N   UNL     1       7.105  28.979  57.722  1.00  0.00    -0.346 N 
HETATM   13  C   UNL     1       7.472  27.565  57.710  1.00  0.00     0.254 C 
ENDROOT
BRANCH  12  14
HETATM   14  C   UNL     1       8.034  29.922  58.127  1.00  0.00     0.032 A 
HETATM   15  C   UNL     1       9.324  30.023  57.583  1.00  0.00     0.029 A 
HETATM   16  C   UNL     1      10.256  30.978  58.015  1.00  0.00     0.002 A 
HETATM   17  C   UNL     1       9.922  31.884  59.011  1.00  0.00     0.000 A 
HETATM   18  C   UNL     1       8.653  31.834  59.564  1.00  0.00     0.002 A 
HETATM   19  C   UNL     1       7.730  30.873  59.125  1.00  0.00     0.029 A 
ENDBRANCH  12  14
BRANCH   1  20
HETATM   20  C   UNL     1       6.352  25.466  56.913  1.00  0.00     0.230 C 
BRANCH  20  21
HETATM   21  C   UNL     1       6.486  25.013  55.459  1.00  0.00     0.236 C 
HETATM   22  N   UNL     1       7.777  25.021  54.981  1.00  0.00    -0.351 N 
HETATM   23  H   UNL     1       8.502  25.133  55.681  1.00  0.00     0.163 HD
HETATM   24  O   UNL     1       5.512  24.599  54.836  1.00  0.00    -0.272 OA
BRANCH  22  25
HETATM   25  C   UNL     1       8.199  24.398  53.732  1.00  0.00     0.113 C 
HETATM   26  C   UNL     1       7.394  24.821  52.499  1.00  0.00     0.037 C 
BRANCH  25  27
HETATM   27  C   UNL     1       8.338  22.894  53.898  1.00  0.00    -0.036 A 
HETATM   28  C   UNL     1       8.963  22.373  55.043  1.00  0.00     0.009 A 
HETATM   29  C   UNL     1       9.083  20.994  55.229  1.00  0.00     0.001 A 
HETATM   30  C   UNL     1       8.572  20.114  54.278  1.00  0.00     0.000 A 
HETATM   31  C   UNL     1       7.940  20.613  53.142  1.00  0.00     0.001 A 
HETATM   32  C   UNL     1       7.821  21.992  52.955  1.00  0.00     0.009 A 
ENDBRANCH  25  27
ENDBRANCH  22  25
ENDBRANCH  20  21
ENDBRANCH   1  20
BRANCH   8  33
HETATM   33  C   UNL     1       3.286  32.389  53.748  1.00  0.00     0.278 C 
BRANCH  33  34
HETATM   34  O   UNL     1       3.387  33.807  53.705  1.00  0.00    -0.342 OA
BRANCH  34  35
HETATM   35  C   UNL     1       4.499  34.314  53.088  1.00  0.00     0.069 A 
HETATM   36  C   UNL     1       5.709  34.619  53.714  1.00  0.00     0.037 A 
HETATM   37  C   UNL     1       6.769  35.149  52.972  1.00  0.00     0.003 A 
HETATM   38  C   UNL     1       6.624  35.376  51.604  1.00  0.00     0.000 A 
HETATM   39  C   UNL     1       5.415  35.081  50.977  1.00  0.00     0.003 A 
HETATM   40  C   UNL     1       4.355  34.559  51.720  1.00  0.00     0.037 A 
ENDBRANCH  34  35
ENDBRANCH  33  34
ENDBRANCH   8  33
TORSDOF 8
ENDMDL
MODEL 8
REMARK VINA RESULT:      -9.6      4.357     10.765
REMARK  8 active torsions:
REMARK  status: ('A' for Active; 'I' for Inactive)
REMARK    1  A    between atoms: C_2  and  N_3 
REMARK    2  A    between atoms: C_2  and  C_34 
REMARK       I    between atoms: N_3  and  C_4 
REMARK    3  A    between atoms: C_4  and  C_5 
REMARK    4  A    between atoms: C_5  and  N_6 
REMARK       I    between atoms: N_12  and  C_13 
REMARK    5  A    between atoms: C_13  and  C_14 
REMARK    6  A    between atoms: C_14  and  O_15 
REMARK    7  A    between atoms: O_15  and  C_16 
REMARK    8  A    between atoms: N_25  and  C_26 
ROOT
HETATM    1  N   UNL     1       5.365  26.974  50.848  1.00  0.00    -0.325 N 
HETATM    2  C   UNL     1       5.358  28.263  51.321  1.00  0.00     0.250 C 
HETATM    3  O   UNL     1       6.183  28.726  52.094  1.00  0.00    -0.270 OA
HETATM    4  C   UNL     1       4.109  28.963  50.743  1.00  0.00     0.118 C 
HETATM    5  C   UNL     1       4.506  30.354  50.241  1.00  0.00     0.061 C 
HETATM    6  C   UNL     1       4.688  31.365  51.371  1.00  0.00     0.129 C 
HETATM    7  N   UNL     1       3.608  31.317  52.352  1.00  0.00    -0.350 N 
HETATM    8  C   UNL     1       3.244  32.516  52.976  1.00  0.00     0.244 C 
HETATM    9  O   UNL     1       3.731  33.601  52.641  1.00  0.00    -0.271 OA
HETATM   10  C   UNL     1       3.337  30.004  52.928  1.00  0.00     0.129 C 
HETATM   11  C   UNL     1       3.046  28.965  51.854  1.00  0.00     0.061 C 
HETATM   12  N   UNL     1       3.731  28.027  49.640  1.00  0.00    -0.346 N 
HETATM   13  C   UNL     1       4.473  26.774  49.750  1.00  0.00     0.254 C 
ENDROOT
BRANCH  12  14
HETATM   14  C   UNL     1       2.663  28.114  48.764  1.00  0.00     0.032 A 
HETATM   15  C   UNL     1       2.015  29.319  48.449  1.00  0.00     0.029 A 
HETATM   16  C   UNL     1       0.925  29.386  47.569  1.00  0.00     0.002 A 
HETATM   17  C   UNL     1       0.447  28.237  46.956  1.00  0.00     0.000 A 
HETATM   18  C   UNL     1       1.067  27.027  47.222  1.00  0.00     0.002 A 
HETATM   19  C   UNL     1       2.156  26.973  48.106  1.00  0.00     0.029 A 
ENDBRANCH  12  14
BRANCH   1  20
HETATM   20  C   UNL     1       6.305  25.944  51.250  1.00  0.00     0.230 C 
BRANCH  20  21
HETATM   21  C   UNL     1       5.863  25.153  52.481  1.00  0.00     0.236 C 
HETATM   22  N   UNL     1       6.872  24.437  53.085  1.00  0.00    -0.351 N 
HETATM   23  H   UNL     1       7.812  24.658  52.776  1.00  0.00     0.163 HD
HETATM   24  O   UNL     1       4.719  25.250  52.915  1.00  0.00    -0.272 OA
BRANCH  22  25
HETATM   25  C   UNL     1       6.773  23.818  54.403  1.00  0.00     0.113 C 
HETATM   26  C   UNL     1       7.148  24.735  55.571  1.00  0.00     0.037 C 
BRANCH  25  27
HETATM   27  C   UNL     1       7.471  22.470  54.420  1.00  0.00    -0.036 A 
HETATM   28  C   UNL     1       7.654  21.794  55.639  1.00  0.00     0.009 A 
HETATM   29  C   UNL     1       8.274  20.543  55.678  1.00  0.00     0.001 A 
HETATM   30  C   UNL     1       8.713  19.944  54.500  1.00  0.00     0.000 A 
HETATM   31  C   UNL     1       8.530  20.595  53.282  1.00  0.00     0.001 A 
HETATM   32  C   UNL     1       7.912  21.847  53.243  1.00  0.00     0.009 A 
ENDBRANCH  25  27
ENDBRANCH  22  25
ENDBRANCH  20  21
ENDBRANCH   1  20
BRANCH   8  33
HETATM   33  C   UNL     1       2.230  32.462  54.122  1.00  0.00     0.278 C 
BRANCH  33  34
HETATM   34  O   UNL     1       2.753  33.122  55.269  1.00  0.00    -0.342 OA
BRANCH  34  35
HETATM   35  C   UNL     1       3.560  32.371  56.081  1.00  0.00     0.069 A 
HETATM   36  C   UNL     1       4.844  32.722  56.501  1.00  0.00     0.037 A 
HETATM   37  C   UNL     1       5.575  31.856  57.321  1.00  0.00     0.003 A 
HETATM   38  C   UNL     1       5.026  30.639  57.723  1.00  0.00     0.000 A 
HETATM   39  C   UNL     1       3.748  30.281  57.298  1.00  0.00     0.003 A 
HETATM   40  C   UNL     1       3.022  31.142  56.474  1.00  0.00     0.037 A 
ENDBRANCH  34  35
ENDBRANCH  33  34
ENDBRANCH   8  33
TORSDOF 8
ENDMDL
MODEL 9
REMARK VINA RESULT:      -9.6      5.849     10.946
REMARK  8 active torsions:
REMARK  status: ('A' for Active; 'I' for Inactive)
REMARK    1  A    between atoms: C_2  and  N_3 
REMARK    2  A    between atoms: C_2  and  C_34 
REMARK       I    between atoms: N_3  and  C_4 
REMARK    3  A    between atoms: C_4  and  C_5 
REMARK    4  A    between atoms: C_5  and  N_6 
REMARK       I    between atoms: N_12  and  C_13 
REMARK    5  A    between atoms: C_13  and  C_14 
REMARK    6  A    between atoms: C_14  and  O_15 
REMARK    7  A    between atoms: O_15  and  C_16 
REMARK    8  A    between atoms: N_25  and  C_26 
ROOT
HETATM    1  N   UNL     1       5.366  26.902  51.150  1.00  0.00    -0.325 N 
HETATM    2  C   UNL     1       4.647  27.224  50.025  1.00  0.00     0.250 C 
HETATM    3  O   UNL     1       4.555  26.518  49.032  1.00  0.00    -0.270 OA
HETATM    4  C   UNL     1       4.051  28.631  50.242  1.00  0.00     0.118 C 
HETATM    5  C   UNL     1       2.586  28.624  49.796  1.00  0.00     0.061 C 
HETATM    6  C   UNL     1       2.426  28.668  48.278  1.00  0.00     0.129 C 
HETATM    7  N   UNL     1       3.289  29.663  47.647  1.00  0.00    -0.350 N 
HETATM    8  C   UNL     1       2.811  30.301  46.496  1.00  0.00     0.244 C 
HETATM    9  O   UNL     1       1.662  30.123  46.080  1.00  0.00    -0.271 OA
HETATM   10  C   UNL     1       4.709  29.565  47.973  1.00  0.00     0.129 C 
HETATM   11  C   UNL     1       4.947  29.618  49.475  1.00  0.00     0.061 C 
HETATM   12  N   UNL     1       4.213  28.795  51.719  1.00  0.00    -0.346 N 
HETATM   13  C   UNL     1       5.079  27.752  52.262  1.00  0.00     0.254 C 
ENDROOT
BRANCH  12  14
HETATM   14  C   UNL     1       3.874  29.880  52.509  1.00  0.00     0.032 A 
HETATM   15  C   UNL     1       3.601  31.157  51.994  1.00  0.00     0.029 A 
HETATM   16  C   UNL     1       3.272  32.250  52.810  1.00  0.00     0.002 A 
HETATM   17  C   UNL     1       3.192  32.097  54.186  1.00  0.00     0.000 A 
HETATM   18  C   UNL     1       3.436  30.850  54.738  1.00  0.00     0.002 A 
HETATM   19  C   UNL     1       3.765  29.766  53.911  1.00  0.00     0.029 A 
ENDBRANCH  12  14
BRANCH   1  20
HETATM   20  C   UNL     1       6.186  25.713  51.304  1.00  0.00     0.230 C 
BRANCH  20  21
HETATM   21  C   UNL     1       5.829  24.875  52.532  1.00  0.00     0.236 C 
HETATM   22  N   UNL     1       6.918  24.382  53.215  1.00  0.00    -0.351 N 
HETATM   23  H   UNL     1       7.815  24.777  52.954  1.00  0.00     0.163 HD
HETATM   24  O   UNL     1       4.663  24.754  52.895  1.00  0.00    -0.272 OA
BRANCH  22  25
HETATM   25  C   UNL     1       6.858  23.781  54.543  1.00  0.00     0.113 C 
HETATM   26  C   UNL     1       7.320  24.695  55.682  1.00  0.00     0.037 C 
BRANCH  25  27
HETATM   27  C   UNL     1       7.509  22.408  54.544  1.00  0.00    -0.036 A 
HETATM   28  C   UNL     1       7.951  21.844  53.336  1.00  0.00     0.009 A 
HETATM   29  C   UNL     1       8.572  20.594  53.314  1.00  0.00     0.001 A 
HETATM   30  C   UNL     1       8.768  19.890  54.500  1.00  0.00     0.000 A 
HETATM   31  C   UNL     1       8.345  20.439  55.708  1.00  0.00     0.001 A 
HETATM   32  C   UNL     1       7.723  21.690  55.731  1.00  0.00     0.009 A 
ENDBRANCH  25  27
ENDBRANCH  22  25
ENDBRANCH  20  21
ENDBRANCH   1  20
BRANCH   8  33
HETATM   33  C   UNL     1       3.760  31.224  45.728  1.00  0.00     0.278 C 
BRANCH  33  34
HETATM   34  O   UNL     1       3.839  32.490  46.373  1.00  0.00    -0.342 OA
BRANCH  34  35
HETATM   35  C   UNL     1       5.099  32.971  46.605  1.00  0.00     0.069 A 
HETATM   36  C   UNL     1       6.062  33.236  45.629  1.00  0.00     0.037 A 
HETATM   37  C   UNL     1       7.323  33.712  45.999  1.00  0.00     0.003 A 
HETATM   38  C   UNL     1       7.627  33.926  47.342  1.00  0.00     0.000 A 
HETATM   39  C   UNL     1       6.673  33.654  48.321  1.00  0.00     0.003 A 
HETATM   40  C   UNL     1       5.416  33.171  47.951  1.00  0.00     0.037 A 
ENDBRANCH  34  35
ENDBRANCH  33  34
ENDBRANCH   8  33
TORSDOF 8
ENDMDL
MODEL 10
REMARK VINA RESULT:      -9.4      2.236     10.528
REMARK  8 active torsions:
REMARK  status: ('A' for Active; 'I' for Inactive)
REMARK    1  A    between atoms: C_2  and  N_3 
REMARK    2  A    between atoms: C_2  and  C_34 
REMARK       I    between atoms: N_3  and  C_4 
REMARK    3  A    between atoms: C_4  and  C_5 
REMARK    4  A    between atoms: C_5  and  N_6 
REMARK       I    between atoms: N_12  and  C_13 
REMARK    5  A    between atoms: C_13  and  C_14 
REMARK    6  A    between atoms: C_14  and  O_15 
REMARK    7  A    between atoms: O_15  and  C_16 
REMARK    8  A    between atoms: N_25  and  C_26 
ROOT
HETATM    1  N   UNL     1       5.053  27.277  55.829  1.00  0.00    -0.325 N 
HETATM    2  C   UNL     1       5.380  28.326  56.653  1.00  0.00     0.250 C 
HETATM    3  O   UNL     1       5.974  28.218  57.715  1.00  0.00    -0.270 OA
HETATM    4  C   UNL     1       4.812  29.612  56.015  1.00  0.00     0.118 C 
HETATM    5  C   UNL     1       5.878  30.710  56.079  1.00  0.00     0.061 C 
HETATM    6  C   UNL     1       6.014  31.326  57.471  1.00  0.00     0.129 C 
HETATM    7  N   UNL     1       4.725  31.641  58.079  1.00  0.00    -0.350 N 
HETATM    8  C   UNL     1       4.660  32.756  58.923  1.00  0.00     0.244 C 
HETATM    9  O   UNL     1       5.619  33.520  59.070  1.00  0.00    -0.271 OA
HETATM   10  C   UNL     1       3.770  30.538  58.138  1.00  0.00     0.129 C 
HETATM   11  C   UNL     1       3.510  29.942  56.762  1.00  0.00     0.061 C 
HETATM   12  N   UNL     1       4.531  29.150  54.622  1.00  0.00    -0.346 N 
HETATM   13  C   UNL     1       4.624  27.695  54.532  1.00  0.00     0.254 C 
ENDROOT
BRANCH  12  14
HETATM   14  C   UNL     1       3.985  29.865  53.570  1.00  0.00     0.032 A 
HETATM   15  C   UNL     1       3.964  29.401  52.246  1.00  0.00     0.029 A 
HETATM   16  C   UNL     1       3.418  30.146  51.190  1.00  0.00     0.002 A 
HETATM   17  C   UNL     1       2.855  31.391  51.428  1.00  0.00     0.000 A 
HETATM   18  C   UNL     1       2.837  31.882  52.723  1.00  0.00     0.002 A 
HETATM   19  C   UNL     1       3.388  31.129  53.770  1.00  0.00     0.029 A 
ENDBRANCH  12  14
BRANCH   1  20
HETATM   20  C   UNL     1       5.295  25.876  56.126  1.00  0.00     0.230 C 
BRANCH  20  21
HETATM   21  C   UNL     1       6.656  25.373  55.647  1.00  0.00     0.236 C 
HETATM   22  N   UNL     1       6.612  24.645  54.479  1.00  0.00    -0.351 N 
HETATM   23  H   UNL     1       5.734  24.686  53.971  1.00  0.00     0.163 HD
HETATM   24  O   UNL     1       7.688  25.690  56.233  1.00  0.00    -0.272 OA
BRANCH  22  25
HETATM   25  C   UNL     1       7.780  24.279  53.687  1.00  0.00     0.113 C 
HETATM   26  C   UNL     1       7.708  24.684  52.212  1.00  0.00     0.037 C 
BRANCH  25  27
HETATM   27  C   UNL     1       8.153  22.824  53.915  1.00  0.00    -0.036 A 
HETATM   28  C   UNL     1       7.924  21.878  52.901  1.00  0.00     0.009 A 
HETATM   29  C   UNL     1       8.278  20.539  53.079  1.00  0.00     0.001 A 
HETATM   30  C   UNL     1       8.875  20.125  54.267  1.00  0.00     0.000 A 
HETATM   31  C   UNL     1       9.119  21.052  55.278  1.00  0.00     0.001 A 
HETATM   32  C   UNL     1       8.763  22.391  55.102  1.00  0.00     0.009 A 
ENDBRANCH  25  27
ENDBRANCH  22  25
ENDBRANCH  20  21
ENDBRANCH   1  20
BRANCH   8  33
HETATM   33  C   UNL     1       3.363  33.009  59.697  1.00  0.00     0.278 C 
BRANCH  33  34
HETATM   34  O   UNL     1       3.317  32.184  60.856  1.00  0.00    -0.342 OA
BRANCH  34  35
HETATM   35  C   UNL     1       3.647  32.788  62.039  1.00  0.00     0.069 A 
HETATM   36  C   UNL     1       2.915  33.795  62.671  1.00  0.00     0.037 A 
HETATM   37  C   UNL     1       3.370  34.343  63.874  1.00  0.00     0.003 A 
HETATM   38  C   UNL     1       4.555  33.888  64.449  1.00  0.00     0.000 A 
HETATM   39  C   UNL     1       5.294  32.890  63.817  1.00  0.00     0.003 A 
HETATM   40  C   UNL     1       4.843  32.348  62.612  1.00  0.00     0.037 A 
ENDBRANCH  34  35
ENDBRANCH  33  34
ENDBRANCH   8  33
TORSDOF 8
ENDMDL
