MODEL 1
REMARK VINA RESULT:      -9.3      0.000      0.000
REMARK  7 active torsions:
REMARK  status: ('A' for Active; 'I' for Inactive)
REMARK    1  A    between atoms: C_3  and  N_4 
REMARK       I    between atoms: N_4  and  C_5 
REMARK    2  A    between atoms: C_5  and  C_6 
REMARK    3  A    between atoms: C_7  and  C_8 
REMARK    4  A    between atoms: C_20  and  C_21 
REMARK    5  A    between atoms: C_21  and  C_22 
REMARK    6  A    between atoms: C_22  and  C_23 
REMARK    7  A    between atoms: C_23  and  O_24 
ROOT
HETATM    1  C   UNL     1       7.304  31.937  61.135  1.00  0.00     0.062 A 
HETATM    2  C   UNL     1       5.893  32.144  61.676  1.00  0.00     0.202 A 
HETATM    3  N   UNL     1       5.899  32.688  63.038  1.00  0.00    -0.083 N 
HETATM    4  C   UNL     1       7.034  32.930  63.759  1.00  0.00     0.726 A 
HETATM    5  N   UNL     1       8.230  32.687  63.198  1.00  0.00    -0.192 N 
HETATM    6  N   UNL     1       4.791  32.879  63.786  1.00  0.00    -0.140 NA
HETATM    7  C   UNL     1       5.336  33.327  64.928  1.00  0.00     0.166 A 
HETATM    8  N   UNL     1       6.711  33.365  64.949  1.00  0.00    -0.046 NA
HETATM    9  C   UNL     1       8.392  32.205  61.905  1.00  0.00     0.037 A 
HETATM   10  C   UNL     1       9.823  31.994  61.470  1.00  0.00     0.070 C 
HETATM   11  H   UNL     1       9.070  32.879  63.739  1.00  0.00     0.184 HD
ENDROOT
BRANCH   1  12
HETATM   12  C   UNL     1       7.486  31.546  59.701  1.00  0.00     0.256 C 
HETATM   13  N   UNL     1       7.667  30.196  59.474  1.00  0.00    -0.323 N 
HETATM   14  H   UNL     1       7.409  29.552  60.205  1.00  0.00     0.169 HD
HETATM   15  O   UNL     1       7.374  32.403  58.830  1.00  0.00    -0.267 OA
BRANCH  13  16
HETATM   16  C   UNL     1       7.775  29.610  58.190  1.00  0.00     0.041 A 
HETATM   17  C   UNL     1       8.931  29.635  57.389  1.00  0.00    -0.035 A 
HETATM   18  C   UNL     1      10.258  30.180  57.837  1.00  0.00     0.050 C 
HETATM   19  C   UNL     1       8.873  29.074  56.099  1.00  0.00     0.009 A 
HETATM   20  C   UNL     1       7.717  28.450  55.632  1.00  0.00     0.001 A 
HETATM   21  C   UNL     1       6.601  28.364  56.455  1.00  0.00     0.002 A 
HETATM   22  C   UNL     1       6.634  28.929  57.730  1.00  0.00     0.030 A 
ENDBRANCH  13  16
ENDBRANCH   1  12
BRANCH   2  23
HETATM   23  C   UNL     1       4.999  32.996  60.777  1.00  0.00    -0.026 A 
HETATM   24  C   UNL     1       5.040  34.399  60.882  1.00  0.00     0.035 A 
HETATM   25  C   UNL     1       4.212  35.204  60.090  1.00  0.00     0.056 A 
HETATM   26 CL   UNL     1       4.309  36.914  60.316  1.00  0.00    -0.083 Cl
HETATM   27  C   UNL     1       3.341  34.615  59.171  1.00  0.00     0.055 A 
HETATM   28 CL   UNL     1       2.286  35.543  58.167  1.00  0.00    -0.083 Cl
HETATM   29  C   UNL     1       3.307  33.224  59.044  1.00  0.00     0.026 A 
HETATM   30  C   UNL     1       4.130  32.419  59.838  1.00  0.00     0.011 A 
ENDBRANCH   2  23
BRANCH   7  31
HETATM   31  C   UNL     1       4.529  33.720  66.110  1.00  0.00     0.085 C 
BRANCH  31  32
HETATM   32  C   UNL     1       5.036  34.988  66.793  1.00  0.00     0.034 C 
BRANCH  32  33
HETATM   33  C   UNL     1       4.033  36.136  66.749  1.00  0.00     0.164 C 
BRANCH  33  34
HETATM   34  O   UNL     1       2.712  35.618  66.857  1.00  0.00    -0.401 OA
HETATM   35  H   UNL     1       2.427  35.352  65.966  1.00  0.00     0.209 HD
ENDBRANCH  33  34
ENDBRANCH  32  33
ENDBRANCH  31  32
ENDBRANCH   7  31
TORSDOF 7
ENDMDL
MODEL 2
REMARK VINA RESULT:      -9.3      6.879     10.523
REMARK  7 active torsions:
REMARK  status: ('A' for Active; 'I' for Inactive)
REMARK    1  A    between atoms: C_3  and  N_4 
REMARK       I    between atoms: N_4  and  C_5 
REMARK    2  A    between atoms: C_5  and  C_6 
REMARK    3  A    between atoms: C_7  and  C_8 
REMARK    4  A    between atoms: C_20  and  C_21 
REMARK    5  A    between atoms: C_21  and  C_22 
REMARK    6  A    between atoms: C_22  and  C_23 
REMARK    7  A    between atoms: C_23  and  O_24 
ROOT
HETATM    1  C   UNL     1       5.600  28.313  53.484  1.00  0.00     0.062 A 
HETATM    2  C   UNL     1       7.079  27.952  53.597  1.00  0.00     0.202 A 
HETATM    3  N   UNL     1       7.696  28.530  54.796  1.00  0.00    -0.083 N 
HETATM    4  C   UNL     1       7.040  29.339  55.679  1.00  0.00     0.726 A 
HETATM    5  N   UNL     1       5.743  29.618  55.472  1.00  0.00    -0.192 N 
HETATM    6  N   UNL     1       9.012  28.445  55.090  1.00  0.00    -0.140 NA
HETATM    7  C   UNL     1       9.060  29.161  56.225  1.00  0.00     0.166 A 
HETATM    8  N   UNL     1       7.869  29.729  56.612  1.00  0.00    -0.046 NA
HETATM    9  C   UNL     1       5.008  29.120  54.403  1.00  0.00     0.037 A 
HETATM   10  C   UNL     1       3.564  29.562  54.352  1.00  0.00     0.070 C 
HETATM   11  H   UNL     1       5.260  30.214  56.140  1.00  0.00     0.184 HD
ENDROOT
BRANCH   1  12
HETATM   12  C   UNL     1       4.774  27.672  52.412  1.00  0.00     0.256 C 
HETATM   13  N   UNL     1       4.797  28.310  51.187  1.00  0.00    -0.323 N 
HETATM   14  H   UNL     1       5.535  28.972  51.009  1.00  0.00     0.169 HD
HETATM   15  O   UNL     1       4.218  26.604  52.646  1.00  0.00    -0.267 OA
BRANCH  13  16
HETATM   16  C   UNL     1       4.152  27.827  50.023  1.00  0.00     0.041 A 
HETATM   17  C   UNL     1       2.860  28.196  49.608  1.00  0.00    -0.035 A 
HETATM   18  C   UNL     1       2.027  29.255  50.275  1.00  0.00     0.050 C 
HETATM   19  C   UNL     1       2.314  27.578  48.467  1.00  0.00     0.009 A 
HETATM   20  C   UNL     1       3.049  26.660  47.718  1.00  0.00     0.001 A 
HETATM   21  C   UNL     1       4.351  26.353  48.093  1.00  0.00     0.002 A 
HETATM   22  C   UNL     1       4.904  26.943  49.230  1.00  0.00     0.030 A 
ENDBRANCH  13  16
ENDBRANCH   1  12
BRANCH   2  23
HETATM   23  C   UNL     1       7.362  26.453  53.533  1.00  0.00    -0.026 A 
HETATM   24  C   UNL     1       7.257  25.674  54.701  1.00  0.00     0.035 A 
HETATM   25  C   UNL     1       7.537  24.302  54.678  1.00  0.00     0.056 A 
HETATM   26 CL   UNL     1       7.415  23.437  56.169  1.00  0.00    -0.083 Cl
HETATM   27  C   UNL     1       7.913  23.688  53.481  1.00  0.00     0.055 A 
HETATM   28 CL   UNL     1       8.280  22.004  53.379  1.00  0.00    -0.083 Cl
HETATM   29  C   UNL     1       8.001  24.448  52.312  1.00  0.00     0.026 A 
HETATM   30  C   UNL     1       7.725  25.819  52.335  1.00  0.00     0.011 A 
ENDBRANCH   2  23
BRANCH   7  31
HETATM   31  C   UNL     1      10.310  29.368  56.998  1.00  0.00     0.085 C 
BRANCH  31  32
HETATM   32  C   UNL     1      10.500  30.811  57.461  1.00  0.00     0.034 C 
BRANCH  32  33
HETATM   33  C   UNL     1       9.950  31.070  58.859  1.00  0.00     0.164 C 
BRANCH  33  34
HETATM   34  O   UNL     1       9.337  32.354  58.899  1.00  0.00    -0.401 OA
HETATM   35  H   UNL     1      10.042  33.011  59.032  1.00  0.00     0.209 HD
ENDBRANCH  33  34
ENDBRANCH  32  33
ENDBRANCH  31  32
ENDBRANCH   7  31
TORSDOF 7
ENDMDL
MODEL 3
REMARK VINA RESULT:      -9.2      3.174      4.782
REMARK  7 active torsions:
REMARK  status: ('A' for Active; 'I' for Inactive)
REMARK    1  A    between atoms: C_3  and  N_4 
REMARK       I    between atoms: N_4  and  C_5 
REMARK    2  A    between atoms: C_5  and  C_6 
REMARK    3  A    between atoms: C_7  and  C_8 
REMARK    4  A    between atoms: C_20  and  C_21 
REMARK    5  A    between atoms: C_21  and  C_22 
REMARK    6  A    between atoms: C_22  and  C_23 
REMARK    7  A    between atoms: C_23  and  O_24 
ROOT
HETATM    1  C   UNL     1       8.449  29.494  57.549  1.00  0.00     0.062 A 
HETATM    2  C   UNL     1       7.284  29.968  58.412  1.00  0.00     0.202 A 
HETATM    3  N   UNL     1       7.673  31.059  59.312  1.00  0.00    -0.083 N 
HETATM    4  C   UNL     1       8.941  31.557  59.405  1.00  0.00     0.726 A 
HETATM    5  N   UNL     1       9.904  31.050  58.618  1.00  0.00    -0.192 N 
HETATM    6  N   UNL     1       6.861  31.600  60.246  1.00  0.00    -0.140 NA
HETATM    7  C   UNL     1       7.692  32.490  60.812  1.00  0.00     0.166 A 
HETATM    8  N   UNL     1       8.979  32.486  60.324  1.00  0.00    -0.046 NA
HETATM    9  C   UNL     1       9.687  30.038  57.690  1.00  0.00     0.037 A 
HETATM   10  C   UNL     1      10.907  29.608  56.909  1.00  0.00     0.070 C 
HETATM   11  H   UNL     1      10.843  31.433  58.688  1.00  0.00     0.184 HD
ENDROOT
BRANCH   1  12
HETATM   12  C   UNL     1       8.192  28.501  56.458  1.00  0.00     0.256 C 
HETATM   13  N   UNL     1       7.729  27.269  56.876  1.00  0.00    -0.323 N 
HETATM   14  H   UNL     1       7.349  27.194  57.807  1.00  0.00     0.169 HD
HETATM   15  O   UNL     1       8.313  28.854  55.289  1.00  0.00    -0.267 OA
BRANCH  13  16
HETATM   16  C   UNL     1       7.349  26.221  56.004  1.00  0.00     0.041 A 
HETATM   17  C   UNL     1       7.918  24.934  55.997  1.00  0.00    -0.035 A 
HETATM   18  C   UNL     1       8.925  24.450  57.002  1.00  0.00     0.050 C 
HETATM   19  C   UNL     1       7.492  24.011  55.023  1.00  0.00     0.009 A 
HETATM   20  C   UNL     1       6.486  24.332  54.112  1.00  0.00     0.001 A 
HETATM   21  C   UNL     1       5.878  25.579  54.170  1.00  0.00     0.002 A 
HETATM   22  C   UNL     1       6.297  26.513  55.118  1.00  0.00     0.030 A 
ENDBRANCH  13  16
ENDBRANCH   1  12
BRANCH   2  23
HETATM   23  C   UNL     1       6.039  30.362  57.619  1.00  0.00    -0.026 A 
HETATM   24  C   UNL     1       5.960  31.641  57.037  1.00  0.00     0.035 A 
HETATM   25  C   UNL     1       4.821  32.039  56.328  1.00  0.00     0.056 A 
HETATM   26 CL   UNL     1       4.803  33.641  55.682  1.00  0.00    -0.083 Cl
HETATM   27  C   UNL     1       3.749  31.156  56.179  1.00  0.00     0.055 A 
HETATM   28 CL   UNL     1       2.310  31.580  55.323  1.00  0.00    -0.083 Cl
HETATM   29  C   UNL     1       3.826  29.876  56.734  1.00  0.00     0.026 A 
HETATM   30  C   UNL     1       4.962  29.479  57.447  1.00  0.00     0.011 A 
ENDBRANCH   2  23
BRANCH   7  31
HETATM   31  C   UNL     1       7.280  33.394  61.915  1.00  0.00     0.085 C 
BRANCH  31  32
HETATM   32  C   UNL     1       6.985  32.657  63.220  1.00  0.00     0.034 C 
BRANCH  32  33
HETATM   33  C   UNL     1       5.494  32.467  63.477  1.00  0.00     0.164 C 
BRANCH  33  34
HETATM   34  O   UNL     1       5.075  31.215  62.944  1.00  0.00    -0.401 OA
HETATM   35  H   UNL     1       4.525  31.398  62.164  1.00  0.00     0.209 HD
ENDBRANCH  33  34
ENDBRANCH  32  33
ENDBRANCH  31  32
ENDBRANCH   7  31
TORSDOF 7
ENDMDL
MODEL 4
REMARK VINA RESULT:      -9.1      7.766     11.567
REMARK  7 active torsions:
REMARK  status: ('A' for Active; 'I' for Inactive)
REMARK    1  A    between atoms: C_3  and  N_4 
REMARK       I    between atoms: N_4  and  C_5 
REMARK    2  A    between atoms: C_5  and  C_6 
REMARK    3  A    between atoms: C_7  and  C_8 
REMARK    4  A    between atoms: C_20  and  C_21 
REMARK    5  A    between atoms: C_21  and  C_22 
REMARK    6  A    between atoms: C_22  and  C_23 
REMARK    7  A    between atoms: C_23  and  O_24 
ROOT
HETATM    1  C   UNL     1       5.072  27.228  52.633  1.00  0.00     0.062 A 
HETATM    2  C   UNL     1       5.575  26.374  53.793  1.00  0.00     0.202 A 
HETATM    3  N   UNL     1       6.560  25.378  53.358  1.00  0.00    -0.083 N 
HETATM    4  C   UNL     1       6.943  25.200  52.059  1.00  0.00     0.726 A 
HETATM    5  N   UNL     1       6.418  25.988  51.107  1.00  0.00    -0.192 N 
HETATM    6  N   UNL     1       7.095  24.435  54.163  1.00  0.00    -0.140 NA
HETATM    7  C   UNL     1       7.868  23.772  53.289  1.00  0.00     0.166 A 
HETATM    8  N   UNL     1       7.795  24.210  51.988  1.00  0.00    -0.046 NA
HETATM    9  C   UNL     1       5.500  26.999  51.363  1.00  0.00     0.037 A 
HETATM   10  C   UNL     1       5.030  27.765  50.149  1.00  0.00     0.070 C 
HETATM   11  H   UNL     1       6.717  25.854  50.144  1.00  0.00     0.184 HD
ENDROOT
BRANCH   1  12
HETATM   12  C   UNL     1       4.187  28.401  52.921  1.00  0.00     0.256 C 
HETATM   13  N   UNL     1       4.817  29.630  52.922  1.00  0.00    -0.323 N 
HETATM   14  H   UNL     1       5.723  29.701  52.487  1.00  0.00     0.169 HD
HETATM   15  O   UNL     1       2.980  28.222  53.042  1.00  0.00    -0.267 OA
BRANCH  13  16
HETATM   16  C   UNL     1       4.152  30.868  53.092  1.00  0.00     0.041 A 
HETATM   17  C   UNL     1       3.969  31.520  54.324  1.00  0.00    -0.035 A 
HETATM   18  C   UNL     1       4.566  31.056  55.624  1.00  0.00     0.050 C 
HETATM   19  C   UNL     1       3.222  32.713  54.354  1.00  0.00     0.009 A 
HETATM   20  C   UNL     1       2.715  33.280  53.185  1.00  0.00     0.001 A 
HETATM   21  C   UNL     1       2.961  32.669  51.962  1.00  0.00     0.002 A 
HETATM   22  C   UNL     1       3.685  31.478  51.914  1.00  0.00     0.030 A 
ENDBRANCH  13  16
ENDBRANCH   1  12
BRANCH   2  23
HETATM   23  C   UNL     1       6.128  27.180  54.967  1.00  0.00    -0.026 A 
HETATM   24  C   UNL     1       7.343  27.876  54.822  1.00  0.00     0.035 A 
HETATM   25  C   UNL     1       7.888  28.600  55.889  1.00  0.00     0.056 A 
HETATM   26 CL   UNL     1       9.400  29.392  55.626  1.00  0.00    -0.083 Cl
HETATM   27  C   UNL     1       7.216  28.649  57.113  1.00  0.00     0.055 A 
HETATM   28 CL   UNL     1       7.831  29.516  58.474  1.00  0.00    -0.083 Cl
HETATM   29  C   UNL     1       5.999  27.978  57.261  1.00  0.00     0.026 A 
HETATM   30  C   UNL     1       5.456  27.251  56.197  1.00  0.00     0.011 A 
ENDBRANCH   2  23
BRANCH   7  31
HETATM   31  C   UNL     1       8.719  22.618  53.675  1.00  0.00     0.085 C 
BRANCH  31  32
HETATM   32  C   UNL     1       8.040  21.268  53.453  1.00  0.00     0.034 C 
BRANCH  32  33
HETATM   33  C   UNL     1       8.035  20.387  54.698  1.00  0.00     0.164 C 
BRANCH  33  34
HETATM   34  O   UNL     1       9.031  19.378  54.571  1.00  0.00    -0.401 OA
HETATM   35  H   UNL     1       9.371  19.189  55.463  1.00  0.00     0.209 HD
ENDBRANCH  33  34
ENDBRANCH  32  33
ENDBRANCH  31  32
ENDBRANCH   7  31
TORSDOF 7
ENDMDL
MODEL 5
REMARK VINA RESULT:      -9.1      6.057     10.576
REMARK  7 active torsions:
REMARK  status: ('A' for Active; 'I' for Inactive)
REMARK    1  A    between atoms: C_3  and  N_4 
REMARK       I    between atoms: N_4  and  C_5 
REMARK    2  A    between atoms: C_5  and  C_6 
REMARK    3  A    between atoms: C_7  and  C_8 
REMARK    4  A    between atoms: C_20  and  C_21 
REMARK    5  A    between atoms: C_21  and  C_22 
REMARK    6  A    between atoms: C_22  and  C_23 
REMARK    7  A    between atoms: C_23  and  O_24 
ROOT
HETATM    1  C   UNL     1       4.971  28.183  55.058  1.00  0.00     0.062 A 
HETATM    2  C   UNL     1       6.036  27.402  55.822  1.00  0.00     0.202 A 
HETATM    3  N   UNL     1       6.495  26.223  55.078  1.00  0.00    -0.083 N 
HETATM    4  C   UNL     1       5.990  25.839  53.869  1.00  0.00     0.726 A 
HETATM    5  N   UNL     1       5.032  26.583  53.293  1.00  0.00    -0.192 N 
HETATM    6  N   UNL     1       7.363  25.309  55.563  1.00  0.00    -0.140 NA
HETATM    7  C   UNL     1       7.402  24.438  54.542  1.00  0.00     0.166 A 
HETATM    8  N   UNL     1       6.567  24.729  53.488  1.00  0.00    -0.046 NA
HETATM    9  C   UNL     1       4.517  27.746  53.853  1.00  0.00     0.037 A 
HETATM   10  C   UNL     1       3.440  28.429  53.044  1.00  0.00     0.070 C 
HETATM   11  H   UNL     1       4.669  26.294  52.388  1.00  0.00     0.184 HD
ENDROOT
BRANCH   1  12
HETATM   12  C   UNL     1       4.511  29.503  55.593  1.00  0.00     0.256 C 
HETATM   13  N   UNL     1       5.173  30.607  55.094  1.00  0.00    -0.323 N 
HETATM   14  H   UNL     1       5.708  30.499  54.246  1.00  0.00     0.169 HD
HETATM   15  O   UNL     1       3.544  29.537  56.347  1.00  0.00    -0.267 OA
BRANCH  13  16
HETATM   16  C   UNL     1       4.840  31.947  55.406  1.00  0.00     0.041 A 
HETATM   17  C   UNL     1       5.059  32.560  56.653  1.00  0.00    -0.035 A 
HETATM   18  C   UNL     1       5.796  31.916  57.795  1.00  0.00     0.050 C 
HETATM   19  C   UNL     1       4.610  33.880  56.846  1.00  0.00     0.009 A 
HETATM   20  C   UNL     1       4.009  34.600  55.813  1.00  0.00     0.001 A 
HETATM   21  C   UNL     1       3.861  34.013  54.563  1.00  0.00     0.002 A 
HETATM   22  C   UNL     1       4.285  32.700  54.357  1.00  0.00     0.030 A 
ENDBRANCH  13  16
ENDBRANCH   1  12
BRANCH   2  23
HETATM   23  C   UNL     1       7.234  28.244  56.259  1.00  0.00    -0.026 A 
HETATM   24  C   UNL     1       7.326  28.684  57.592  1.00  0.00     0.035 A 
HETATM   25  C   UNL     1       8.398  29.480  58.014  1.00  0.00     0.056 A 
HETATM   26 CL   UNL     1       8.406  30.001  59.662  1.00  0.00    -0.083 Cl
HETATM   27  C   UNL     1       9.401  29.835  57.108  1.00  0.00     0.055 A 
HETATM   28 CL   UNL     1      10.747  30.818  57.556  1.00  0.00    -0.083 Cl
HETATM   29  C   UNL     1       9.329  29.386  55.787  1.00  0.00     0.026 A 
HETATM   30  C   UNL     1       8.257  28.594  55.364  1.00  0.00     0.011 A 
ENDBRANCH   2  23
BRANCH   7  31
HETATM   31  C   UNL     1       8.250  23.220  54.549  1.00  0.00     0.085 C 
BRANCH  31  32
HETATM   32  C   UNL     1       7.989  22.296  53.362  1.00  0.00     0.034 C 
BRANCH  32  33
HETATM   33  C   UNL     1       7.980  20.819  53.741  1.00  0.00     0.164 C 
BRANCH  33  34
HETATM   34  O   UNL     1       8.137  20.026  52.570  1.00  0.00    -0.401 OA
HETATM   35  H   UNL     1       9.040  20.169  52.238  1.00  0.00     0.209 HD
ENDBRANCH  33  34
ENDBRANCH  32  33
ENDBRANCH  31  32
ENDBRANCH   7  31
TORSDOF 7
ENDMDL
MODEL 6
REMARK VINA RESULT:      -8.7      8.721     11.439
REMARK  7 active torsions:
REMARK  status: ('A' for Active; 'I' for Inactive)
REMARK    1  A    between atoms: C_3  and  N_4 
REMARK       I    between atoms: N_4  and  C_5 
REMARK    2  A    between atoms: C_5  and  C_6 
REMARK    3  A    between atoms: C_7  and  C_8 
REMARK    4  A    between atoms: C_20  and  C_21 
REMARK    5  A    between atoms: C_21  and  C_22 
REMARK    6  A    between atoms: C_22  and  C_23 
REMARK    7  A    between atoms: C_23  and  O_24 
ROOT
HETATM    1  C   UNL     1       5.361  26.637  50.928  1.00  0.00     0.062 A 
HETATM    2  C   UNL     1       5.984  27.945  51.408  1.00  0.00     0.202 A 
HETATM    3  N   UNL     1       5.592  29.082  50.568  1.00  0.00    -0.083 N 
HETATM    4  C   UNL     1       4.808  28.975  49.455  1.00  0.00     0.726 A 
HETATM    5  N   UNL     1       4.332  27.770  49.102  1.00  0.00    -0.192 N 
HETATM    6  N   UNL     1       6.073  30.336  50.713  1.00  0.00    -0.140 NA
HETATM    7  C   UNL     1       5.458  30.957  49.694  1.00  0.00     0.166 A 
HETATM    8  N   UNL     1       4.679  30.151  48.898  1.00  0.00    -0.046 NA
HETATM    9  C   UNL     1       4.583  26.603  49.813  1.00  0.00     0.037 A 
HETATM   10  C   UNL     1       3.959  25.352  49.242  1.00  0.00     0.070 C 
HETATM   11  H   UNL     1       3.742  27.702  48.277  1.00  0.00     0.184 HD
ENDROOT
BRANCH   1  12
HETATM   12  C   UNL     1       5.518  25.404  51.764  1.00  0.00     0.256 C 
HETATM   13  N   UNL     1       6.786  25.190  52.269  1.00  0.00    -0.323 N 
HETATM   14  H   UNL     1       7.432  25.963  52.280  1.00  0.00     0.169 HD
HETATM   15  O   UNL     1       4.528  24.729  52.023  1.00  0.00    -0.267 OA
BRANCH  13  16
HETATM   16  C   UNL     1       7.127  24.132  53.145  1.00  0.00     0.041 A 
HETATM   17  C   UNL     1       6.826  24.096  54.519  1.00  0.00    -0.035 A 
HETATM   18  C   UNL     1       5.983  25.121  55.226  1.00  0.00     0.050 C 
HETATM   19  C   UNL     1       7.293  23.012  55.286  1.00  0.00     0.009 A 
HETATM   20  C   UNL     1       7.993  21.958  54.700  1.00  0.00     0.001 A 
HETATM   21  C   UNL     1       8.226  21.964  53.331  1.00  0.00     0.002 A 
HETATM   22  C   UNL     1       7.785  23.037  52.556  1.00  0.00     0.030 A 
ENDBRANCH  13  16
ENDBRANCH   1  12
BRANCH   2  23
HETATM   23  C   UNL     1       5.712  28.262  52.877  1.00  0.00    -0.026 A 
HETATM   24  C   UNL     1       6.790  28.381  53.775  1.00  0.00     0.035 A 
HETATM   25  C   UNL     1       6.570  28.644  55.132  1.00  0.00     0.056 A 
HETATM   26 CL   UNL     1       7.954  28.737  56.162  1.00  0.00    -0.083 Cl
HETATM   27  C   UNL     1       5.266  28.806  55.608  1.00  0.00     0.055 A 
HETATM   28 CL   UNL     1       4.918  29.125  57.269  1.00  0.00    -0.083 Cl
HETATM   29  C   UNL     1       4.190  28.711  54.721  1.00  0.00     0.026 A 
HETATM   30  C   UNL     1       4.409  28.444  53.366  1.00  0.00     0.011 A 
ENDBRANCH   2  23
BRANCH   7  31
HETATM   31  C   UNL     1       5.628  32.404  49.409  1.00  0.00     0.085 C 
BRANCH  31  32
HETATM   32  C   UNL     1       5.770  33.254  50.669  1.00  0.00     0.034 C 
BRANCH  32  33
HETATM   33  C   UNL     1       4.530  33.226  51.555  1.00  0.00     0.164 C 
BRANCH  33  34
HETATM   34  O   UNL     1       4.783  32.425  52.704  1.00  0.00    -0.401 OA
HETATM   35  H   UNL     1       3.981  31.906  52.882  1.00  0.00     0.209 HD
ENDBRANCH  33  34
ENDBRANCH  32  33
ENDBRANCH  31  32
ENDBRANCH   7  31
TORSDOF 7
ENDMDL
MODEL 7
REMARK VINA RESULT:      -8.5      7.879     10.439
REMARK  7 active torsions:
REMARK  status: ('A' for Active; 'I' for Inactive)
REMARK    1  A    between atoms: C_3  and  N_4 
REMARK       I    between atoms: N_4  and  C_5 
REMARK    2  A    between atoms: C_5  and  C_6 
REMARK    3  A    between atoms: C_7  and  C_8 
REMARK    4  A    between atoms: C_20  and  C_21 
REMARK    5  A    between atoms: C_21  and  C_22 
REMARK    6  A    between atoms: C_22  and  C_23 
REMARK    7  A    between atoms: C_23  and  O_24 
ROOT
HETATM    1  C   UNL     1       6.296  26.266  52.642  1.00  0.00     0.062 A 
HETATM    2  C   UNL     1       6.633  27.750  52.759  1.00  0.00     0.202 A 
HETATM    3  N   UNL     1       5.595  28.599  52.164  1.00  0.00    -0.083 N 
HETATM    4  C   UNL     1       4.485  28.118  51.530  1.00  0.00     0.726 A 
HETATM    5  N   UNL     1       4.296  26.790  51.458  1.00  0.00    -0.192 N 
HETATM    6  N   UNL     1       5.686  29.942  52.048  1.00  0.00    -0.140 NA
HETATM    7  C   UNL     1       4.539  30.213  51.406  1.00  0.00     0.166 A 
HETATM    8  N   UNL     1       3.780  29.117  51.068  1.00  0.00    -0.046 NA
HETATM    9  C   UNL     1       5.168  25.856  52.003  1.00  0.00     0.037 A 
HETATM   10  C   UNL     1       4.772  24.412  51.803  1.00  0.00     0.070 C 
HETATM   11  H   UNL     1       3.461  26.442  50.992  1.00  0.00     0.184 HD
ENDROOT
BRANCH   1  12
HETATM   12  C   UNL     1       7.161  25.264  53.342  1.00  0.00     0.256 C 
HETATM   13  N   UNL     1       6.653  24.769  54.527  1.00  0.00    -0.323 N 
HETATM   14  H   UNL     1       5.669  24.889  54.711  1.00  0.00     0.169 HD
HETATM   15  O   UNL     1       8.191  24.882  52.797  1.00  0.00    -0.267 OA
BRANCH  13  16
HETATM   16  C   UNL     1       7.271  23.758  55.301  1.00  0.00     0.041 A 
HETATM   17  C   UNL     1       7.852  23.956  56.566  1.00  0.00    -0.035 A 
HETATM   18  C   UNL     1       7.785  25.246  57.335  1.00  0.00     0.050 C 
HETATM   19  C   UNL     1       8.499  22.873  57.191  1.00  0.00     0.009 A 
HETATM   20  C   UNL     1       8.523  21.607  56.605  1.00  0.00     0.001 A 
HETATM   21  C   UNL     1       7.886  21.401  55.388  1.00  0.00     0.002 A 
HETATM   22  C   UNL     1       7.253  22.466  54.746  1.00  0.00     0.030 A 
ENDBRANCH  13  16
ENDBRANCH   1  12
BRANCH   2  23
HETATM   23  C   UNL     1       6.932  28.210  54.185  1.00  0.00    -0.026 A 
HETATM   24  C   UNL     1       8.232  28.630  54.522  1.00  0.00     0.035 A 
HETATM   25  C   UNL     1       8.542  29.031  55.828  1.00  0.00     0.056 A 
HETATM   26 CL   UNL     1      10.174  29.495  56.154  1.00  0.00    -0.083 Cl
HETATM   27  C   UNL     1       7.549  29.031  56.810  1.00  0.00     0.055 A 
HETATM   28 CL   UNL     1       7.859  29.507  58.441  1.00  0.00    -0.083 Cl
HETATM   29  C   UNL     1       6.250  28.636  56.480  1.00  0.00     0.026 A 
HETATM   30  C   UNL     1       5.941  28.231  55.178  1.00  0.00     0.011 A 
ENDBRANCH   2  23
BRANCH   7  31
HETATM   31  C   UNL     1       4.122  31.591  51.044  1.00  0.00     0.085 C 
BRANCH  31  32
HETATM   32  C   UNL     1       3.444  32.337  52.191  1.00  0.00     0.034 C 
BRANCH  32  33
HETATM   33  C   UNL     1       4.408  33.202  52.996  1.00  0.00     0.164 C 
BRANCH  33  34
HETATM   34  O   UNL     1       4.980  32.428  54.045  1.00  0.00    -0.401 OA
HETATM   35  H   UNL     1       5.692  32.956  54.444  1.00  0.00     0.209 HD
ENDBRANCH  33  34
ENDBRANCH  32  33
ENDBRANCH  31  32
ENDBRANCH   7  31
TORSDOF 7
ENDMDL
MODEL 8
REMARK VINA RESULT:      -8.2      2.019      2.872
REMARK  7 active torsions:
REMARK  status: ('A' for Active; 'I' for Inactive)
REMARK    1  A    between atoms: C_3  and  N_4 
REMARK       I    between atoms: N_4  and  C_5 
REMARK    2  A    between atoms: C_5  and  C_6 
REMARK    3  A    between atoms: C_7  and  C_8 
REMARK    4  A    between atoms: C_20  and  C_21 
REMARK    5  A    between atoms: C_21  and  C_22 
REMARK    6  A    between atoms: C_22  and  C_23 
REMARK    7  A    between atoms: C_23  and  O_24 
ROOT
HETATM    1  C   UNL     1       5.718  32.401  60.829  1.00  0.00     0.062 A 
HETATM    2  C   UNL     1       4.582  32.934  61.697  1.00  0.00     0.202 A 
HETATM    3  N   UNL     1       5.016  33.190  63.076  1.00  0.00    -0.083 N 
HETATM    4  C   UNL     1       6.273  32.930  63.542  1.00  0.00     0.726 A 
HETATM    5  N   UNL     1       7.194  32.434  62.700  1.00  0.00    -0.192 N 
HETATM    6  N   UNL     1       4.190  33.576  64.073  1.00  0.00    -0.140 NA
HETATM    7  C   UNL     1       5.049  33.614  65.104  1.00  0.00     0.166 A 
HETATM    8  N   UNL     1       6.334  33.218  64.816  1.00  0.00    -0.046 NA
HETATM    9  C   UNL     1       6.950  32.171  61.357  1.00  0.00     0.037 A 
HETATM   10  C   UNL     1       8.122  31.608  60.587  1.00  0.00     0.070 C 
HETATM   11  H   UNL     1       8.130  32.252  63.054  1.00  0.00     0.184 HD
ENDROOT
BRANCH   1  12
HETATM   12  C   UNL     1       5.498  32.243  59.356  1.00  0.00     0.256 C 
HETATM   13  N   UNL     1       4.762  31.136  58.984  1.00  0.00    -0.323 N 
HETATM   14  H   UNL     1       4.211  30.671  59.688  1.00  0.00     0.169 HD
HETATM   15  O   UNL     1       5.890  33.124  58.597  1.00  0.00    -0.267 OA
BRANCH  13  16
HETATM   16  C   UNL     1       4.374  30.846  57.654  1.00  0.00     0.041 A 
HETATM   17  C   UNL     1       4.981  29.881  56.830  1.00  0.00    -0.035 A 
HETATM   18  C   UNL     1       6.050  28.929  57.290  1.00  0.00     0.050 C 
HETATM   19  C   UNL     1       4.538  29.751  55.500  1.00  0.00     0.009 A 
HETATM   20  C   UNL     1       3.480  30.516  55.011  1.00  0.00     0.001 A 
HETATM   21  C   UNL     1       2.837  31.417  55.850  1.00  0.00     0.002 A 
HETATM   22  C   UNL     1       3.272  31.572  57.167  1.00  0.00     0.030 A 
ENDBRANCH  13  16
ENDBRANCH   1  12
BRANCH   2  23
HETATM   23  C   UNL     1       3.891  34.172  61.129  1.00  0.00    -0.026 A 
HETATM   24  C   UNL     1       2.523  34.116  60.801  1.00  0.00     0.035 A 
HETATM   25  C   UNL     1       1.869  35.226  60.253  1.00  0.00     0.056 A 
HETATM   26 CL   UNL     1       0.198  35.051  59.851  1.00  0.00    -0.083 Cl
HETATM   27  C   UNL     1       2.574  36.413  60.037  1.00  0.00     0.055 A 
HETATM   28 CL   UNL     1       1.836  37.819  59.358  1.00  0.00    -0.083 Cl
HETATM   29  C   UNL     1       3.927  36.485  60.377  1.00  0.00     0.026 A 
HETATM   30  C   UNL     1       4.582  35.376  60.922  1.00  0.00     0.011 A 
ENDBRANCH   2  23
BRANCH   7  31
HETATM   31  C   UNL     1       4.647  34.015  66.476  1.00  0.00     0.085 C 
BRANCH  31  32
HETATM   32  C   UNL     1       5.827  34.422  67.355  1.00  0.00     0.034 C 
BRANCH  32  33
HETATM   33  C   UNL     1       5.510  34.374  68.846  1.00  0.00     0.164 C 
BRANCH  33  34
HETATM   34  O   UNL     1       4.991  33.091  69.181  1.00  0.00    -0.401 OA
HETATM   35  H   UNL     1       4.163  33.229  69.672  1.00  0.00     0.209 HD
ENDBRANCH  33  34
ENDBRANCH  32  33
ENDBRANCH  31  32
ENDBRANCH   7  31
TORSDOF 7
ENDMDL
MODEL 9
REMARK VINA RESULT:      -8.2      8.170     11.084
REMARK  7 active torsions:
REMARK  status: ('A' for Active; 'I' for Inactive)
REMARK    1  A    between atoms: C_3  and  N_4 
REMARK       I    between atoms: N_4  and  C_5 
REMARK    2  A    between atoms: C_5  and  C_6 
REMARK    3  A    between atoms: C_7  and  C_8 
REMARK    4  A    between atoms: C_20  and  C_21 
REMARK    5  A    between atoms: C_21  and  C_22 
REMARK    6  A    between atoms: C_22  and  C_23 
REMARK    7  A    between atoms: C_23  and  O_24 
ROOT
HETATM    1  C   UNL     1       5.665  25.973  52.524  1.00  0.00     0.062 A 
HETATM    2  C   UNL     1       6.121  27.428  52.579  1.00  0.00     0.202 A 
HETATM    3  N   UNL     1       5.617  28.207  51.442  1.00  0.00    -0.083 N 
HETATM    4  C   UNL     1       4.872  27.680  50.426  1.00  0.00     0.726 A 
HETATM    5  N   UNL     1       4.547  26.378  50.459  1.00  0.00    -0.192 N 
HETATM    6  N   UNL     1       5.946  29.494  51.197  1.00  0.00    -0.140 NA
HETATM    7  C   UNL     1       5.283  29.705  50.049  1.00  0.00     0.166 A 
HETATM    8  N   UNL     1       4.618  28.611  49.544  1.00  0.00    -0.046 NA
HETATM    9  C   UNL     1       4.918  25.516  51.484  1.00  0.00     0.037 A 
HETATM   10  C   UNL     1       4.455  24.087  51.324  1.00  0.00     0.070 C 
HETATM   11  H   UNL     1       3.985  25.997  49.702  1.00  0.00     0.184 HD
ENDROOT
BRANCH   1  12
HETATM   12  C   UNL     1       5.947  25.076  53.689  1.00  0.00     0.256 C 
HETATM   13  N   UNL     1       7.139  24.381  53.625  1.00  0.00    -0.323 N 
HETATM   14  H   UNL     1       7.842  24.700  52.977  1.00  0.00     0.169 HD
HETATM   15  O   UNL     1       5.177  25.078  54.644  1.00  0.00    -0.267 OA
BRANCH  13  16
HETATM   16  C   UNL     1       7.632  23.545  54.656  1.00  0.00     0.041 A 
HETATM   17  C   UNL     1       7.908  22.173  54.516  1.00  0.00    -0.035 A 
HETATM   18  C   UNL     1       7.837  21.425  53.213  1.00  0.00     0.050 C 
HETATM   19  C   UNL     1       8.325  21.447  55.647  1.00  0.00     0.009 A 
HETATM   20  C   UNL     1       8.521  22.074  56.878  1.00  0.00     0.001 A 
HETATM   21  C   UNL     1       8.317  23.443  56.992  1.00  0.00     0.002 A 
HETATM   22  C   UNL     1       7.888  24.176  55.886  1.00  0.00     0.030 A 
ENDBRANCH  13  16
ENDBRANCH   1  12
BRANCH   2  23
HETATM   23  C   UNL     1       5.785  28.138  53.890  1.00  0.00    -0.026 A 
HETATM   24  C   UNL     1       6.822  28.506  54.767  1.00  0.00     0.035 A 
HETATM   25  C   UNL     1       6.543  29.133  55.988  1.00  0.00     0.056 A 
HETATM   26 CL   UNL     1       7.879  29.514  57.014  1.00  0.00    -0.083 Cl
HETATM   27  C   UNL     1       5.220  29.413  56.340  1.00  0.00     0.055 A 
HETATM   28 CL   UNL     1       4.800  30.177  57.831  1.00  0.00    -0.083 Cl
HETATM   29  C   UNL     1       4.185  29.070  55.466  1.00  0.00     0.026 A 
HETATM   30  C   UNL     1       4.463  28.440  54.249  1.00  0.00     0.011 A 
ENDBRANCH   2  23
BRANCH   7  31
HETATM   31  C   UNL     1       5.289  31.008  49.339  1.00  0.00     0.085 C 
BRANCH  31  32
HETATM   32  C   UNL     1       5.977  32.120  50.128  1.00  0.00     0.034 C 
BRANCH  32  33
HETATM   33  C   UNL     1       5.006  32.961  50.951  1.00  0.00     0.164 C 
BRANCH  33  34
HETATM   34  O   UNL     1       5.674  33.470  52.100  1.00  0.00    -0.401 OA
HETATM   35  H   UNL     1       6.237  32.759  52.451  1.00  0.00     0.209 HD
ENDBRANCH  33  34
ENDBRANCH  32  33
ENDBRANCH  31  32
ENDBRANCH   7  31
TORSDOF 7
ENDMDL
MODEL 10
REMARK VINA RESULT:      -8.2      8.359     10.980
REMARK  7 active torsions:
REMARK  status: ('A' for Active; 'I' for Inactive)
REMARK    1  A    between atoms: C_3  and  N_4 
REMARK       I    between atoms: N_4  and  C_5 
REMARK    2  A    between atoms: C_5  and  C_6 
REMARK    3  A    between atoms: C_7  and  C_8 
REMARK    4  A    between atoms: C_20  and  C_21 
REMARK    5  A    between atoms: C_21  and  C_22 
REMARK    6  A    between atoms: C_22  and  C_23 
REMARK    7  A    between atoms: C_23  and  O_24 
ROOT
HETATM    1  C   UNL     1       6.319  26.259  52.567  1.00  0.00     0.062 A 
HETATM    2  C   UNL     1       6.695  27.736  52.641  1.00  0.00     0.202 A 
HETATM    3  N   UNL     1       5.672  28.596  52.036  1.00  0.00    -0.083 N 
HETATM    4  C   UNL     1       4.542  28.127  51.429  1.00  0.00     0.726 A 
HETATM    5  N   UNL     1       4.318  26.803  51.394  1.00  0.00    -0.192 N 
HETATM    6  N   UNL     1       5.795  29.932  51.884  1.00  0.00    -0.140 NA
HETATM    7  C   UNL     1       4.646  30.216  51.249  1.00  0.00     0.166 A 
HETATM    8  N   UNL     1       3.856  29.131  50.949  1.00  0.00    -0.046 NA
HETATM    9  C   UNL     1       5.173  25.861  51.953  1.00  0.00     0.037 A 
HETATM   10  C   UNL     1       4.739  24.423  51.797  1.00  0.00     0.070 C 
HETATM   11  H   UNL     1       3.469  26.464  50.949  1.00  0.00     0.184 HD
ENDROOT
BRANCH   1  12
HETATM   12  C   UNL     1       7.168  25.254  53.283  1.00  0.00     0.256 C 
HETATM   13  N   UNL     1       6.673  24.818  54.496  1.00  0.00    -0.323 N 
HETATM   14  H   UNL     1       5.698  24.977  54.697  1.00  0.00     0.169 HD
HETATM   15  O   UNL     1       8.173  24.820  52.729  1.00  0.00    -0.267 OA
BRANCH  13  16
HETATM   16  C   UNL     1       7.276  23.814  55.291  1.00  0.00     0.041 A 
HETATM   17  C   UNL     1       7.848  24.028  56.558  1.00  0.00    -0.035 A 
HETATM   18  C   UNL     1       7.784  25.331  57.306  1.00  0.00     0.050 C 
HETATM   19  C   UNL     1       8.481  22.950  57.206  1.00  0.00     0.009 A 
HETATM   20  C   UNL     1       8.500  21.675  56.640  1.00  0.00     0.001 A 
HETATM   21  C   UNL     1       7.871  21.455  55.421  1.00  0.00     0.002 A 
HETATM   22  C   UNL     1       7.253  22.514  54.757  1.00  0.00     0.030 A 
ENDBRANCH  13  16
ENDBRANCH   1  12
BRANCH   2  23
HETATM   23  C   UNL     1       7.024  28.226  54.050  1.00  0.00    -0.026 A 
HETATM   24  C   UNL     1       5.987  28.405  54.985  1.00  0.00     0.035 A 
HETATM   25  C   UNL     1       6.256  28.879  56.275  1.00  0.00     0.056 A 
HETATM   26 CL   UNL     1       4.914  29.099  57.340  1.00  0.00    -0.083 Cl
HETATM   27  C   UNL     1       7.570  29.168  56.651  1.00  0.00     0.055 A 
HETATM   28 CL   UNL     1       7.975  29.763  58.221  1.00  0.00    -0.083 Cl
HETATM   29  C   UNL     1       8.609  28.975  55.737  1.00  0.00     0.026 A 
HETATM   30  C   UNL     1       8.341  28.506  54.447  1.00  0.00     0.011 A 
ENDBRANCH   2  23
BRANCH   7  31
HETATM   31  C   UNL     1       4.260  31.594  50.856  1.00  0.00     0.085 C 
BRANCH  31  32
HETATM   32  C   UNL     1       5.440  32.440  50.384  1.00  0.00     0.034 C 
BRANCH  32  33
HETATM   33  C   UNL     1       5.921  32.072  48.985  1.00  0.00     0.164 C 
BRANCH  33  34
HETATM   34  O   UNL     1       6.817  33.072  48.511  1.00  0.00    -0.401 OA
HETATM   35  H   UNL     1       6.993  33.681  49.248  1.00  0.00     0.209 HD
ENDBRANCH  33  34
ENDBRANCH  32  33
ENDBRANCH  31  32
ENDBRANCH   7  31
TORSDOF 7
ENDMDL
