MODEL 1
REMARK VINA RESULT:      -9.0      0.000      0.000
REMARK  9 active torsions:
REMARK  status: ('A' for Active; 'I' for Inactive)
REMARK    1  A    between atoms: C_3  and  C_4 
REMARK       I    between atoms: C_4  and  N_5 
REMARK    2  A    between atoms: N_5  and  N_6 
REMARK    3  A    between atoms: N_6  and  C_7 
REMARK    4  A    between atoms: C_7  and  N_8 
REMARK    5  A    between atoms: N_8  and  C_9 
REMARK    6  A    between atoms: C_9  and  C_10 
REMARK    7  A    between atoms: C_18  and  C_19 
REMARK    8  A    between atoms: C_19  and  O_20 
REMARK    9  A    between atoms: O_20  and  C_21 
ROOT
HETATM    1  C   UNL     1       7.479  25.625  54.295  1.00  0.00     0.069 A 
HETATM    2  C   UNL     1       7.675  25.241  52.967  1.00  0.00     0.038 A 
HETATM    3  C   UNL     1       7.809  23.886  52.639  1.00  0.00     0.025 A 
HETATM    4  C   UNL     1       7.750  22.908  53.636  1.00  0.00     0.044 A 
HETATM    5  C   UNL     1       7.886  21.523  53.295  1.00  0.00     0.099 C 
HETATM    6  N   UNL     1       7.996  20.403  53.009  1.00  0.00    -0.191 NA
HETATM    7  C   UNL     1       7.554  23.291  54.965  1.00  0.00     0.025 A 
HETATM    8  C   UNL     1       7.419  24.644  55.288  1.00  0.00     0.038 A 
ENDROOT
BRANCH   1   9
HETATM    9  O   UNL     1       7.329  26.908  54.749  1.00  0.00    -0.347 OA
BRANCH   9  10
HETATM   10  C   UNL     1       7.077  27.065  56.142  1.00  0.00     0.214 C 
BRANCH  10  11
HETATM   11  C   UNL     1       7.979  28.137  56.701  1.00  0.00    -0.033 A 
HETATM   12  C   UNL     1       7.760  28.644  57.994  1.00  0.00     0.026 A 
HETATM   13  C   UNL     1       8.510  29.725  58.468  1.00  0.00     0.034 A 
HETATM   14  C   UNL     1       9.554  30.233  57.679  1.00  0.00     0.017 A 
HETATM   15  C   UNL     1       9.815  29.697  56.419  1.00  0.00     0.002 A 
HETATM   16  C   UNL     1       9.023  28.663  55.927  1.00  0.00     0.009 A 
BRANCH  13  17
HETATM   17  C   UNL     1       8.297  30.353  59.799  1.00  0.00     0.270 C 
HETATM   18  N   UNL     1       7.203  31.145  60.073  1.00  0.00    -0.264 N 
HETATM   19  H   UNL     1       7.208  31.586  60.992  1.00  0.00     0.190 HD
HETATM   20  O   UNL     1       9.144  30.175  60.676  1.00  0.00    -0.266 OA
BRANCH  18  21
HETATM   21  N   UNL     1       6.272  31.654  59.162  1.00  0.00    -0.274 N 
HETATM   22  H   UNL     1       6.602  31.971  58.249  1.00  0.00     0.189 HD
BRANCH  21  23
HETATM   23  C   UNL     1       5.115  32.242  59.614  1.00  0.00     0.186 C 
HETATM   24  S   UNL     1       4.341  33.547  58.912  1.00  0.00    -0.040 SA
BRANCH  23  25
HETATM   25  N   UNL     1       4.601  31.736  60.776  1.00  0.00    -0.364 N 
HETATM   26  H   UNL     1       4.104  30.861  60.649  1.00  0.00     0.162 HD
BRANCH  25  27
HETATM   27  C   UNL     1       4.297  32.503  61.980  1.00  0.00     0.154 C 
BRANCH  27  28
HETATM   28  C   UNL     1       5.385  32.454  63.061  1.00  0.00     0.139 C 
HETATM   29  O   UNL     1       4.797  32.612  64.370  1.00  0.00    -0.384 OA
HETATM   30  C   UNL     1       5.506  33.656  65.053  1.00  0.00     0.168 C 
HETATM   31  C   UNL     1       6.112  34.527  63.978  1.00  0.00     0.029 C 
HETATM   32  C   UNL     1       6.465  33.518  62.915  1.00  0.00     0.035 C 
ENDBRANCH  27  28
ENDBRANCH  25  27
ENDBRANCH  23  25
ENDBRANCH  21  23
ENDBRANCH  18  21
ENDBRANCH  13  17
ENDBRANCH  10  11
ENDBRANCH   9  10
ENDBRANCH   1   9
TORSDOF 9
ENDMDL
MODEL 2
REMARK VINA RESULT:      -8.9      2.966     10.251
REMARK  9 active torsions:
REMARK  status: ('A' for Active; 'I' for Inactive)
REMARK    1  A    between atoms: C_3  and  C_4 
REMARK       I    between atoms: C_4  and  N_5 
REMARK    2  A    between atoms: N_5  and  N_6 
REMARK    3  A    between atoms: N_6  and  C_7 
REMARK    4  A    between atoms: C_7  and  N_8 
REMARK    5  A    between atoms: N_8  and  C_9 
REMARK    6  A    between atoms: C_9  and  C_10 
REMARK    7  A    between atoms: C_18  and  C_19 
REMARK    8  A    between atoms: C_19  and  O_20 
REMARK    9  A    between atoms: O_20  and  C_21 
ROOT
HETATM    1  C   UNL     1       7.433  31.887  62.380  1.00  0.00     0.069 A 
HETATM    2  C   UNL     1       8.142  32.550  63.385  1.00  0.00     0.038 A 
HETATM    3  C   UNL     1       7.458  33.174  64.435  1.00  0.00     0.025 A 
HETATM    4  C   UNL     1       6.061  33.140  64.487  1.00  0.00     0.044 A 
HETATM    5  C   UNL     1       5.365  33.778  65.566  1.00  0.00     0.099 C 
HETATM    6  N   UNL     1       4.810  34.297  66.444  1.00  0.00    -0.191 NA
HETATM    7  C   UNL     1       5.351  32.478  63.483  1.00  0.00     0.025 A 
HETATM    8  C   UNL     1       6.037  31.855  62.437  1.00  0.00     0.038 A 
ENDROOT
BRANCH   1   9
HETATM    9  O   UNL     1       7.976  31.237  61.306  1.00  0.00    -0.347 OA
BRANCH   9  10
HETATM   10  C   UNL     1       8.532  32.054  60.280  1.00  0.00     0.214 C 
BRANCH  10  11
HETATM   11  C   UNL     1       8.988  31.187  59.133  1.00  0.00    -0.033 A 
HETATM   12  C   UNL     1       8.242  30.054  58.762  1.00  0.00     0.026 A 
HETATM   13  C   UNL     1       8.725  29.175  57.787  1.00  0.00     0.034 A 
HETATM   14  C   UNL     1       9.913  29.490  57.111  1.00  0.00     0.017 A 
HETATM   15  C   UNL     1      10.630  30.641  57.433  1.00  0.00     0.002 A 
HETATM   16  C   UNL     1      10.176  31.479  58.449  1.00  0.00     0.009 A 
BRANCH  13  17
HETATM   17  C   UNL     1       8.023  27.929  57.384  1.00  0.00     0.270 C 
HETATM   18  N   UNL     1       7.395  27.798  56.164  1.00  0.00    -0.264 N 
HETATM   19  H   UNL     1       6.879  26.929  56.033  1.00  0.00     0.190 HD
HETATM   20  O   UNL     1       7.983  26.991  58.182  1.00  0.00    -0.266 OA
BRANCH  18  21
HETATM   21  N   UNL     1       7.126  28.808  55.233  1.00  0.00    -0.274 N 
HETATM   22  H   UNL     1       7.810  29.558  55.112  1.00  0.00     0.189 HD
BRANCH  21  23
HETATM   23  C   UNL     1       5.828  29.129  54.921  1.00  0.00     0.186 C 
HETATM   24  S   UNL     1       4.818  30.110  55.823  1.00  0.00    -0.040 SA
BRANCH  23  25
HETATM   25  N   UNL     1       5.318  28.537  53.798  1.00  0.00    -0.364 N 
HETATM   26  H   UNL     1       4.329  28.323  53.870  1.00  0.00     0.162 HD
BRANCH  25  27
HETATM   27  C   UNL     1       6.085  27.803  52.797  1.00  0.00     0.154 C 
BRANCH  27  28
HETATM   28  C   UNL     1       6.052  26.277  52.959  1.00  0.00     0.139 C 
HETATM   29  O   UNL     1       6.799  25.882  54.129  1.00  0.00    -0.384 OA
HETATM   30  C   UNL     1       7.732  24.864  53.739  1.00  0.00     0.168 C 
HETATM   31  C   UNL     1       7.975  25.060  52.261  1.00  0.00     0.029 C 
HETATM   32  C   UNL     1       6.620  25.507  51.774  1.00  0.00     0.035 C 
ENDBRANCH  27  28
ENDBRANCH  25  27
ENDBRANCH  23  25
ENDBRANCH  21  23
ENDBRANCH  18  21
ENDBRANCH  13  17
ENDBRANCH  10  11
ENDBRANCH   9  10
ENDBRANCH   1   9
TORSDOF 9
ENDMDL
MODEL 3
REMARK VINA RESULT:      -8.8      1.848      2.448
REMARK  9 active torsions:
REMARK  status: ('A' for Active; 'I' for Inactive)
REMARK    1  A    between atoms: C_3  and  C_4 
REMARK       I    between atoms: C_4  and  N_5 
REMARK    2  A    between atoms: N_5  and  N_6 
REMARK    3  A    between atoms: N_6  and  C_7 
REMARK    4  A    between atoms: C_7  and  N_8 
REMARK    5  A    between atoms: N_8  and  C_9 
REMARK    6  A    between atoms: C_9  and  C_10 
REMARK    7  A    between atoms: C_18  and  C_19 
REMARK    8  A    between atoms: C_19  and  O_20 
REMARK    9  A    between atoms: O_20  and  C_21 
ROOT
HETATM    1  C   UNL     1       7.232  24.766  54.827  1.00  0.00     0.069 A 
HETATM    2  C   UNL     1       7.622  24.602  53.497  1.00  0.00     0.038 A 
HETATM    3  C   UNL     1       7.982  23.336  53.018  1.00  0.00     0.025 A 
HETATM    4  C   UNL     1       7.954  22.226  53.868  1.00  0.00     0.044 A 
HETATM    5  C   UNL     1       8.321  20.932  53.374  1.00  0.00     0.099 C 
HETATM    6  N   UNL     1       8.618  19.887  52.964  1.00  0.00    -0.191 NA
HETATM    7  C   UNL     1       7.564  22.388  55.199  1.00  0.00     0.025 A 
HETATM    8  C   UNL     1       7.205  23.653  55.672  1.00  0.00     0.038 A 
ENDROOT
BRANCH   1   9
HETATM    9  O   UNL     1       6.854  25.941  55.418  1.00  0.00    -0.347 OA
BRANCH   9  10
HETATM   10  C   UNL     1       7.575  26.329  56.583  1.00  0.00     0.214 C 
BRANCH  10  11
HETATM   11  C   UNL     1       7.093  27.681  57.049  1.00  0.00    -0.033 A 
HETATM   12  C   UNL     1       5.788  28.109  56.750  1.00  0.00     0.026 A 
HETATM   13  C   UNL     1       5.377  29.408  57.066  1.00  0.00     0.034 A 
HETATM   14  C   UNL     1       6.249  30.247  57.776  1.00  0.00     0.017 A 
HETATM   15  C   UNL     1       7.526  29.811  58.126  1.00  0.00     0.002 A 
HETATM   16  C   UNL     1       7.951  28.538  57.753  1.00  0.00     0.009 A 
BRANCH  13  17
HETATM   17  C   UNL     1       4.035  29.951  56.730  1.00  0.00     0.270 C 
HETATM   18  N   UNL     1       3.204  30.501  57.682  1.00  0.00    -0.264 N 
HETATM   19  H   UNL     1       2.277  30.764  57.347  1.00  0.00     0.190 HD
HETATM   20  O   UNL     1       3.647  29.881  55.563  1.00  0.00    -0.266 OA
BRANCH  18  21
HETATM   21  N   UNL     1       3.356  30.458  59.072  1.00  0.00    -0.274 N 
HETATM   22  H   UNL     1       2.969  29.663  59.583  1.00  0.00     0.189 HD
BRANCH  21  23
HETATM   23  C   UNL     1       3.477  31.625  59.788  1.00  0.00     0.186 C 
HETATM   24  S   UNL     1       3.769  33.141  59.149  1.00  0.00    -0.040 SA
BRANCH  23  25
HETATM   25  N   UNL     1       3.406  31.501  61.149  1.00  0.00    -0.364 N 
HETATM   26  H   UNL     1       2.796  30.751  61.454  1.00  0.00     0.162 HD
BRANCH  25  27
HETATM   27  C   UNL     1       3.701  32.552  62.118  1.00  0.00     0.154 C 
BRANCH  27  28
HETATM   28  C   UNL     1       5.018  32.364  62.883  1.00  0.00     0.139 C 
HETATM   29  O   UNL     1       4.805  32.554  64.298  1.00  0.00    -0.384 OA
HETATM   30  C   UNL     1       5.772  33.502  64.772  1.00  0.00     0.168 C 
HETATM   31  C   UNL     1       6.173  34.329  63.573  1.00  0.00     0.029 C 
HETATM   32  C   UNL     1       6.132  33.313  62.460  1.00  0.00     0.035 C 
ENDBRANCH  27  28
ENDBRANCH  25  27
ENDBRANCH  23  25
ENDBRANCH  21  23
ENDBRANCH  18  21
ENDBRANCH  13  17
ENDBRANCH  10  11
ENDBRANCH   9  10
ENDBRANCH   1   9
TORSDOF 9
ENDMDL
MODEL 4
REMARK VINA RESULT:      -8.6      1.938      2.364
REMARK  9 active torsions:
REMARK  status: ('A' for Active; 'I' for Inactive)
REMARK    1  A    between atoms: C_3  and  C_4 
REMARK       I    between atoms: C_4  and  N_5 
REMARK    2  A    between atoms: N_5  and  N_6 
REMARK    3  A    between atoms: N_6  and  C_7 
REMARK    4  A    between atoms: C_7  and  N_8 
REMARK    5  A    between atoms: N_8  and  C_9 
REMARK    6  A    between atoms: C_9  and  C_10 
REMARK    7  A    between atoms: C_18  and  C_19 
REMARK    8  A    between atoms: C_19  and  O_20 
REMARK    9  A    between atoms: O_20  and  C_21 
ROOT
HETATM    1  C   UNL     1       7.252  25.198  54.739  1.00  0.00     0.069 A 
HETATM    2  C   UNL     1       7.361  24.126  55.628  1.00  0.00     0.038 A 
HETATM    3  C   UNL     1       7.634  22.839  55.149  1.00  0.00     0.025 A 
HETATM    4  C   UNL     1       7.798  22.615  53.778  1.00  0.00     0.044 A 
HETATM    5  C   UNL     1       8.079  21.296  53.293  1.00  0.00     0.099 C 
HETATM    6  N   UNL     1       8.308  20.224  52.909  1.00  0.00    -0.191 NA
HETATM    7  C   UNL     1       7.689  23.686  52.889  1.00  0.00     0.025 A 
HETATM    8  C   UNL     1       7.419  24.970  53.371  1.00  0.00     0.038 A 
ENDROOT
BRANCH   1   9
HETATM    9  O   UNL     1       6.995  26.499  55.074  1.00  0.00    -0.347 OA
BRANCH   9  10
HETATM   10  C   UNL     1       6.545  26.737  56.405  1.00  0.00     0.214 C 
BRANCH  10  11
HETATM   11  C   UNL     1       7.294  27.910  56.988  1.00  0.00    -0.033 A 
HETATM   12  C   UNL     1       6.591  29.021  57.487  1.00  0.00     0.026 A 
HETATM   13  C   UNL     1       7.278  30.164  57.910  1.00  0.00     0.034 A 
HETATM   14  C   UNL     1       8.681  30.151  57.927  1.00  0.00     0.017 A 
HETATM   15  C   UNL     1       9.386  29.031  57.488  1.00  0.00     0.002 A 
HETATM   16  C   UNL     1       8.696  27.921  57.009  1.00  0.00     0.009 A 
BRANCH  13  17
HETATM   17  C   UNL     1       6.604  31.397  58.393  1.00  0.00     0.270 C 
HETATM   18  N   UNL     1       6.660  31.799  59.711  1.00  0.00    -0.264 N 
HETATM   19  H   UNL     1       6.092  32.615  59.938  1.00  0.00     0.190 HD
HETATM   20  O   UNL     1       5.954  32.067  57.589  1.00  0.00    -0.266 OA
BRANCH  18  21
HETATM   21  N   UNL     1       7.135  31.068  60.804  1.00  0.00    -0.274 N 
HETATM   22  H   UNL     1       7.242  30.056  60.708  1.00  0.00     0.189 HD
BRANCH  21  23
HETATM   23  C   UNL     1       6.928  31.526  62.083  1.00  0.00     0.186 C 
HETATM   24  S   UNL     1       8.069  32.267  63.054  1.00  0.00    -0.040 SA
BRANCH  23  25
HETATM   25  N   UNL     1       5.688  31.292  62.609  1.00  0.00    -0.364 N 
HETATM   26  H   UNL     1       5.610  30.393  63.073  1.00  0.00     0.162 HD
BRANCH  25  27
HETATM   27  C   UNL     1       4.445  31.927  62.181  1.00  0.00     0.154 C 
BRANCH  27  28
HETATM   28  C   UNL     1       4.162  33.285  62.839  1.00  0.00     0.139 C 
HETATM   29  O   UNL     1       2.750  33.427  63.101  1.00  0.00    -0.384 OA
HETATM   30  C   UNL     1       2.318  34.680  62.549  1.00  0.00     0.168 C 
HETATM   31  C   UNL     1       3.299  35.015  61.450  1.00  0.00     0.029 C 
HETATM   32  C   UNL     1       4.595  34.487  62.010  1.00  0.00     0.035 C 
ENDBRANCH  27  28
ENDBRANCH  25  27
ENDBRANCH  23  25
ENDBRANCH  21  23
ENDBRANCH  18  21
ENDBRANCH  13  17
ENDBRANCH  10  11
ENDBRANCH   9  10
ENDBRANCH   1   9
TORSDOF 9
ENDMDL
MODEL 5
REMARK VINA RESULT:      -8.5      1.884      2.806
REMARK  9 active torsions:
REMARK  status: ('A' for Active; 'I' for Inactive)
REMARK    1  A    between atoms: C_3  and  C_4 
REMARK       I    between atoms: C_4  and  N_5 
REMARK    2  A    between atoms: N_5  and  N_6 
REMARK    3  A    between atoms: N_6  and  C_7 
REMARK    4  A    between atoms: C_7  and  N_8 
REMARK    5  A    between atoms: N_8  and  C_9 
REMARK    6  A    between atoms: C_9  and  C_10 
REMARK    7  A    between atoms: C_18  and  C_19 
REMARK    8  A    between atoms: C_19  and  O_20 
REMARK    9  A    between atoms: O_20  and  C_21 
ROOT
HETATM    1  C   UNL     1       7.206  24.781  54.862  1.00  0.00     0.069 A 
HETATM    2  C   UNL     1       7.629  24.661  53.537  1.00  0.00     0.038 A 
HETATM    3  C   UNL     1       8.002  23.412  53.026  1.00  0.00     0.025 A 
HETATM    4  C   UNL     1       7.955  22.275  53.839  1.00  0.00     0.044 A 
HETATM    5  C   UNL     1       8.336  20.997  53.311  1.00  0.00     0.099 C 
HETATM    6  N   UNL     1       8.645  19.966  52.875  1.00  0.00    -0.191 NA
HETATM    7  C   UNL     1       7.533  22.393  55.164  1.00  0.00     0.025 A 
HETATM    8  C   UNL     1       7.160  23.641  55.670  1.00  0.00     0.038 A 
ENDROOT
BRANCH   1   9
HETATM    9  O   UNL     1       6.812  25.936  55.482  1.00  0.00    -0.347 OA
BRANCH   9  10
HETATM   10  C   UNL     1       7.493  26.277  56.685  1.00  0.00     0.214 C 
BRANCH  10  11
HETATM   11  C   UNL     1       7.066  27.653  57.134  1.00  0.00    -0.033 A 
HETATM   12  C   UNL     1       5.747  28.090  56.922  1.00  0.00     0.026 A 
HETATM   13  C   UNL     1       5.379  29.407  57.218  1.00  0.00     0.034 A 
HETATM   14  C   UNL     1       6.315  30.258  57.824  1.00  0.00     0.017 A 
HETATM   15  C   UNL     1       7.609  29.815  58.091  1.00  0.00     0.002 A 
HETATM   16  C   UNL     1       7.987  28.522  57.736  1.00  0.00     0.009 A 
BRANCH  13  17
HETATM   17  C   UNL     1       4.022  29.957  56.966  1.00  0.00     0.270 C 
HETATM   18  N   UNL     1       3.293  30.597  57.946  1.00  0.00    -0.264 N 
HETATM   19  H   UNL     1       2.344  30.858  57.679  1.00  0.00     0.190 HD
HETATM   20  O   UNL     1       3.526  29.813  55.848  1.00  0.00    -0.266 OA
BRANCH  18  21
HETATM   21  N   UNL     1       3.572  30.651  59.316  1.00  0.00    -0.274 N 
HETATM   22  H   UNL     1       3.143  29.958  59.931  1.00  0.00     0.189 HD
BRANCH  21  23
HETATM   23  C   UNL     1       3.905  31.847  59.905  1.00  0.00     0.186 C 
HETATM   24  S   UNL     1       3.553  33.366  59.303  1.00  0.00    -0.040 SA
BRANCH  23  25
HETATM   25  N   UNL     1       4.638  31.763  61.056  1.00  0.00    -0.364 N 
HETATM   26  H   UNL     1       4.542  30.872  61.531  1.00  0.00     0.162 HD
BRANCH  25  27
HETATM   27  C   UNL     1       5.107  32.893  61.853  1.00  0.00     0.154 C 
BRANCH  27  28
HETATM   28  C   UNL     1       6.613  33.170  61.743  1.00  0.00     0.139 C 
HETATM   29  O   UNL     1       7.189  32.387  60.677  1.00  0.00    -0.384 OA
HETATM   30  C   UNL     1       8.326  31.686  61.203  1.00  0.00     0.168 C 
HETATM   31  C   UNL     1       8.094  31.565  62.691  1.00  0.00     0.029 C 
HETATM   32  C   UNL     1       7.401  32.866  63.011  1.00  0.00     0.035 C 
ENDBRANCH  27  28
ENDBRANCH  25  27
ENDBRANCH  23  25
ENDBRANCH  21  23
ENDBRANCH  18  21
ENDBRANCH  13  17
ENDBRANCH  10  11
ENDBRANCH   9  10
ENDBRANCH   1   9
TORSDOF 9
ENDMDL
MODEL 6
REMARK VINA RESULT:      -8.5      4.273     10.631
REMARK  9 active torsions:
REMARK  status: ('A' for Active; 'I' for Inactive)
REMARK    1  A    between atoms: C_3  and  C_4 
REMARK       I    between atoms: C_4  and  N_5 
REMARK    2  A    between atoms: N_5  and  N_6 
REMARK    3  A    between atoms: N_6  and  C_7 
REMARK    4  A    between atoms: C_7  and  N_8 
REMARK    5  A    between atoms: N_8  and  C_9 
REMARK    6  A    between atoms: C_9  and  C_10 
REMARK    7  A    between atoms: C_18  and  C_19 
REMARK    8  A    between atoms: C_19  and  O_20 
REMARK    9  A    between atoms: O_20  and  C_21 
ROOT
HETATM    1  C   UNL     1       5.586  33.557  64.800  1.00  0.00     0.069 A 
HETATM    2  C   UNL     1       4.413  33.750  65.533  1.00  0.00     0.038 A 
HETATM    3  C   UNL     1       4.478  34.118  66.882  1.00  0.00     0.025 A 
HETATM    4  C   UNL     1       5.717  34.294  67.507  1.00  0.00     0.044 A 
HETATM    5  C   UNL     1       5.779  34.672  68.888  1.00  0.00     0.099 C 
HETATM    6  N   UNL     1       5.819  34.980  70.007  1.00  0.00    -0.191 NA
HETATM    7  C   UNL     1       6.890  34.101  66.775  1.00  0.00     0.025 A 
HETATM    8  C   UNL     1       6.821  33.735  65.428  1.00  0.00     0.038 A 
ENDROOT
BRANCH   1   9
HETATM    9  O   UNL     1       5.662  33.203  63.480  1.00  0.00    -0.347 OA
BRANCH   9  10
HETATM   10  C   UNL     1       6.722  33.782  62.725  1.00  0.00     0.214 C 
BRANCH  10  11
HETATM   11  C   UNL     1       7.628  32.692  62.208  1.00  0.00    -0.033 A 
HETATM   12  C   UNL     1       7.976  32.647  60.846  1.00  0.00     0.026 A 
HETATM   13  C   UNL     1       8.708  31.570  60.336  1.00  0.00     0.034 A 
HETATM   14  C   UNL     1       9.179  30.585  61.217  1.00  0.00     0.017 A 
HETATM   15  C   UNL     1       8.886  30.651  62.578  1.00  0.00     0.002 A 
HETATM   16  C   UNL     1       8.103  31.693  63.069  1.00  0.00     0.009 A 
BRANCH  13  17
HETATM   17  C   UNL     1       9.063  31.424  58.900  1.00  0.00     0.270 C 
HETATM   18  N   UNL     1       8.394  30.560  58.060  1.00  0.00    -0.264 N 
HETATM   19  H   UNL     1       8.780  30.486  57.119  1.00  0.00     0.190 HD
HETATM   20  O   UNL     1      10.005  32.083  58.457  1.00  0.00    -0.266 OA
BRANCH  18  21
HETATM   21  N   UNL     1       7.473  29.570  58.416  1.00  0.00    -0.274 N 
HETATM   22  H   UNL     1       7.367  29.331  59.404  1.00  0.00     0.189 HD
BRANCH  21  23
HETATM   23  C   UNL     1       7.151  28.574  57.525  1.00  0.00     0.186 C 
HETATM   24  S   UNL     1       8.160  27.333  57.038  1.00  0.00    -0.040 SA
BRANCH  23  25
HETATM   25  N   UNL     1       5.911  28.659  56.955  1.00  0.00    -0.364 N 
HETATM   26  H   UNL     1       5.323  27.856  57.149  1.00  0.00     0.162 HD
BRANCH  25  27
HETATM   27  C   UNL     1       5.558  29.477  55.799  1.00  0.00     0.154 C 
BRANCH  27  28
HETATM   28  C   UNL     1       4.844  30.793  56.141  1.00  0.00     0.139 C 
HETATM   29  O   UNL     1       5.617  31.546  57.098  1.00  0.00    -0.384 OA
HETATM   30  C   UNL     1       4.753  31.903  58.187  1.00  0.00     0.168 C 
HETATM   31  C   UNL     1       3.639  30.883  58.191  1.00  0.00     0.029 C 
HETATM   32  C   UNL     1       3.447  30.617  56.720  1.00  0.00     0.035 C 
ENDBRANCH  27  28
ENDBRANCH  25  27
ENDBRANCH  23  25
ENDBRANCH  21  23
ENDBRANCH  18  21
ENDBRANCH  13  17
ENDBRANCH  10  11
ENDBRANCH   9  10
ENDBRANCH   1   9
TORSDOF 9
ENDMDL
MODEL 7
REMARK VINA RESULT:      -8.5      4.256      6.951
REMARK  9 active torsions:
REMARK  status: ('A' for Active; 'I' for Inactive)
REMARK    1  A    between atoms: C_3  and  C_4 
REMARK       I    between atoms: C_4  and  N_5 
REMARK    2  A    between atoms: N_5  and  N_6 
REMARK    3  A    between atoms: N_6  and  C_7 
REMARK    4  A    between atoms: C_7  and  N_8 
REMARK    5  A    between atoms: N_8  and  C_9 
REMARK    6  A    between atoms: C_9  and  C_10 
REMARK    7  A    between atoms: C_18  and  C_19 
REMARK    8  A    between atoms: C_19  and  O_20 
REMARK    9  A    between atoms: O_20  and  C_21 
ROOT
HETATM    1  C   UNL     1       5.562  26.785  51.061  1.00  0.00     0.069 A 
HETATM    2  C   UNL     1       4.915  25.949  50.149  1.00  0.00     0.038 A 
HETATM    3  C   UNL     1       4.149  26.496  49.113  1.00  0.00     0.025 A 
HETATM    4  C   UNL     1       4.024  27.882  48.983  1.00  0.00     0.044 A 
HETATM    5  C   UNL     1       3.240  28.438  47.919  1.00  0.00     0.099 C 
HETATM    6  N   UNL     1       2.605  28.879  47.053  1.00  0.00    -0.191 NA
HETATM    7  C   UNL     1       4.671  28.720  49.894  1.00  0.00     0.025 A 
HETATM    8  C   UNL     1       5.436  28.170  50.926  1.00  0.00     0.038 A 
ENDROOT
BRANCH   1   9
HETATM    9  O   UNL     1       6.341  26.382  52.112  1.00  0.00    -0.347 OA
BRANCH   9  10
HETATM   10  C   UNL     1       7.242  25.307  51.862  1.00  0.00     0.214 C 
BRANCH  10  11
HETATM   11  C   UNL     1       7.321  24.420  53.079  1.00  0.00    -0.033 A 
HETATM   12  C   UNL     1       7.205  24.972  54.367  1.00  0.00     0.026 A 
HETATM   13  C   UNL     1       7.405  24.178  55.500  1.00  0.00     0.034 A 
HETATM   14  C   UNL     1       7.622  22.801  55.341  1.00  0.00     0.017 A 
HETATM   15  C   UNL     1       7.682  22.235  54.068  1.00  0.00     0.002 A 
HETATM   16  C   UNL     1       7.544  23.043  52.942  1.00  0.00     0.009 A 
BRANCH  13  17
HETATM   17  C   UNL     1       7.357  24.702  56.890  1.00  0.00     0.270 C 
HETATM   18  N   UNL     1       6.253  25.354  57.395  1.00  0.00    -0.264 N 
HETATM   19  H   UNL     1       6.368  25.739  58.332  1.00  0.00     0.190 HD
HETATM   20  O   UNL     1       8.352  24.567  57.605  1.00  0.00    -0.266 OA
BRANCH  18  21
HETATM   21  N   UNL     1       5.137  25.810  56.685  1.00  0.00    -0.274 N 
HETATM   22  H   UNL     1       4.668  25.167  56.044  1.00  0.00     0.189 HD
BRANCH  21  23
HETATM   23  C   UNL     1       5.004  27.146  56.394  1.00  0.00     0.186 C 
HETATM   24  S   UNL     1       4.641  27.789  54.894  1.00  0.00    -0.040 SA
BRANCH  23  25
HETATM   25  N   UNL     1       5.252  28.011  57.424  1.00  0.00    -0.364 N 
HETATM   26  H   UNL     1       4.476  28.097  58.072  1.00  0.00     0.162 HD
BRANCH  25  27
HETATM   27  C   UNL     1       6.231  29.093  57.413  1.00  0.00     0.154 C 
BRANCH  27  28
HETATM   28  C   UNL     1       7.606  28.717  57.983  1.00  0.00     0.139 C 
HETATM   29  O   UNL     1       8.197  29.851  58.651  1.00  0.00    -0.384 OA
HETATM   30  C   UNL     1       9.522  30.033  58.133  1.00  0.00     0.168 C 
HETATM   31  C   UNL     1       9.525  29.410  56.757  1.00  0.00     0.029 C 
HETATM   32  C   UNL     1       8.605  28.230  56.941  1.00  0.00     0.035 C 
ENDBRANCH  27  28
ENDBRANCH  25  27
ENDBRANCH  23  25
ENDBRANCH  21  23
ENDBRANCH  18  21
ENDBRANCH  13  17
ENDBRANCH  10  11
ENDBRANCH   9  10
ENDBRANCH   1   9
TORSDOF 9
ENDMDL
MODEL 8
REMARK VINA RESULT:      -8.5      2.451      4.540
REMARK  9 active torsions:
REMARK  status: ('A' for Active; 'I' for Inactive)
REMARK    1  A    between atoms: C_3  and  C_4 
REMARK       I    between atoms: C_4  and  N_5 
REMARK    2  A    between atoms: N_5  and  N_6 
REMARK    3  A    between atoms: N_6  and  C_7 
REMARK    4  A    between atoms: C_7  and  N_8 
REMARK    5  A    between atoms: N_8  and  C_9 
REMARK    6  A    between atoms: C_9  and  C_10 
REMARK    7  A    between atoms: C_18  and  C_19 
REMARK    8  A    between atoms: C_19  and  O_20 
REMARK    9  A    between atoms: O_20  and  C_21 
ROOT
HETATM    1  C   UNL     1       7.556  25.222  54.607  1.00  0.00     0.069 A 
HETATM    2  C   UNL     1       7.594  24.163  55.517  1.00  0.00     0.038 A 
HETATM    3  C   UNL     1       7.755  22.849  55.062  1.00  0.00     0.025 A 
HETATM    4  C   UNL     1       7.878  22.585  53.694  1.00  0.00     0.044 A 
HETATM    5  C   UNL     1       8.045  21.238  53.233  1.00  0.00     0.099 C 
HETATM    6  N   UNL     1       8.182  20.144  52.868  1.00  0.00    -0.191 NA
HETATM    7  C   UNL     1       7.841  23.643  52.783  1.00  0.00     0.025 A 
HETATM    8  C   UNL     1       7.681  24.954  53.242  1.00  0.00     0.038 A 
ENDROOT
BRANCH   1   9
HETATM    9  O   UNL     1       7.409  26.547  54.918  1.00  0.00    -0.347 OA
BRANCH   9  10
HETATM   10  C   UNL     1       7.088  26.851  56.272  1.00  0.00     0.214 C 
BRANCH  10  11
HETATM   11  C   UNL     1       7.955  27.988  56.753  1.00  0.00    -0.033 A 
HETATM   12  C   UNL     1       7.732  28.563  58.017  1.00  0.00     0.026 A 
HETATM   13  C   UNL     1       8.445  29.698  58.416  1.00  0.00     0.034 A 
HETATM   14  C   UNL     1       9.457  30.198  57.583  1.00  0.00     0.017 A 
HETATM   15  C   UNL     1       9.723  29.600  56.352  1.00  0.00     0.002 A 
HETATM   16  C   UNL     1       8.967  28.508  55.934  1.00  0.00     0.009 A 
BRANCH  13  17
HETATM   17  C   UNL     1       8.224  30.395  59.710  1.00  0.00     0.270 C 
HETATM   18  N   UNL     1       7.190  31.286  59.901  1.00  0.00    -0.264 N 
HETATM   19  H   UNL     1       7.189  31.762  60.802  1.00  0.00     0.190 HD
HETATM   20  O   UNL     1       9.011  30.183  60.634  1.00  0.00    -0.266 OA
BRANCH  18  21
HETATM   21  N   UNL     1       6.348  31.833  58.927  1.00  0.00    -0.274 N 
HETATM   22  H   UNL     1       6.642  32.686  58.447  1.00  0.00     0.189 HD
BRANCH  21  23
HETATM   23  C   UNL     1       4.992  31.623  58.991  1.00  0.00     0.186 C 
HETATM   24  S   UNL     1       3.937  32.362  60.057  1.00  0.00    -0.040 SA
BRANCH  23  25
HETATM   25  N   UNL     1       4.490  30.680  58.138  1.00  0.00    -0.364 N 
HETATM   26  H   UNL     1       4.073  29.887  58.614  1.00  0.00     0.162 HD
BRANCH  25  27
HETATM   27  C   UNL     1       4.899  30.480  56.751  1.00  0.00     0.154 C 
BRANCH  27  28
HETATM   28  C   UNL     1       3.821  29.863  55.849  1.00  0.00     0.139 C 
HETATM   29  O   UNL     1       4.124  28.478  55.583  1.00  0.00    -0.384 OA
HETATM   30  C   UNL     1       4.075  28.275  54.163  1.00  0.00     0.168 C 
HETATM   31  C   UNL     1       4.333  29.625  53.537  1.00  0.00     0.029 C 
HETATM   32  C   UNL     1       3.653  30.559  54.505  1.00  0.00     0.035 C 
ENDBRANCH  27  28
ENDBRANCH  25  27
ENDBRANCH  23  25
ENDBRANCH  21  23
ENDBRANCH  18  21
ENDBRANCH  13  17
ENDBRANCH  10  11
ENDBRANCH   9  10
ENDBRANCH   1   9
TORSDOF 9
ENDMDL
MODEL 9
REMARK VINA RESULT:      -8.2      3.266      6.327
REMARK  9 active torsions:
REMARK  status: ('A' for Active; 'I' for Inactive)
REMARK    1  A    between atoms: C_3  and  C_4 
REMARK       I    between atoms: C_4  and  N_5 
REMARK    2  A    between atoms: N_5  and  N_6 
REMARK    3  A    between atoms: N_6  and  C_7 
REMARK    4  A    between atoms: C_7  and  N_8 
REMARK    5  A    between atoms: N_8  and  C_9 
REMARK    6  A    between atoms: C_9  and  C_10 
REMARK    7  A    between atoms: C_18  and  C_19 
REMARK    8  A    between atoms: C_19  and  O_20 
REMARK    9  A    between atoms: O_20  and  C_21 
ROOT
HETATM    1  C   UNL     1       7.122  24.823  54.699  1.00  0.00     0.069 A 
HETATM    2  C   UNL     1       7.234  23.766  55.604  1.00  0.00     0.038 A 
HETATM    3  C   UNL     1       7.610  22.493  55.158  1.00  0.00     0.025 A 
HETATM    4  C   UNL     1       7.877  22.270  53.804  1.00  0.00     0.044 A 
HETATM    5  C   UNL     1       8.264  20.966  53.352  1.00  0.00     0.099 C 
HETATM    6  N   UNL     1       8.579  19.907  52.995  1.00  0.00    -0.191 NA
HETATM    7  C   UNL     1       7.765  23.326  52.897  1.00  0.00     0.025 A 
HETATM    8  C   UNL     1       7.390  24.595  53.347  1.00  0.00     0.038 A 
ENDROOT
BRANCH   1   9
HETATM    9  O   UNL     1       6.769  26.110  55.002  1.00  0.00    -0.347 OA
BRANCH   9  10
HETATM   10  C   UNL     1       6.327  26.351  56.335  1.00  0.00     0.214 C 
BRANCH  10  11
HETATM   11  C   UNL     1       6.985  27.601  56.866  1.00  0.00    -0.033 A 
HETATM   12  C   UNL     1       6.205  28.714  57.225  1.00  0.00     0.026 A 
HETATM   13  C   UNL     1       6.814  29.918  57.595  1.00  0.00     0.034 A 
HETATM   14  C   UNL     1       8.211  29.972  57.704  1.00  0.00     0.017 A 
HETATM   15  C   UNL     1       8.990  28.855  57.406  1.00  0.00     0.002 A 
HETATM   16  C   UNL     1       8.380  27.678  56.977  1.00  0.00     0.009 A 
BRANCH  13  17
HETATM   17  C   UNL     1       6.058  31.153  57.930  1.00  0.00     0.270 C 
HETATM   18  N   UNL     1       5.349  31.862  56.984  1.00  0.00    -0.264 N 
HETATM   19  H   UNL     1       4.940  32.736  57.315  1.00  0.00     0.190 HD
HETATM   20  O   UNL     1       6.089  31.566  59.090  1.00  0.00    -0.266 OA
BRANCH  18  21
HETATM   21  N   UNL     1       5.382  31.697  55.596  1.00  0.00    -0.274 N 
HETATM   22  H   UNL     1       6.008  32.289  55.046  1.00  0.00     0.189 HD
BRANCH  21  23
HETATM   23  C   UNL     1       4.278  31.220  54.931  1.00  0.00     0.186 C 
HETATM   24  S   UNL     1       2.688  31.610  55.270  1.00  0.00    -0.040 SA
BRANCH  23  25
HETATM   25  N   UNL     1       4.521  30.303  53.947  1.00  0.00    -0.364 N 
HETATM   26  H   UNL     1       4.438  30.685  53.011  1.00  0.00     0.162 HD
BRANCH  25  27
HETATM   27  C   UNL     1       4.412  28.854  54.085  1.00  0.00     0.154 C 
BRANCH  27  28
HETATM   28  C   UNL     1       3.920  28.127  52.826  1.00  0.00     0.139 C 
HETATM   29  O   UNL     1       4.608  26.868  52.674  1.00  0.00    -0.384 OA
HETATM   30  C   UNL     1       5.139  26.808  51.343  1.00  0.00     0.168 C 
HETATM   31  C   UNL     1       5.298  28.240  50.888  1.00  0.00     0.029 C 
HETATM   32  C   UNL     1       4.112  28.910  51.533  1.00  0.00     0.035 C 
ENDBRANCH  27  28
ENDBRANCH  25  27
ENDBRANCH  23  25
ENDBRANCH  21  23
ENDBRANCH  18  21
ENDBRANCH  13  17
ENDBRANCH  10  11
ENDBRANCH   9  10
ENDBRANCH   1   9
TORSDOF 9
ENDMDL
MODEL 10
REMARK VINA RESULT:      -8.2      3.307     11.219
REMARK  9 active torsions:
REMARK  status: ('A' for Active; 'I' for Inactive)
REMARK    1  A    between atoms: C_3  and  C_4 
REMARK       I    between atoms: C_4  and  N_5 
REMARK    2  A    between atoms: N_5  and  N_6 
REMARK    3  A    between atoms: N_6  and  C_7 
REMARK    4  A    between atoms: C_7  and  N_8 
REMARK    5  A    between atoms: N_8  and  C_9 
REMARK    6  A    between atoms: C_9  and  C_10 
REMARK    7  A    between atoms: C_18  and  C_19 
REMARK    8  A    between atoms: C_19  and  O_20 
REMARK    9  A    between atoms: O_20  and  C_21 
ROOT
HETATM    1  C   UNL     1       5.581  33.632  64.638  1.00  0.00     0.069 A 
HETATM    2  C   UNL     1       4.412  33.872  65.364  1.00  0.00     0.038 A 
HETATM    3  C   UNL     1       4.483  34.199  66.724  1.00  0.00     0.025 A 
HETATM    4  C   UNL     1       5.722  34.287  67.366  1.00  0.00     0.044 A 
HETATM    5  C   UNL     1       5.789  34.625  68.757  1.00  0.00     0.099 C 
HETATM    6  N   UNL     1       5.834  34.900  69.885  1.00  0.00    -0.191 NA
HETATM    7  C   UNL     1       6.891  34.047  66.641  1.00  0.00     0.025 A 
HETATM    8  C   UNL     1       6.817  33.722  65.284  1.00  0.00     0.038 A 
ENDROOT
BRANCH   1   9
HETATM    9  O   UNL     1       5.652  33.309  63.310  1.00  0.00    -0.347 OA
BRANCH   9  10
HETATM   10  C   UNL     1       6.733  33.874  62.574  1.00  0.00     0.214 C 
BRANCH  10  11
HETATM   11  C   UNL     1       7.635  32.773  62.074  1.00  0.00    -0.033 A 
HETATM   12  C   UNL     1       7.982  32.705  60.714  1.00  0.00     0.026 A 
HETATM   13  C   UNL     1       8.710  31.617  60.221  1.00  0.00     0.034 A 
HETATM   14  C   UNL     1       9.179  30.645  61.118  1.00  0.00     0.017 A 
HETATM   15  C   UNL     1       8.888  30.735  62.478  1.00  0.00     0.002 A 
HETATM   16  C   UNL     1       8.109  31.788  62.952  1.00  0.00     0.009 A 
BRANCH  13  17
HETATM   17  C   UNL     1       9.063  31.445  58.787  1.00  0.00     0.270 C 
HETATM   18  N   UNL     1       8.346  30.622  57.945  1.00  0.00    -0.264 N 
HETATM   19  H   UNL     1       8.732  30.522  57.007  1.00  0.00     0.190 HD
HETATM   20  O   UNL     1      10.046  32.043  58.348  1.00  0.00    -0.266 OA
BRANCH  18  21
HETATM   21  N   UNL     1       7.363  29.692  58.299  1.00  0.00    -0.274 N 
HETATM   22  H   UNL     1       7.114  29.593  59.285  1.00  0.00     0.189 HD
BRANCH  21  23
HETATM   23  C   UNL     1       7.150  28.583  57.516  1.00  0.00     0.186 C 
HETATM   24  S   UNL     1       8.208  27.303  57.323  1.00  0.00    -0.040 SA
BRANCH  23  25
HETATM   25  N   UNL     1       5.988  28.574  56.795  1.00  0.00    -0.364 N 
HETATM   26  H   UNL     1       5.434  27.736  56.935  1.00  0.00     0.162 HD
BRANCH  25  27
HETATM   27  C   UNL     1       5.730  29.345  55.583  1.00  0.00     0.154 C 
BRANCH  27  28
HETATM   28  C   UNL     1       5.563  28.501  54.311  1.00  0.00     0.139 C 
HETATM   29  O   UNL     1       4.800  27.311  54.599  1.00  0.00    -0.384 OA
HETATM   30  C   UNL     1       5.534  26.181  54.104  1.00  0.00     0.168 C 
HETATM   31  C   UNL     1       6.983  26.607  54.060  1.00  0.00     0.029 C 
HETATM   32  C   UNL     1       6.874  28.060  53.674  1.00  0.00     0.035 C 
ENDBRANCH  27  28
ENDBRANCH  25  27
ENDBRANCH  23  25
ENDBRANCH  21  23
ENDBRANCH  18  21
ENDBRANCH  13  17
ENDBRANCH  10  11
ENDBRANCH   9  10
ENDBRANCH   1   9
TORSDOF 9
ENDMDL
