MODEL 1
REMARK VINA RESULT:      -9.7      0.000      0.000
REMARK  9 active torsions:
REMARK  status: ('A' for Active; 'I' for Inactive)
REMARK    1  A    between atoms: C_4  and  C_5 
REMARK    2  A    between atoms: C_5  and  N_6 
REMARK    3  A    between atoms: C_11  and  C_12 
REMARK       I    between atoms: C_12  and  N_13 
REMARK    4  A    between atoms: C_15  and  N_16 
REMARK       I    between atoms: N_16  and  C_17 
REMARK    5  A    between atoms: C_17  and  C_18 
REMARK    6  A    between atoms: C_18  and  C_19 
REMARK    7  A    between atoms: C_19  and  C_20 
REMARK    8  A    between atoms: C_20  and  S_21 
REMARK    9  A    between atoms: S_21  and  C_22 
ROOT
HETATM    1  N   UNL     1       8.471  31.651  60.785  1.00  0.00    -0.063 N 
HETATM    2  H   UNL     1       9.290  32.115  61.190  1.00  0.00     0.280 HD
HETATM    3  C   UNL     1       9.022  30.660  59.762  1.00  0.00     0.282 C 
HETATM    4  C   UNL     1       7.968  30.245  58.796  1.00  0.00     0.018 C 
HETATM    5  C   UNL     1       6.750  30.873  58.619  1.00  0.00    -0.023 C 
HETATM    6  C   UNL     1       5.903  30.138  57.708  1.00  0.00     0.073 C 
HETATM    7  C   UNL     1       6.643  29.170  57.042  1.00  0.00     0.093 C 
HETATM    8  S   UNL     1       8.182  28.945  57.735  1.00  0.00    -0.074 SA
HETATM    9  C   UNL     1       6.402  32.123  59.380  1.00  0.00     0.068 C 
HETATM   10  C   UNL     1       7.634  32.724  60.091  1.00  0.00     0.240 C 
ENDROOT
BRANCH   7  11
HETATM   11  N   UNL     1       6.229  28.394  55.968  1.00  0.00    -0.320 N 
HETATM   12  C   UNL     1       5.946  27.035  56.014  1.00  0.00     0.222 C 
HETATM   13  O   UNL     1       6.040  26.303  56.992  1.00  0.00    -0.273 OA
HETATM   14  H   UNL     1       6.425  28.778  55.049  1.00  0.00     0.169 HD
BRANCH  12  15
HETATM   15  C   UNL     1       5.477  26.515  54.661  1.00  0.00     0.104 C 
BRANCH  15  16
HETATM   16  C   UNL     1       6.386  26.918  53.501  1.00  0.00     0.020 C 
BRANCH  16  17
HETATM   17  C   UNL     1       7.726  26.188  53.355  1.00  0.00     0.080 C 
BRANCH  17  18
HETATM   18  S   UNL     1       7.752  24.688  52.310  1.00  0.00    -0.130 SA
BRANCH  18  19
HETATM   19  C   UNL     1       7.751  23.348  53.488  1.00  0.00     0.000 A 
HETATM   20  C   UNL     1       7.602  23.522  54.868  1.00  0.00     0.021 A 
HETATM   21  C   UNL     1       7.626  22.417  55.725  1.00  0.00     0.043 A 
HETATM   22  C   UNL     1       7.774  21.140  55.199  1.00  0.00     0.116 A 
HETATM   23  F   UNL     1       7.799  20.084  56.022  1.00  0.00    -0.206 F 
HETATM   24  C   UNL     1       7.891  20.944  53.831  1.00  0.00     0.043 A 
HETATM   25  C   UNL     1       7.877  22.048  52.976  1.00  0.00     0.021 A 
ENDBRANCH  18  19
ENDBRANCH  17  18
ENDBRANCH  16  17
ENDBRANCH  15  16
ENDBRANCH  12  15
ENDBRANCH   7  11
BRANCH   6  26
HETATM   26  C   UNL     1       4.495  30.437  57.463  1.00  0.00     0.252 C 
HETATM   27  N   UNL     1       3.663  30.322  58.542  1.00  0.00    -0.366 N 
HETATM   28  H   UNL     1       4.041  30.425  59.476  1.00  0.00     0.159 HD
HETATM   29  H   UNL     1       2.734  30.703  58.400  1.00  0.00     0.159 HD
HETATM   30  O   UNL     1       4.083  30.852  56.387  1.00  0.00    -0.268 OA
ENDBRANCH   6  26
BRANCH   1  31
HETATM   31  C   UNL     1       7.727  31.021  61.941  1.00  0.00     0.273 C 
BRANCH  31  32
HETATM   32  C   UNL     1       7.127  31.973  62.939  1.00  0.00    -0.033 A 
HETATM   33  C   UNL     1       5.742  32.067  63.138  1.00  0.00     0.009 A 
HETATM   34  C   UNL     1       5.226  32.942  64.096  1.00  0.00     0.001 A 
HETATM   35  C   UNL     1       6.083  33.716  64.875  1.00  0.00     0.000 A 
HETATM   36  C   UNL     1       7.461  33.618  64.701  1.00  0.00     0.001 A 
HETATM   37  C   UNL     1       7.980  32.754  63.739  1.00  0.00     0.009 A 
ENDBRANCH  31  32
ENDBRANCH   1  31
TORSDOF 9
ENDMDL
MODEL 2
REMARK VINA RESULT:      -9.2      3.285      9.853
REMARK  9 active torsions:
REMARK  status: ('A' for Active; 'I' for Inactive)
REMARK    1  A    between atoms: C_4  and  C_5 
REMARK    2  A    between atoms: C_5  and  N_6 
REMARK    3  A    between atoms: C_11  and  C_12 
REMARK       I    between atoms: C_12  and  N_13 
REMARK    4  A    between atoms: C_15  and  N_16 
REMARK       I    between atoms: N_16  and  C_17 
REMARK    5  A    between atoms: C_17  and  C_18 
REMARK    6  A    between atoms: C_18  and  C_19 
REMARK    7  A    between atoms: C_19  and  C_20 
REMARK    8  A    between atoms: C_20  and  S_21 
REMARK    9  A    between atoms: S_21  and  C_22 
ROOT
HETATM    1  N   UNL     1       7.808  24.276  57.057  1.00  0.00    -0.063 N 
HETATM    2  H   UNL     1       7.989  23.540  57.745  1.00  0.00     0.280 HD
HETATM    3  C   UNL     1       8.011  25.596  57.800  1.00  0.00     0.282 C 
HETATM    4  C   UNL     1       7.363  26.724  57.076  1.00  0.00     0.018 C 
HETATM    5  C   UNL     1       6.441  26.598  56.056  1.00  0.00    -0.023 C 
HETATM    6  C   UNL     1       6.115  27.880  55.475  1.00  0.00     0.073 C 
HETATM    7  C   UNL     1       6.590  28.906  56.282  1.00  0.00     0.093 C 
HETATM    8  S   UNL     1       7.658  28.340  57.481  1.00  0.00    -0.074 SA
HETATM    9  C   UNL     1       5.947  25.246  55.616  1.00  0.00     0.068 C 
HETATM   10  C   UNL     1       6.354  24.136  56.609  1.00  0.00     0.240 C 
ENDROOT
BRANCH   7  11
HETATM   11  N   UNL     1       6.319  30.261  56.157  1.00  0.00    -0.320 N 
HETATM   12  C   UNL     1       5.111  30.876  56.458  1.00  0.00     0.222 C 
HETATM   13  O   UNL     1       4.090  30.325  56.853  1.00  0.00    -0.273 OA
HETATM   14  H   UNL     1       6.942  30.777  55.543  1.00  0.00     0.169 HD
BRANCH  12  15
HETATM   15  C   UNL     1       5.181  32.383  56.244  1.00  0.00     0.104 C 
BRANCH  15  16
HETATM   16  C   UNL     1       4.209  33.173  57.119  1.00  0.00     0.020 C 
BRANCH  16  17
HETATM   17  C   UNL     1       4.709  33.662  58.483  1.00  0.00     0.080 C 
BRANCH  17  18
HETATM   18  S   UNL     1       4.677  32.466  59.864  1.00  0.00    -0.130 SA
BRANCH  18  19
HETATM   19  C   UNL     1       6.393  32.305  60.328  1.00  0.00     0.000 A 
HETATM   20  C   UNL     1       7.423  32.027  59.424  1.00  0.00     0.021 A 
HETATM   21  C   UNL     1       8.742  31.904  59.873  1.00  0.00     0.043 A 
HETATM   22  C   UNL     1       9.030  32.081  61.221  1.00  0.00     0.116 A 
HETATM   23  F   UNL     1      10.293  31.960  61.648  1.00  0.00    -0.206 F 
HETATM   24  C   UNL     1       8.027  32.388  62.128  1.00  0.00     0.043 A 
HETATM   25  C   UNL     1       6.709  32.502  61.681  1.00  0.00     0.021 A 
ENDBRANCH  18  19
ENDBRANCH  17  18
ENDBRANCH  16  17
ENDBRANCH  15  16
ENDBRANCH  12  15
ENDBRANCH   7  11
BRANCH   6  26
HETATM   26  C   UNL     1       5.323  28.063  54.262  1.00  0.00     0.252 C 
HETATM   27  N   UNL     1       3.966  28.084  54.433  1.00  0.00    -0.366 N 
HETATM   28  H   UNL     1       3.580  28.356  55.329  1.00  0.00     0.159 HD
HETATM   29  H   UNL     1       3.444  28.389  53.619  1.00  0.00     0.159 HD
HETATM   30  O   UNL     1       5.826  28.277  53.167  1.00  0.00    -0.268 OA
ENDBRANCH   6  26
BRANCH   1  31
HETATM   31  C   UNL     1       8.771  24.036  55.916  1.00  0.00     0.273 C 
BRANCH  31  32
HETATM   32  C   UNL     1       8.515  22.811  55.082  1.00  0.00    -0.033 A 
HETATM   33  C   UNL     1       8.198  22.893  53.718  1.00  0.00     0.009 A 
HETATM   34  C   UNL     1       7.997  21.730  52.971  1.00  0.00     0.001 A 
HETATM   35  C   UNL     1       8.128  20.480  53.569  1.00  0.00     0.000 A 
HETATM   36  C   UNL     1       8.461  20.384  54.917  1.00  0.00     0.001 A 
HETATM   37  C   UNL     1       8.653  21.541  55.669  1.00  0.00     0.009 A 
ENDBRANCH  31  32
ENDBRANCH   1  31
TORSDOF 9
ENDMDL
MODEL 3
REMARK VINA RESULT:      -9.1      5.307     10.470
REMARK  9 active torsions:
REMARK  status: ('A' for Active; 'I' for Inactive)
REMARK    1  A    between atoms: C_4  and  C_5 
REMARK    2  A    between atoms: C_5  and  N_6 
REMARK    3  A    between atoms: C_11  and  C_12 
REMARK       I    between atoms: C_12  and  N_13 
REMARK    4  A    between atoms: C_15  and  N_16 
REMARK       I    between atoms: N_16  and  C_17 
REMARK    5  A    between atoms: C_17  and  C_18 
REMARK    6  A    between atoms: C_18  and  C_19 
REMARK    7  A    between atoms: C_19  and  C_20 
REMARK    8  A    between atoms: C_20  and  S_21 
REMARK    9  A    between atoms: S_21  and  C_22 
ROOT
HETATM    1  N   UNL     1       3.551  28.427  48.382  1.00  0.00    -0.063 N 
HETATM    2  H   UNL     1       3.559  28.966  47.511  1.00  0.00     0.280 HD
HETATM    3  C   UNL     1       4.012  29.396  49.470  1.00  0.00     0.282 C 
HETATM    4  C   UNL     1       4.471  28.662  50.682  1.00  0.00     0.018 C 
HETATM    5  C   UNL     1       4.753  27.311  50.742  1.00  0.00    -0.023 C 
HETATM    6  C   UNL     1       5.037  26.889  52.095  1.00  0.00     0.073 C 
HETATM    7  C   UNL     1       5.232  27.997  52.910  1.00  0.00     0.093 C 
HETATM    8  S   UNL     1       4.759  29.446  52.153  1.00  0.00    -0.074 SA
HETATM    9  C   UNL     1       4.676  26.444  49.514  1.00  0.00     0.068 C 
HETATM   10  C   UNL     1       4.554  27.285  48.226  1.00  0.00     0.240 C 
ENDROOT
BRANCH   7  11
HETATM   11  N   UNL     1       5.699  28.000  54.217  1.00  0.00    -0.320 N 
HETATM   12  C   UNL     1       7.034  27.999  54.600  1.00  0.00     0.222 C 
HETATM   13  O   UNL     1       8.006  27.968  53.855  1.00  0.00    -0.273 OA
HETATM   14  H   UNL     1       5.032  27.695  54.921  1.00  0.00     0.169 HD
BRANCH  12  15
HETATM   15  C   UNL     1       7.182  28.048  56.115  1.00  0.00     0.104 C 
BRANCH  15  16
HETATM   16  C   UNL     1       7.950  26.861  56.695  1.00  0.00     0.020 C 
BRANCH  16  17
HETATM   17  C   UNL     1       7.328  25.468  56.553  1.00  0.00     0.080 C 
BRANCH  17  18
HETATM   18  S   UNL     1       8.354  24.038  57.048  1.00  0.00    -0.130 SA
BRANCH  18  19
HETATM   19  C   UNL     1       8.218  22.918  55.666  1.00  0.00     0.000 A 
HETATM   20  C   UNL     1       8.314  23.314  54.328  1.00  0.00     0.021 A 
HETATM   21  C   UNL     1       8.183  22.372  53.302  1.00  0.00     0.043 A 
HETATM   22  C   UNL     1       7.981  21.033  53.617  1.00  0.00     0.116 A 
HETATM   23  F   UNL     1       7.854  20.134  52.634  1.00  0.00    -0.206 F 
HETATM   24  C   UNL     1       7.916  20.616  54.939  1.00  0.00     0.043 A 
HETATM   25  C   UNL     1       8.037  21.558  55.962  1.00  0.00     0.021 A 
ENDBRANCH  18  19
ENDBRANCH  17  18
ENDBRANCH  16  17
ENDBRANCH  15  16
ENDBRANCH  12  15
ENDBRANCH   7  11
BRANCH   6  26
HETATM   26  C   UNL     1       5.184  25.499  52.515  1.00  0.00     0.252 C 
HETATM   27  N   UNL     1       4.129  24.969  53.205  1.00  0.00    -0.366 N 
HETATM   28  H   UNL     1       3.202  25.356  53.075  1.00  0.00     0.159 HD
HETATM   29  H   UNL     1       4.171  23.963  53.330  1.00  0.00     0.159 HD
HETATM   30  O   UNL     1       6.146  24.810  52.202  1.00  0.00    -0.268 OA
ENDBRANCH   6  26
BRANCH   1  31
HETATM   31  C   UNL     1       2.138  27.913  48.548  1.00  0.00     0.273 C 
BRANCH  31  32
HETATM   32  C   UNL     1       1.168  28.283  47.460  1.00  0.00    -0.033 A 
HETATM   33  C   UNL     1       0.901  29.619  47.125  1.00  0.00     0.009 A 
HETATM   34  C   UNL     1       0.016  29.920  46.088  1.00  0.00     0.001 A 
HETATM   35  C   UNL     1      -0.594  28.898  45.364  1.00  0.00     0.000 A 
HETATM   36  C   UNL     1      -0.322  27.569  45.674  1.00  0.00     0.001 A 
HETATM   37  C   UNL     1       0.552  27.263  46.715  1.00  0.00     0.009 A 
ENDBRANCH  31  32
ENDBRANCH   1  31
TORSDOF 9
ENDMDL
MODEL 4
REMARK VINA RESULT:      -9.1      3.967     11.174
REMARK  9 active torsions:
REMARK  status: ('A' for Active; 'I' for Inactive)
REMARK    1  A    between atoms: C_4  and  C_5 
REMARK    2  A    between atoms: C_5  and  N_6 
REMARK    3  A    between atoms: C_11  and  C_12 
REMARK       I    between atoms: C_12  and  N_13 
REMARK    4  A    between atoms: C_15  and  N_16 
REMARK       I    between atoms: N_16  and  C_17 
REMARK    5  A    between atoms: C_17  and  C_18 
REMARK    6  A    between atoms: C_18  and  C_19 
REMARK    7  A    between atoms: C_19  and  C_20 
REMARK    8  A    between atoms: C_20  and  S_21 
REMARK    9  A    between atoms: S_21  and  C_22 
ROOT
HETATM    1  N   UNL     1       6.019  26.719  54.267  1.00  0.00    -0.063 N 
HETATM    2  H   UNL     1       5.714  26.434  53.331  1.00  0.00     0.280 HD
HETATM    3  C   UNL     1       4.999  27.755  54.736  1.00  0.00     0.282 C 
HETATM    4  C   UNL     1       5.540  28.570  55.858  1.00  0.00     0.018 C 
HETATM    5  C   UNL     1       6.866  28.630  56.239  1.00  0.00    -0.023 C 
HETATM    6  C   UNL     1       7.036  29.401  57.449  1.00  0.00     0.073 C 
HETATM    7  C   UNL     1       5.874  30.106  57.733  1.00  0.00     0.093 C 
HETATM    8  S   UNL     1       4.558  29.590  56.784  1.00  0.00    -0.074 SA
HETATM    9  C   UNL     1       7.930  27.890  55.473  1.00  0.00     0.068 C 
HETATM   10  C   UNL     1       7.400  27.357  54.125  1.00  0.00     0.240 C 
ENDROOT
BRANCH   7  11
HETATM   11  N   UNL     1       5.707  31.088  58.700  1.00  0.00    -0.320 N 
HETATM   12  C   UNL     1       5.550  32.446  58.456  1.00  0.00     0.222 C 
HETATM   13  O   UNL     1       5.561  32.996  57.361  1.00  0.00    -0.273 OA
HETATM   14  H   UNL     1       6.006  30.834  59.638  1.00  0.00     0.169 HD
BRANCH  12  15
HETATM   15  C   UNL     1       5.349  33.228  59.748  1.00  0.00     0.104 C 
BRANCH  15  16
HETATM   16  C   UNL     1       5.703  32.436  61.006  1.00  0.00     0.020 C 
BRANCH  16  17
HETATM   17  C   UNL     1       4.593  32.196  62.036  1.00  0.00     0.080 C 
BRANCH  17  18
HETATM   18  S   UNL     1       3.934  33.660  62.910  1.00  0.00    -0.130 SA
BRANCH  18  19
HETATM   19  C   UNL     1       4.987  33.810  64.343  1.00  0.00     0.000 A 
HETATM   20  C   UNL     1       6.380  33.700  64.302  1.00  0.00     0.021 A 
HETATM   21  C   UNL     1       7.132  33.817  65.476  1.00  0.00     0.043 A 
HETATM   22  C   UNL     1       6.491  34.068  66.683  1.00  0.00     0.116 A 
HETATM   23  F   UNL     1       7.212  34.178  67.805  1.00  0.00    -0.206 F 
HETATM   24  C   UNL     1       5.112  34.212  66.739  1.00  0.00     0.043 A 
HETATM   25  C   UNL     1       4.361  34.085  65.569  1.00  0.00     0.021 A 
ENDBRANCH  18  19
ENDBRANCH  17  18
ENDBRANCH  16  17
ENDBRANCH  15  16
ENDBRANCH  12  15
ENDBRANCH   7  11
BRANCH   6  26
HETATM   26  C   UNL     1       8.281  29.492  58.206  1.00  0.00     0.252 C 
HETATM   27  N   UNL     1       9.433  29.427  57.472  1.00  0.00    -0.366 N 
HETATM   28  H   UNL     1       9.419  29.701  56.496  1.00  0.00     0.159 HD
HETATM   29  H   UNL     1      10.274  29.671  57.984  1.00  0.00     0.159 HD
HETATM   30  O   UNL     1       8.310  29.704  59.412  1.00  0.00    -0.268 OA
ENDBRANCH   6  26
BRANCH   1  31
HETATM   31  C   UNL     1       6.068  25.456  55.098  1.00  0.00     0.273 C 
BRANCH  31  32
HETATM   32  C   UNL     1       6.963  24.362  54.585  1.00  0.00    -0.033 A 
HETATM   33  C   UNL     1       6.835  23.843  53.288  1.00  0.00     0.009 A 
HETATM   34  C   UNL     1       7.706  22.848  52.840  1.00  0.00     0.001 A 
HETATM   35  C   UNL     1       8.721  22.376  53.669  1.00  0.00     0.000 A 
HETATM   36  C   UNL     1       8.871  22.897  54.951  1.00  0.00     0.001 A 
HETATM   37  C   UNL     1       7.998  23.882  55.407  1.00  0.00     0.009 A 
ENDBRANCH  31  32
ENDBRANCH   1  31
TORSDOF 9
ENDMDL
MODEL 5
REMARK VINA RESULT:      -9.0      3.529      5.090
REMARK  9 active torsions:
REMARK  status: ('A' for Active; 'I' for Inactive)
REMARK    1  A    between atoms: C_4  and  C_5 
REMARK    2  A    between atoms: C_5  and  N_6 
REMARK    3  A    between atoms: C_11  and  C_12 
REMARK       I    between atoms: C_12  and  N_13 
REMARK    4  A    between atoms: C_15  and  N_16 
REMARK       I    between atoms: N_16  and  C_17 
REMARK    5  A    between atoms: C_17  and  C_18 
REMARK    6  A    between atoms: C_18  and  C_19 
REMARK    7  A    between atoms: C_19  and  C_20 
REMARK    8  A    between atoms: C_20  and  S_21 
REMARK    9  A    between atoms: S_21  and  C_22 
ROOT
HETATM    1  N   UNL     1       4.849  34.143  62.752  1.00  0.00    -0.063 N 
HETATM    2  H   UNL     1       3.904  34.454  62.996  1.00  0.00     0.280 HD
HETATM    3  C   UNL     1       4.768  33.681  61.298  1.00  0.00     0.282 C 
HETATM    4  C   UNL     1       5.921  32.806  60.949  1.00  0.00     0.018 C 
HETATM    5  C   UNL     1       6.782  32.216  61.853  1.00  0.00    -0.023 C 
HETATM    6  C   UNL     1       7.874  31.546  61.185  1.00  0.00     0.073 C 
HETATM    7  C   UNL     1       7.604  31.429  59.827  1.00  0.00     0.093 C 
HETATM    8  S   UNL     1       6.275  32.380  59.350  1.00  0.00    -0.074 SA
HETATM    9  C   UNL     1       6.578  32.368  63.336  1.00  0.00     0.068 C 
HETATM   10  C   UNL     1       5.194  32.967  63.665  1.00  0.00     0.240 C 
ENDROOT
BRANCH   7  11
HETATM   11  N   UNL     1       8.319  30.693  58.893  1.00  0.00    -0.320 N 
HETATM   12  C   UNL     1       9.515  31.081  58.300  1.00  0.00     0.222 C 
HETATM   13  O   UNL     1      10.110  32.136  58.483  1.00  0.00    -0.273 OA
HETATM   14  H   UNL     1       7.794  29.972  58.408  1.00  0.00     0.169 HD
BRANCH  12  15
HETATM   15  C   UNL     1      10.044  30.010  57.355  1.00  0.00     0.104 C 
BRANCH  15  16
HETATM   16  C   UNL     1       9.067  28.857  57.126  1.00  0.00     0.020 C 
BRANCH  16  17
HETATM   17  C   UNL     1       8.442  28.716  55.733  1.00  0.00     0.080 C 
BRANCH  17  18
HETATM   18  S   UNL     1       6.852  27.821  55.617  1.00  0.00    -0.130 SA
BRANCH  18  19
HETATM   19  C   UNL     1       7.271  26.321  54.747  1.00  0.00     0.000 A 
HETATM   20  C   UNL     1       7.351  25.063  55.354  1.00  0.00     0.021 A 
HETATM   21  C   UNL     1       7.699  23.937  54.601  1.00  0.00     0.043 A 
HETATM   22  C   UNL     1       7.942  24.067  53.239  1.00  0.00     0.116 A 
HETATM   23  F   UNL     1       8.278  22.989  52.520  1.00  0.00    -0.206 F 
HETATM   24  C   UNL     1       7.836  25.300  52.612  1.00  0.00     0.043 A 
HETATM   25  C   UNL     1       7.499  26.426  53.366  1.00  0.00     0.021 A 
ENDBRANCH  18  19
ENDBRANCH  17  18
ENDBRANCH  16  17
ENDBRANCH  15  16
ENDBRANCH  12  15
ENDBRANCH   7  11
BRANCH   6  26
HETATM   26  C   UNL     1       9.045  30.993  61.859  1.00  0.00     0.252 C 
HETATM   27  N   UNL     1       8.835  29.849  62.579  1.00  0.00    -0.366 N 
HETATM   28  H   UNL     1       8.065  29.239  62.332  1.00  0.00     0.159 HD
HETATM   29  H   UNL     1       9.682  29.384  62.887  1.00  0.00     0.159 HD
HETATM   30  O   UNL     1      10.169  31.460  61.727  1.00  0.00    -0.268 OA
ENDBRANCH   6  26
BRANCH   1  31
HETATM   31  C   UNL     1       5.760  35.325  62.994  1.00  0.00     0.273 C 
BRANCH  31  32
HETATM   32  C   UNL     1       5.230  36.666  62.565  1.00  0.00    -0.033 A 
HETATM   33  C   UNL     1       6.079  37.746  62.282  1.00  0.00     0.009 A 
HETATM   34  C   UNL     1       5.549  38.965  61.858  1.00  0.00     0.001 A 
HETATM   35  C   UNL     1       4.174  39.115  61.694  1.00  0.00     0.000 A 
HETATM   36  C   UNL     1       3.321  38.046  61.953  1.00  0.00     0.001 A 
HETATM   37  C   UNL     1       3.845  36.829  62.387  1.00  0.00     0.009 A 
ENDBRANCH  31  32
ENDBRANCH   1  31
TORSDOF 9
ENDMDL
MODEL 6
REMARK VINA RESULT:      -8.9      1.392      2.008
REMARK  9 active torsions:
REMARK  status: ('A' for Active; 'I' for Inactive)
REMARK    1  A    between atoms: C_4  and  C_5 
REMARK    2  A    between atoms: C_5  and  N_6 
REMARK    3  A    between atoms: C_11  and  C_12 
REMARK       I    between atoms: C_12  and  N_13 
REMARK    4  A    between atoms: C_15  and  N_16 
REMARK       I    between atoms: N_16  and  C_17 
REMARK    5  A    between atoms: C_17  and  C_18 
REMARK    6  A    between atoms: C_18  and  C_19 
REMARK    7  A    between atoms: C_19  and  C_20 
REMARK    8  A    between atoms: C_20  and  S_21 
REMARK    9  A    between atoms: S_21  and  C_22 
ROOT
HETATM    1  N   UNL     1       6.831  33.543  61.981  1.00  0.00    -0.063 N 
HETATM    2  H   UNL     1       7.353  34.254  62.502  1.00  0.00     0.280 HD
HETATM    3  C   UNL     1       7.831  32.934  60.999  1.00  0.00     0.282 C 
HETATM    4  C   UNL     1       7.132  32.222  59.894  1.00  0.00     0.018 C 
HETATM    5  C   UNL     1       5.790  32.338  59.589  1.00  0.00    -0.023 C 
HETATM    6  C   UNL     1       5.401  31.410  58.552  1.00  0.00     0.073 C 
HETATM    7  C   UNL     1       6.528  30.866  57.949  1.00  0.00     0.093 C 
HETATM    8  S   UNL     1       7.951  31.201  58.822  1.00  0.00    -0.074 SA
HETATM    9  C   UNL     1       4.898  33.286  60.345  1.00  0.00     0.068 C 
HETATM   10  C   UNL     1       5.712  34.258  61.226  1.00  0.00     0.240 C 
ENDROOT
BRANCH   7  11
HETATM   11  N   UNL     1       6.567  30.082  56.805  1.00  0.00    -0.320 N 
HETATM   12  C   UNL     1       6.159  28.757  56.717  1.00  0.00     0.222 C 
HETATM   13  O   UNL     1       5.728  28.065  57.632  1.00  0.00    -0.273 OA
HETATM   14  H   UNL     1       7.194  30.405  56.074  1.00  0.00     0.169 HD
BRANCH  12  15
HETATM   15  C   UNL     1       6.301  28.220  55.298  1.00  0.00     0.104 C 
BRANCH  15  16
HETATM   16  C   UNL     1       6.840  26.792  55.234  1.00  0.00     0.020 C 
BRANCH  16  17
HETATM   17  C   UNL     1       6.311  25.877  54.123  1.00  0.00     0.080 C 
BRANCH  17  18
HETATM   18  S   UNL     1       7.547  25.063  53.050  1.00  0.00    -0.130 SA
BRANCH  18  19
HETATM   19  C   UNL     1       7.738  23.443  53.773  1.00  0.00     0.000 A 
HETATM   20  C   UNL     1       7.690  23.191  55.148  1.00  0.00     0.021 A 
HETATM   21  C   UNL     1       7.863  21.891  55.634  1.00  0.00     0.043 A 
HETATM   22  C   UNL     1       8.058  20.843  54.743  1.00  0.00     0.116 A 
HETATM   23  F   UNL     1       8.226  19.600  55.210  1.00  0.00    -0.206 F 
HETATM   24  C   UNL     1       8.077  21.068  53.374  1.00  0.00     0.043 A 
HETATM   25  C   UNL     1       7.915  22.367  52.890  1.00  0.00     0.021 A 
ENDBRANCH  18  19
ENDBRANCH  17  18
ENDBRANCH  16  17
ENDBRANCH  15  16
ENDBRANCH  12  15
ENDBRANCH   7  11
BRANCH   6  26
HETATM   26  C   UNL     1       4.023  31.155  58.142  1.00  0.00     0.252 C 
HETATM   27  N   UNL     1       3.262  30.435  59.022  1.00  0.00    -0.366 N 
HETATM   28  H   UNL     1       3.498  30.442  60.007  1.00  0.00     0.159 HD
HETATM   29  H   UNL     1       2.270  30.423  58.809  1.00  0.00     0.159 HD
HETATM   30  O   UNL     1       3.537  31.624  57.121  1.00  0.00    -0.268 OA
ENDBRANCH   6  26
BRANCH   1  31
HETATM   31  C   UNL     1       6.286  32.579  63.011  1.00  0.00     0.273 C 
BRANCH  31  32
HETATM   32  C   UNL     1       6.033  33.147  64.380  1.00  0.00    -0.033 A 
HETATM   33  C   UNL     1       7.080  33.500  65.244  1.00  0.00     0.009 A 
HETATM   34  C   UNL     1       6.802  34.053  66.495  1.00  0.00     0.001 A 
HETATM   35  C   UNL     1       5.485  34.278  66.889  1.00  0.00     0.000 A 
HETATM   36  C   UNL     1       4.438  33.951  66.033  1.00  0.00     0.001 A 
HETATM   37  C   UNL     1       4.709  33.388  64.787  1.00  0.00     0.009 A 
ENDBRANCH  31  32
ENDBRANCH   1  31
TORSDOF 9
ENDMDL
MODEL 7
REMARK VINA RESULT:      -8.9      4.305     11.499
REMARK  9 active torsions:
REMARK  status: ('A' for Active; 'I' for Inactive)
REMARK    1  A    between atoms: C_4  and  C_5 
REMARK    2  A    between atoms: C_5  and  N_6 
REMARK    3  A    between atoms: C_11  and  C_12 
REMARK       I    between atoms: C_12  and  N_13 
REMARK    4  A    between atoms: C_15  and  N_16 
REMARK       I    between atoms: N_16  and  C_17 
REMARK    5  A    between atoms: C_17  and  C_18 
REMARK    6  A    between atoms: C_18  and  C_19 
REMARK    7  A    between atoms: C_19  and  C_20 
REMARK    8  A    between atoms: C_20  and  S_21 
REMARK    9  A    between atoms: S_21  and  C_22 
ROOT
HETATM    1  N   UNL     1       6.265  25.269  54.850  1.00  0.00    -0.063 N 
HETATM    2  H   UNL     1       5.578  24.692  54.355  1.00  0.00     0.280 HD
HETATM    3  C   UNL     1       5.452  26.216  55.731  1.00  0.00     0.282 C 
HETATM    4  C   UNL     1       6.269  27.385  56.159  1.00  0.00     0.018 C 
HETATM    5  C   UNL     1       7.480  27.760  55.610  1.00  0.00    -0.023 C 
HETATM    6  C   UNL     1       8.078  28.852  56.344  1.00  0.00     0.073 C 
HETATM    7  C   UNL     1       7.148  29.411  57.212  1.00  0.00     0.093 C 
HETATM    8  S   UNL     1       5.753  28.448  57.369  1.00  0.00    -0.074 SA
HETATM    9  C   UNL     1       8.067  27.020  54.439  1.00  0.00     0.068 C 
HETATM   10  C   UNL     1       7.044  26.058  53.798  1.00  0.00     0.240 C 
ENDROOT
BRANCH   7  11
HETATM   11  N   UNL     1       7.288  30.580  57.945  1.00  0.00    -0.320 N 
HETATM   12  C   UNL     1       7.952  30.700  59.159  1.00  0.00     0.222 C 
HETATM   13  O   UNL     1       8.493  29.797  59.786  1.00  0.00    -0.273 OA
HETATM   14  H   UNL     1       6.624  31.318  57.725  1.00  0.00     0.169 HD
BRANCH  12  15
HETATM   15  C   UNL     1       7.947  32.138  59.661  1.00  0.00     0.104 C 
BRANCH  15  16
HETATM   16  C   UNL     1       6.583  32.608  60.163  1.00  0.00     0.020 C 
BRANCH  16  17
HETATM   17  C   UNL     1       6.189  32.252  61.601  1.00  0.00     0.080 C 
BRANCH  17  18
HETATM   18  S   UNL     1       4.463  32.586  62.102  1.00  0.00    -0.130 SA
BRANCH  18  19
HETATM   19  C   UNL     1       4.584  34.074  63.080  1.00  0.00     0.000 A 
HETATM   20  C   UNL     1       3.939  34.256  64.307  1.00  0.00     0.021 A 
HETATM   21  C   UNL     1       4.075  35.460  65.005  1.00  0.00     0.043 A 
HETATM   22  C   UNL     1       4.875  36.471  64.484  1.00  0.00     0.116 A 
HETATM   23  F   UNL     1       5.003  37.624  65.153  1.00  0.00    -0.206 F 
HETATM   24  C   UNL     1       5.549  36.297  63.284  1.00  0.00     0.043 A 
HETATM   25  C   UNL     1       5.404  35.099  62.583  1.00  0.00     0.021 A 
ENDBRANCH  18  19
ENDBRANCH  17  18
ENDBRANCH  16  17
ENDBRANCH  15  16
ENDBRANCH  12  15
ENDBRANCH   7  11
BRANCH   6  26
HETATM   26  C   UNL     1       9.435  29.348  56.133  1.00  0.00     0.252 C 
HETATM   27  N   UNL     1      10.287  29.226  57.195  1.00  0.00    -0.366 N 
HETATM   28  H   UNL     1      10.119  28.508  57.890  1.00  0.00     0.159 HD
HETATM   29  H   UNL     1      11.261  29.405  56.976  1.00  0.00     0.159 HD
HETATM   30  O   UNL     1       9.827  29.766  55.051  1.00  0.00    -0.268 OA
ENDBRANCH   6  26
BRANCH   1  31
HETATM   31  C   UNL     1       7.158  24.309  55.605  1.00  0.00     0.273 C 
BRANCH  31  32
HETATM   32  C   UNL     1       7.482  23.019  54.904  1.00  0.00    -0.033 A 
HETATM   33  C   UNL     1       7.636  21.812  55.602  1.00  0.00     0.009 A 
HETATM   34  C   UNL     1       7.907  20.629  54.911  1.00  0.00     0.001 A 
HETATM   35  C   UNL     1       8.008  20.634  53.522  1.00  0.00     0.000 A 
HETATM   36  C   UNL     1       7.839  21.821  52.816  1.00  0.00     0.001 A 
HETATM   37  C   UNL     1       7.578  23.006  53.502  1.00  0.00     0.009 A 
ENDBRANCH  31  32
ENDBRANCH   1  31
TORSDOF 9
ENDMDL
MODEL 8
REMARK VINA RESULT:      -8.9      3.173     10.076
REMARK  9 active torsions:
REMARK  status: ('A' for Active; 'I' for Inactive)
REMARK    1  A    between atoms: C_4  and  C_5 
REMARK    2  A    between atoms: C_5  and  N_6 
REMARK    3  A    between atoms: C_11  and  C_12 
REMARK       I    between atoms: C_12  and  N_13 
REMARK    4  A    between atoms: C_15  and  N_16 
REMARK       I    between atoms: N_16  and  C_17 
REMARK    5  A    between atoms: C_17  and  C_18 
REMARK    6  A    between atoms: C_18  and  C_19 
REMARK    7  A    between atoms: C_19  and  C_20 
REMARK    8  A    between atoms: C_20  and  S_21 
REMARK    9  A    between atoms: S_21  and  C_22 
ROOT
HETATM    1  N   UNL     1       5.966  26.266  53.673  1.00  0.00    -0.063 N 
HETATM    2  H   UNL     1       5.805  25.925  52.720  1.00  0.00     0.280 HD
HETATM    3  C   UNL     1       4.851  27.275  53.943  1.00  0.00     0.282 C 
HETATM    4  C   UNL     1       5.200  28.165  55.085  1.00  0.00     0.018 C 
HETATM    5  C   UNL     1       6.457  28.302  55.640  1.00  0.00    -0.023 C 
HETATM    6  C   UNL     1       6.426  29.135  56.821  1.00  0.00     0.073 C 
HETATM    7  C   UNL     1       5.209  29.799  56.906  1.00  0.00     0.093 C 
HETATM    8  S   UNL     1       4.060  29.181  55.814  1.00  0.00    -0.074 SA
HETATM    9  C   UNL     1       7.644  27.576  55.067  1.00  0.00     0.068 C 
HETATM   10  C   UNL     1       7.327  26.959  53.689  1.00  0.00     0.240 C 
ENDROOT
BRANCH   7  11
HETATM   11  N   UNL     1       4.873  30.815  57.789  1.00  0.00    -0.320 N 
HETATM   12  C   UNL     1       4.745  32.160  57.465  1.00  0.00     0.222 C 
HETATM   13  O   UNL     1       4.934  32.666  56.365  1.00  0.00    -0.273 OA
HETATM   14  H   UNL     1       5.011  30.605  58.773  1.00  0.00     0.169 HD
BRANCH  12  15
HETATM   15  C   UNL     1       4.321  32.989  58.670  1.00  0.00     0.104 C 
BRANCH  15  16
HETATM   16  C   UNL     1       3.542  32.195  59.718  1.00  0.00     0.020 C 
BRANCH  16  17
HETATM   17  C   UNL     1       3.780  32.533  61.194  1.00  0.00     0.080 C 
BRANCH  17  18
HETATM   18  S   UNL     1       4.911  33.922  61.562  1.00  0.00    -0.130 SA
BRANCH  18  19
HETATM   19  C   UNL     1       6.500  33.135  61.764  1.00  0.00     0.000 A 
HETATM   20  C   UNL     1       7.023  32.738  62.999  1.00  0.00     0.021 A 
HETATM   21  C   UNL     1       8.285  32.139  63.071  1.00  0.00     0.043 A 
HETATM   22  C   UNL     1       9.009  31.917  61.906  1.00  0.00     0.116 A 
HETATM   23  F   UNL     1      10.218  31.345  61.978  1.00  0.00    -0.206 F 
HETATM   24  C   UNL     1       8.494  32.274  60.669  1.00  0.00     0.043 A 
HETATM   25  C   UNL     1       7.239  32.881  60.598  1.00  0.00     0.021 A 
ENDBRANCH  18  19
ENDBRANCH  17  18
ENDBRANCH  16  17
ENDBRANCH  15  16
ENDBRANCH  12  15
ENDBRANCH   7  11
BRANCH   6  26
HETATM   26  C   UNL     1       7.549  29.317  57.736  1.00  0.00     0.252 C 
HETATM   27  N   UNL     1       8.148  30.547  57.709  1.00  0.00    -0.366 N 
HETATM   28  H   UNL     1       7.618  31.353  57.401  1.00  0.00     0.159 HD
HETATM   29  H   UNL     1       8.800  30.714  58.469  1.00  0.00     0.159 HD
HETATM   30  O   UNL     1       7.890  28.465  58.546  1.00  0.00    -0.268 OA
ENDBRANCH   6  26
BRANCH   1  31
HETATM   31  C   UNL     1       5.948  25.046  54.567  1.00  0.00     0.273 C 
BRANCH  31  32
HETATM   32  C   UNL     1       7.032  24.033  54.325  1.00  0.00    -0.033 A 
HETATM   33  C   UNL     1       7.942  23.663  55.326  1.00  0.00     0.009 A 
HETATM   34  C   UNL     1       8.915  22.696  55.070  1.00  0.00     0.001 A 
HETATM   35  C   UNL     1       8.979  22.075  53.824  1.00  0.00     0.000 A 
HETATM   36  C   UNL     1       8.070  22.418  52.828  1.00  0.00     0.001 A 
HETATM   37  C   UNL     1       7.103  23.391  53.076  1.00  0.00     0.009 A 
ENDBRANCH  31  32
ENDBRANCH   1  31
TORSDOF 9
ENDMDL
MODEL 9
REMARK VINA RESULT:      -8.8      3.449     10.002
REMARK  9 active torsions:
REMARK  status: ('A' for Active; 'I' for Inactive)
REMARK    1  A    between atoms: C_4  and  C_5 
REMARK    2  A    between atoms: C_5  and  N_6 
REMARK    3  A    between atoms: C_11  and  C_12 
REMARK       I    between atoms: C_12  and  N_13 
REMARK    4  A    between atoms: C_15  and  N_16 
REMARK       I    between atoms: N_16  and  C_17 
REMARK    5  A    between atoms: C_17  and  C_18 
REMARK    6  A    between atoms: C_18  and  C_19 
REMARK    7  A    between atoms: C_19  and  C_20 
REMARK    8  A    between atoms: C_20  and  S_21 
REMARK    9  A    between atoms: S_21  and  C_22 
ROOT
HETATM    1  N   UNL     1       6.728  26.930  56.404  1.00  0.00    -0.063 N 
HETATM    2  H   UNL     1       7.146  26.067  56.765  1.00  0.00     0.280 HD
HETATM    3  C   UNL     1       7.135  28.028  57.385  1.00  0.00     0.282 C 
HETATM    4  C   UNL     1       6.256  29.222  57.247  1.00  0.00     0.018 C 
HETATM    5  C   UNL     1       5.051  29.258  56.575  1.00  0.00    -0.023 C 
HETATM    6  C   UNL     1       4.520  30.600  56.509  1.00  0.00     0.073 C 
HETATM    7  C   UNL     1       5.211  31.431  57.382  1.00  0.00     0.093 C 
HETATM    8  S   UNL     1       6.630  30.703  57.977  1.00  0.00    -0.074 SA
HETATM    9  C   UNL     1       4.471  28.017  55.950  1.00  0.00     0.068 C 
HETATM   10  C   UNL     1       5.211  26.744  56.413  1.00  0.00     0.240 C 
ENDROOT
BRANCH   7  11
HETATM   11  N   UNL     1       4.882  32.732  57.734  1.00  0.00    -0.320 N 
HETATM   12  C   UNL     1       3.940  33.100  58.686  1.00  0.00     0.222 C 
HETATM   13  O   UNL     1       3.235  32.343  59.344  1.00  0.00    -0.273 OA
HETATM   14  H   UNL     1       5.133  33.446  57.056  1.00  0.00     0.169 HD
BRANCH  12  15
HETATM   15  C   UNL     1       3.867  34.613  58.847  1.00  0.00     0.104 C 
BRANCH  15  16
HETATM   16  C   UNL     1       3.282  35.060  60.186  1.00  0.00     0.020 C 
BRANCH  16  17
HETATM   17  C   UNL     1       4.250  35.257  61.358  1.00  0.00     0.080 C 
BRANCH  17  18
HETATM   18  S   UNL     1       4.265  33.970  62.656  1.00  0.00    -0.130 SA
BRANCH  18  19
HETATM   19  C   UNL     1       5.917  33.300  62.571  1.00  0.00     0.000 A 
HETATM   20  C   UNL     1       6.735  33.097  63.688  1.00  0.00     0.021 A 
HETATM   21  C   UNL     1       8.025  32.579  63.532  1.00  0.00     0.043 A 
HETATM   22  C   UNL     1       8.484  32.242  62.265  1.00  0.00     0.116 A 
HETATM   23  F   UNL     1       9.720  31.748  62.119  1.00  0.00    -0.206 F 
HETATM   24  C   UNL     1       7.677  32.406  61.149  1.00  0.00     0.043 A 
HETATM   25  C   UNL     1       6.393  32.933  61.303  1.00  0.00     0.021 A 
ENDBRANCH  18  19
ENDBRANCH  17  18
ENDBRANCH  16  17
ENDBRANCH  15  16
ENDBRANCH  12  15
ENDBRANCH   7  11
BRANCH   6  26
HETATM   26  C   UNL     1       3.365  30.996  55.708  1.00  0.00     0.252 C 
HETATM   27  N   UNL     1       3.550  30.995  54.353  1.00  0.00    -0.366 N 
HETATM   28  H   UNL     1       4.259  30.396  53.947  1.00  0.00     0.159 HD
HETATM   29  H   UNL     1       2.698  31.095  53.812  1.00  0.00     0.159 HD
HETATM   30  O   UNL     1       2.268  31.232  56.197  1.00  0.00    -0.268 OA
ENDBRANCH   6  26
BRANCH   1  31
HETATM   31  C   UNL     1       7.263  27.104  55.000  1.00  0.00     0.273 C 
BRANCH  31  32
HETATM   32  C   UNL     1       7.466  25.840  54.209  1.00  0.00    -0.033 A 
HETATM   33  C   UNL     1       7.506  25.839  52.807  1.00  0.00     0.009 A 
HETATM   34  C   UNL     1       7.728  24.649  52.111  1.00  0.00     0.001 A 
HETATM   35  C   UNL     1       7.930  23.457  52.803  1.00  0.00     0.000 A 
HETATM   36  C   UNL     1       7.912  23.448  54.195  1.00  0.00     0.001 A 
HETATM   37  C   UNL     1       7.680  24.632  54.894  1.00  0.00     0.009 A 
ENDBRANCH  31  32
ENDBRANCH   1  31
TORSDOF 9
ENDMDL
MODEL 10
REMARK VINA RESULT:      -8.7      3.623     10.554
REMARK  9 active torsions:
REMARK  status: ('A' for Active; 'I' for Inactive)
REMARK    1  A    between atoms: C_4  and  C_5 
REMARK    2  A    between atoms: C_5  and  N_6 
REMARK    3  A    between atoms: C_11  and  C_12 
REMARK       I    between atoms: C_12  and  N_13 
REMARK    4  A    between atoms: C_15  and  N_16 
REMARK       I    between atoms: N_16  and  C_17 
REMARK    5  A    between atoms: C_17  and  C_18 
REMARK    6  A    between atoms: C_18  and  C_19 
REMARK    7  A    between atoms: C_19  and  C_20 
REMARK    8  A    between atoms: C_20  and  S_21 
REMARK    9  A    between atoms: S_21  and  C_22 
ROOT
HETATM    1  N   UNL     1       7.253  24.947  56.890  1.00  0.00    -0.063 N 
HETATM    2  H   UNL     1       7.613  24.102  57.342  1.00  0.00     0.280 HD
HETATM    3  C   UNL     1       7.850  26.118  57.669  1.00  0.00     0.282 C 
HETATM    4  C   UNL     1       7.084  27.371  57.422  1.00  0.00     0.018 C 
HETATM    5  C   UNL     1       5.834  27.446  56.841  1.00  0.00    -0.023 C 
HETATM    6  C   UNL     1       5.434  28.817  56.619  1.00  0.00     0.073 C 
HETATM    7  C   UNL     1       6.277  29.679  57.309  1.00  0.00     0.093 C 
HETATM    8  S   UNL     1       7.664  28.888  57.899  1.00  0.00    -0.074 SA
HETATM    9  C   UNL     1       5.083  26.203  56.448  1.00  0.00     0.068 C 
HETATM   10  C   UNL     1       5.732  24.931  57.036  1.00  0.00     0.240 C 
ENDROOT
BRANCH   7  11
HETATM   11  N   UNL     1       6.109  31.044  57.490  1.00  0.00    -0.320 N 
HETATM   12  C   UNL     1       5.122  31.643  58.262  1.00  0.00     0.222 C 
HETATM   13  O   UNL     1       4.232  31.071  58.880  1.00  0.00    -0.273 OA
HETATM   14  H   UNL     1       6.551  31.636  56.792  1.00  0.00     0.169 HD
BRANCH  12  15
HETATM   15  C   UNL     1       5.262  33.160  58.271  1.00  0.00     0.104 C 
BRANCH  15  16
HETATM   16  C   UNL     1       3.945  33.896  58.513  1.00  0.00     0.020 C 
BRANCH  16  17
HETATM   17  C   UNL     1       3.793  34.679  59.823  1.00  0.00     0.080 C 
BRANCH  17  18
HETATM   18  S   UNL     1       3.274  33.740  61.303  1.00  0.00    -0.130 SA
BRANCH  18  19
HETATM   19  C   UNL     1       4.755  33.657  62.295  1.00  0.00     0.000 A 
HETATM   20  C   UNL     1       5.936  33.030  61.885  1.00  0.00     0.021 A 
HETATM   21  C   UNL     1       7.049  32.999  62.731  1.00  0.00     0.043 A 
HETATM   22  C   UNL     1       6.987  33.615  63.975  1.00  0.00     0.116 A 
HETATM   23  F   UNL     1       8.053  33.582  64.784  1.00  0.00    -0.206 F 
HETATM   24  C   UNL     1       5.835  34.270  64.387  1.00  0.00     0.043 A 
HETATM   25  C   UNL     1       4.721  34.293  63.546  1.00  0.00     0.021 A 
ENDBRANCH  18  19
ENDBRANCH  17  18
ENDBRANCH  16  17
ENDBRANCH  15  16
ENDBRANCH  12  15
ENDBRANCH   7  11
BRANCH   6  26
HETATM   26  C   UNL     1       4.258  29.224  55.855  1.00  0.00     0.252 C 
HETATM   27  N   UNL     1       3.108  29.395  56.574  1.00  0.00    -0.366 N 
HETATM   28  H   UNL     1       3.165  29.618  57.561  1.00  0.00     0.159 HD
HETATM   29  H   UNL     1       2.356  29.847  56.065  1.00  0.00     0.159 HD
HETATM   30  O   UNL     1       4.302  29.487  54.660  1.00  0.00    -0.268 OA
ENDBRANCH   6  26
BRANCH   1  31
HETATM   31  C   UNL     1       7.677  24.866  55.441  1.00  0.00     0.273 C 
BRANCH  31  32
HETATM   32  C   UNL     1       7.733  23.487  54.844  1.00  0.00    -0.033 A 
HETATM   33  C   UNL     1       7.777  23.277  53.458  1.00  0.00     0.009 A 
HETATM   34  C   UNL     1       7.858  21.981  52.945  1.00  0.00     0.001 A 
HETATM   35  C   UNL     1       7.917  20.887  53.805  1.00  0.00     0.000 A 
HETATM   36  C   UNL     1       7.894  21.082  55.183  1.00  0.00     0.001 A 
HETATM   37  C   UNL     1       7.801  22.374  55.700  1.00  0.00     0.009 A 
ENDBRANCH  31  32
ENDBRANCH   1  31
TORSDOF 9
ENDMDL
