MODEL 1
REMARK VINA RESULT:      -9.8      0.000      0.000
REMARK  6 active torsions:
REMARK  status: ('A' for Active; 'I' for Inactive)
REMARK    1  A    between atoms: O_2  and  C_3 
REMARK    2  A    between atoms: C_7  and  C_8 
REMARK    3  A    between atoms: C_8  and  N_9 
REMARK       I    between atoms: N_9  and  C_10 
REMARK    4  A    between atoms: C_10  and  C_12 
REMARK    5  A    between atoms: N_14  and  C_15 
REMARK    6  A    between atoms: C_23  and  C_27 
ROOT
HETATM    1  C   UNL     1       5.054  27.908  52.987  1.00  0.00     0.060 C 
HETATM    2  C   UNL     1       5.816  28.701  53.827  1.00  0.00     0.115 C 
HETATM    3  N   UNL     1       6.695  27.909  54.545  1.00  0.00    -0.321 N 
HETATM    4  C   UNL     1       6.619  26.610  54.040  1.00  0.00     0.051 A 
HETATM    5  C   UNL     1       7.404  25.458  54.276  1.00  0.00     0.043 A 
HETATM    6  C   UNL     1       7.072  24.245  53.649  1.00  0.00    -0.021 A 
HETATM    7  C   UNL     1       5.982  24.203  52.779  1.00  0.00     0.013 A 
HETATM    8  C   UNL     1       5.233  25.353  52.505  1.00  0.00     0.016 A 
HETATM    9  C   UNL     1       5.563  26.579  53.121  1.00  0.00     0.008 A 
ENDROOT
BRANCH   1  10
HETATM   10  C   UNL     1       3.935  28.342  52.152  1.00  0.00     0.254 C 
HETATM   11  N   UNL     1       4.232  28.471  50.813  1.00  0.00    -0.353 N 
HETATM   12  H   UNL     1       5.091  28.066  50.472  1.00  0.00     0.163 HD
HETATM   13  O   UNL     1       2.820  28.562  52.613  1.00  0.00    -0.268 OA
BRANCH  11  14
HETATM   14  C   UNL     1       3.223  28.825  49.845  1.00  0.00     0.161 C 
BRANCH  14  15
HETATM   15  C   UNL     1       3.015  27.729  48.834  1.00  0.00    -0.038 A 
HETATM   16  C   UNL     1       3.895  26.640  48.778  1.00  0.00     0.009 A 
HETATM   17  C   UNL     1       3.705  25.626  47.841  1.00  0.00     0.003 A 
HETATM   18  C   UNL     1       2.636  25.687  46.943  1.00  0.00     0.037 A 
HETATM   19  C   UNL     1       1.754  26.768  46.979  1.00  0.00     0.068 A 
HETATM   20  C   UNL     1       1.953  27.785  47.919  1.00  0.00     0.045 A 
BRANCH  19  21
HETATM   21  O   UNL     1       0.674  26.951  46.160  1.00  0.00    -0.356 OA
HETATM   22  C   UNL     1      -0.283  27.920  46.571  1.00  0.00     0.210 C 
ENDBRANCH  19  21
ENDBRANCH  14  15
ENDBRANCH  11  14
ENDBRANCH   1  10
BRANCH   3  23
HETATM   23  C   UNL     1       7.494  28.382  55.632  1.00  0.00     0.039 A 
HETATM   24  C   UNL     1       7.021  28.314  56.950  1.00  0.00     0.030 A 
HETATM   25  C   UNL     1       7.797  28.804  58.004  1.00  0.00     0.002 A 
HETATM   26  C   UNL     1       9.044  29.371  57.752  1.00  0.00     0.000 A 
HETATM   27  C   UNL     1       9.515  29.457  56.443  1.00  0.00     0.002 A 
HETATM   28  C   UNL     1       8.742  28.973  55.384  1.00  0.00     0.030 A 
ENDBRANCH   3  23
BRANCH   6  29
HETATM   29  C   UNL     1       7.873  23.058  53.904  1.00  0.00     0.010 A 
HETATM   30  C   UNL     1       8.035  21.869  53.154  1.00  0.00     0.152 A 
HETATM   31  N   UNL     1       8.887  21.009  53.719  1.00  0.00    -0.187 NA
HETATM   32  N   UNL     1       9.274  21.644  54.836  1.00  0.00    -0.289 N 
HETATM   33  H   UNL     1       9.939  21.180  55.447  1.00  0.00     0.188 HD
HETATM   34  C   UNL     1       8.701  22.872  54.993  1.00  0.00     0.123 A 
ENDBRANCH   6  29
TORSDOF 6
ENDMDL
MODEL 2
REMARK VINA RESULT:      -9.5      3.291      8.152
REMARK  6 active torsions:
REMARK  status: ('A' for Active; 'I' for Inactive)
REMARK    1  A    between atoms: O_2  and  C_3 
REMARK    2  A    between atoms: C_7  and  C_8 
REMARK    3  A    between atoms: C_8  and  N_9 
REMARK       I    between atoms: N_9  and  C_10 
REMARK    4  A    between atoms: C_10  and  C_12 
REMARK    5  A    between atoms: N_14  and  C_15 
REMARK    6  A    between atoms: C_23  and  C_27 
ROOT
HETATM    1  C   UNL     1       7.739  26.333  56.130  1.00  0.00     0.060 C 
HETATM    2  C   UNL     1       8.147  25.020  55.978  1.00  0.00     0.115 C 
HETATM    3  N   UNL     1       7.645  24.510  54.793  1.00  0.00    -0.321 N 
HETATM    4  C   UNL     1       7.046  25.557  54.090  1.00  0.00     0.051 A 
HETATM    5  C   UNL     1       6.540  25.642  52.773  1.00  0.00     0.043 A 
HETATM    6  C   UNL     1       5.943  26.835  52.328  1.00  0.00    -0.021 A 
HETATM    7  C   UNL     1       5.884  27.930  53.190  1.00  0.00     0.013 A 
HETATM    8  C   UNL     1       6.430  27.866  54.477  1.00  0.00     0.016 A 
HETATM    9  C   UNL     1       7.040  26.677  54.931  1.00  0.00     0.008 A 
ENDROOT
BRANCH   1  10
HETATM   10  C   UNL     1       7.957  27.188  57.297  1.00  0.00     0.254 C 
HETATM   11  N   UNL     1       8.437  28.445  57.008  1.00  0.00    -0.353 N 
HETATM   12  H   UNL     1       8.399  28.764  56.051  1.00  0.00     0.163 HD
HETATM   13  O   UNL     1       7.719  26.810  58.439  1.00  0.00    -0.268 OA
BRANCH  11  14
HETATM   14  C   UNL     1       8.643  29.433  58.039  1.00  0.00     0.161 C 
BRANCH  14  15
HETATM   15  C   UNL     1       7.486  30.393  58.127  1.00  0.00    -0.038 A 
HETATM   16  C   UNL     1       7.430  31.345  59.154  1.00  0.00     0.009 A 
HETATM   17  C   UNL     1       6.359  32.232  59.237  1.00  0.00     0.003 A 
HETATM   18  C   UNL     1       5.325  32.179  58.298  1.00  0.00     0.037 A 
HETATM   19  C   UNL     1       5.359  31.232  57.274  1.00  0.00     0.068 A 
HETATM   20  C   UNL     1       6.435  30.341  57.199  1.00  0.00     0.045 A 
BRANCH  19  21
HETATM   21  O   UNL     1       4.416  31.072  56.297  1.00  0.00    -0.356 OA
HETATM   22  C   UNL     1       3.763  29.809  56.240  1.00  0.00     0.210 C 
ENDBRANCH  19  21
ENDBRANCH  14  15
ENDBRANCH  11  14
ENDBRANCH   1  10
BRANCH   3  23
HETATM   23  C   UNL     1       7.719  23.132  54.419  1.00  0.00     0.039 A 
HETATM   24  C   UNL     1       7.619  22.122  55.385  1.00  0.00     0.030 A 
HETATM   25  C   UNL     1       7.720  20.779  55.015  1.00  0.00     0.002 A 
HETATM   26  C   UNL     1       7.930  20.434  53.682  1.00  0.00     0.000 A 
HETATM   27  C   UNL     1       8.047  21.432  52.717  1.00  0.00     0.002 A 
HETATM   28  C   UNL     1       7.951  22.778  53.081  1.00  0.00     0.030 A 
ENDBRANCH   3  23
BRANCH   6  29
HETATM   29  C   UNL     1       5.410  26.913  50.977  1.00  0.00     0.010 A 
HETATM   30  C   UNL     1       4.775  25.937  50.172  1.00  0.00     0.152 A 
HETATM   31  N   UNL     1       4.404  26.409  48.979  1.00  0.00    -0.187 NA
HETATM   32  N   UNL     1       4.801  27.690  49.013  1.00  0.00    -0.289 N 
HETATM   33  H   UNL     1       4.623  28.270  48.199  1.00  0.00     0.188 HD
HETATM   34  C   UNL     1       5.404  28.043  50.185  1.00  0.00     0.123 A 
ENDBRANCH   6  29
TORSDOF 6
ENDMDL
MODEL 3
REMARK VINA RESULT:      -9.5      4.064      7.959
REMARK  6 active torsions:
REMARK  status: ('A' for Active; 'I' for Inactive)
REMARK    1  A    between atoms: O_2  and  C_3 
REMARK    2  A    between atoms: C_7  and  C_8 
REMARK    3  A    between atoms: C_8  and  N_9 
REMARK       I    between atoms: N_9  and  C_10 
REMARK    4  A    between atoms: C_10  and  C_12 
REMARK    5  A    between atoms: N_14  and  C_15 
REMARK    6  A    between atoms: C_23  and  C_27 
ROOT
HETATM    1  C   UNL     1       6.454  26.756  54.558  1.00  0.00     0.060 C 
HETATM    2  C   UNL     1       7.423  27.069  55.494  1.00  0.00     0.115 C 
HETATM    3  N   UNL     1       7.242  28.367  55.937  1.00  0.00    -0.321 N 
HETATM    4  C   UNL     1       6.040  28.841  55.408  1.00  0.00     0.051 A 
HETATM    5  C   UNL     1       5.292  30.012  55.666  1.00  0.00     0.043 A 
HETATM    6  C   UNL     1       4.111  30.261  54.945  1.00  0.00    -0.021 A 
HETATM    7  C   UNL     1       3.680  29.330  54.000  1.00  0.00     0.013 A 
HETATM    8  C   UNL     1       4.392  28.146  53.778  1.00  0.00     0.016 A 
HETATM    9  C   UNL     1       5.573  27.880  54.502  1.00  0.00     0.008 A 
ENDROOT
BRANCH   1  10
HETATM   10  C   UNL     1       6.366  25.529  53.766  1.00  0.00     0.254 C 
HETATM   11  N   UNL     1       7.568  25.080  53.265  1.00  0.00    -0.353 N 
HETATM   12  H   UNL     1       8.419  25.472  53.639  1.00  0.00     0.163 HD
HETATM   13  O   UNL     1       5.303  24.947  53.575  1.00  0.00    -0.268 OA
BRANCH  11  14
HETATM   14  C   UNL     1       7.664  23.848  52.520  1.00  0.00     0.161 C 
BRANCH  14  15
HETATM   15  C   UNL     1       7.918  22.671  53.424  1.00  0.00    -0.038 A 
HETATM   16  C   UNL     1       7.991  21.375  52.897  1.00  0.00     0.009 A 
HETATM   17  C   UNL     1       8.223  20.285  53.733  1.00  0.00     0.003 A 
HETATM   18  C   UNL     1       8.380  20.472  55.109  1.00  0.00     0.037 A 
HETATM   19  C   UNL     1       8.301  21.754  55.653  1.00  0.00     0.068 A 
HETATM   20  C   UNL     1       8.063  22.844  54.809  1.00  0.00     0.045 A 
BRANCH  19  21
HETATM   21  O   UNL     1       8.433  22.075  56.976  1.00  0.00    -0.356 OA
HETATM   22  C   UNL     1       8.494  23.460  57.294  1.00  0.00     0.210 C 
ENDBRANCH  19  21
ENDBRANCH  14  15
ENDBRANCH  11  14
ENDBRANCH   1  10
BRANCH   3  23
HETATM   23  C   UNL     1       8.173  29.069  56.763  1.00  0.00     0.039 A 
HETATM   24  C   UNL     1       7.836  29.430  58.075  1.00  0.00     0.030 A 
HETATM   25  C   UNL     1       8.742  30.141  58.867  1.00  0.00     0.002 A 
HETATM   26  C   UNL     1       9.985  30.504  58.354  1.00  0.00     0.000 A 
HETATM   27  C   UNL     1      10.322  30.164  57.046  1.00  0.00     0.002 A 
HETATM   28  C   UNL     1       9.419  29.457  56.247  1.00  0.00     0.030 A 
ENDBRANCH   3  23
BRANCH   6  29
HETATM   29  C   UNL     1       3.351  31.475  55.203  1.00  0.00     0.010 A 
HETATM   30  C   UNL     1       3.197  32.238  56.386  1.00  0.00     0.152 A 
HETATM   31  N   UNL     1       2.424  33.314  56.212  1.00  0.00    -0.187 NA
HETATM   32  N   UNL     1       2.078  33.244  54.917  1.00  0.00    -0.289 N 
HETATM   33  H   UNL     1       1.480  33.971  54.539  1.00  0.00     0.188 HD
HETATM   34  C   UNL     1       2.609  32.167  54.268  1.00  0.00     0.123 A 
ENDBRANCH   6  29
TORSDOF 6
ENDMDL
MODEL 4
REMARK VINA RESULT:      -9.4      3.674      9.220
REMARK  6 active torsions:
REMARK  status: ('A' for Active; 'I' for Inactive)
REMARK    1  A    between atoms: O_2  and  C_3 
REMARK    2  A    between atoms: C_7  and  C_8 
REMARK    3  A    between atoms: C_8  and  N_9 
REMARK       I    between atoms: N_9  and  C_10 
REMARK    4  A    between atoms: C_10  and  C_12 
REMARK    5  A    between atoms: N_14  and  C_15 
REMARK    6  A    between atoms: C_23  and  C_27 
ROOT
HETATM    1  C   UNL     1       7.364  25.986  56.061  1.00  0.00     0.060 C 
HETATM    2  C   UNL     1       7.914  24.730  55.874  1.00  0.00     0.115 C 
HETATM    3  N   UNL     1       7.514  24.224  54.650  1.00  0.00    -0.321 N 
HETATM    4  C   UNL     1       6.835  25.233  53.965  1.00  0.00     0.051 A 
HETATM    5  C   UNL     1       6.372  25.322  52.631  1.00  0.00     0.043 A 
HETATM    6  C   UNL     1       5.670  26.465  52.210  1.00  0.00    -0.021 A 
HETATM    7  C   UNL     1       5.463  27.509  53.112  1.00  0.00     0.013 A 
HETATM    8  C   UNL     1       5.963  27.445  54.417  1.00  0.00     0.016 A 
HETATM    9  C   UNL     1       6.678  26.307  54.849  1.00  0.00     0.008 A 
ENDROOT
BRANCH   1  10
HETATM   10  C   UNL     1       7.447  26.806  57.270  1.00  0.00     0.254 C 
HETATM   11  N   UNL     1       7.149  28.137  57.083  1.00  0.00    -0.353 N 
HETATM   12  H   UNL     1       6.699  28.411  56.223  1.00  0.00     0.163 HD
HETATM   13  O   UNL     1       7.748  26.335  58.361  1.00  0.00    -0.268 OA
BRANCH  11  14
HETATM   14  C   UNL     1       7.119  29.068  58.185  1.00  0.00     0.161 C 
BRANCH  14  15
HETATM   15  C   UNL     1       8.361  29.918  58.228  1.00  0.00    -0.038 A 
HETATM   16  C   UNL     1       9.349  29.778  57.244  1.00  0.00     0.009 A 
HETATM   17  C   UNL     1      10.501  30.562  57.284  1.00  0.00     0.003 A 
HETATM   18  C   UNL     1      10.684  31.494  58.309  1.00  0.00     0.037 A 
HETATM   19  C   UNL     1       9.715  31.640  59.302  1.00  0.00     0.068 A 
HETATM   20  C   UNL     1       8.563  30.847  59.259  1.00  0.00     0.045 A 
BRANCH  19  21
HETATM   21  O   UNL     1       9.770  32.509  60.357  1.00  0.00    -0.356 OA
HETATM   22  C   UNL     1       9.346  32.009  61.620  1.00  0.00     0.210 C 
ENDBRANCH  19  21
ENDBRANCH  14  15
ENDBRANCH  11  14
ENDBRANCH   1  10
BRANCH   3  23
HETATM   23  C   UNL     1       7.747  22.879  54.224  1.00  0.00     0.039 A 
HETATM   24  C   UNL     1       7.968  22.585  52.871  1.00  0.00     0.030 A 
HETATM   25  C   UNL     1       8.167  21.265  52.459  1.00  0.00     0.002 A 
HETATM   26  C   UNL     1       8.140  20.229  53.390  1.00  0.00     0.000 A 
HETATM   27  C   UNL     1       7.905  20.511  54.734  1.00  0.00     0.002 A 
HETATM   28  C   UNL     1       7.701  21.828  55.152  1.00  0.00     0.030 A 
ENDBRANCH   3  23
BRANCH   6  29
HETATM   29  C   UNL     1       5.183  26.548  50.842  1.00  0.00     0.010 A 
HETATM   30  C   UNL     1       4.454  25.620  50.060  1.00  0.00     0.152 A 
HETATM   31  N   UNL     1       4.171  26.080  48.838  1.00  0.00    -0.187 NA
HETATM   32  N   UNL     1       4.718  27.305  48.831  1.00  0.00    -0.289 N 
HETATM   33  H   UNL     1       4.631  27.866  47.990  1.00  0.00     0.188 HD
HETATM   34  C   UNL     1       5.332  27.634  50.005  1.00  0.00     0.123 A 
ENDBRANCH   6  29
TORSDOF 6
ENDMDL
MODEL 5
REMARK VINA RESULT:      -9.4      4.682      7.745
REMARK  6 active torsions:
REMARK  status: ('A' for Active; 'I' for Inactive)
REMARK    1  A    between atoms: O_2  and  C_3 
REMARK    2  A    between atoms: C_7  and  C_8 
REMARK    3  A    between atoms: C_8  and  N_9 
REMARK       I    between atoms: N_9  and  C_10 
REMARK    4  A    between atoms: C_10  and  C_12 
REMARK    5  A    between atoms: N_14  and  C_15 
REMARK    6  A    between atoms: C_23  and  C_27 
ROOT
HETATM    1  C   UNL     1       6.805  26.740  57.140  1.00  0.00     0.060 C 
HETATM    2  C   UNL     1       7.674  27.514  57.888  1.00  0.00     0.115 C 
HETATM    3  N   UNL     1       7.470  28.853  57.603  1.00  0.00    -0.321 N 
HETATM    4  C   UNL     1       6.341  28.955  56.789  1.00  0.00     0.051 A 
HETATM    5  C   UNL     1       5.591  30.070  56.350  1.00  0.00     0.043 A 
HETATM    6  C   UNL     1       4.499  29.882  55.485  1.00  0.00    -0.021 A 
HETATM    7  C   UNL     1       4.155  28.589  55.092  1.00  0.00     0.013 A 
HETATM    8  C   UNL     1       4.865  27.479  55.564  1.00  0.00     0.016 A 
HETATM    9  C   UNL     1       5.957  27.654  56.441  1.00  0.00     0.008 A 
ENDROOT
BRANCH   1  10
HETATM   10  C   UNL     1       6.780  25.280  57.062  1.00  0.00     0.254 C 
HETATM   11  N   UNL     1       8.018  24.689  56.945  1.00  0.00    -0.353 N 
HETATM   12  H   UNL     1       8.836  25.248  57.136  1.00  0.00     0.163 HD
HETATM   13  O   UNL     1       5.735  24.640  57.107  1.00  0.00    -0.268 OA
BRANCH  11  14
HETATM   14  C   UNL     1       8.173  23.254  56.923  1.00  0.00     0.161 C 
BRANCH  14  15
HETATM   15  C   UNL     1       8.063  22.706  55.525  1.00  0.00    -0.038 A 
HETATM   16  C   UNL     1       7.969  21.324  55.311  1.00  0.00     0.009 A 
HETATM   17  C   UNL     1       7.871  20.816  54.017  1.00  0.00     0.003 A 
HETATM   18  C   UNL     1       7.870  21.679  52.919  1.00  0.00     0.037 A 
HETATM   19  C   UNL     1       7.972  23.056  53.113  1.00  0.00     0.068 A 
HETATM   20  C   UNL     1       8.075  23.561  54.413  1.00  0.00     0.045 A 
BRANCH  19  21
HETATM   21  O   UNL     1       7.985  24.007  52.129  1.00  0.00    -0.356 OA
HETATM   22  C   UNL     1       7.869  25.362  52.548  1.00  0.00     0.210 C 
ENDBRANCH  19  21
ENDBRANCH  14  15
ENDBRANCH  11  14
ENDBRANCH   1  10
BRANCH   3  23
HETATM   23  C   UNL     1       8.321  29.908  58.059  1.00  0.00     0.039 A 
HETATM   24  C   UNL     1       9.599  30.083  57.511  1.00  0.00     0.030 A 
HETATM   25  C   UNL     1      10.435  31.100  57.981  1.00  0.00     0.002 A 
HETATM   26  C   UNL     1      10.006  31.942  59.005  1.00  0.00     0.000 A 
HETATM   27  C   UNL     1       8.744  31.764  59.566  1.00  0.00     0.002 A 
HETATM   28  C   UNL     1       7.905  30.747  59.104  1.00  0.00     0.030 A 
ENDBRANCH   3  23
BRANCH   6  29
HETATM   29  C   UNL     1       3.739  31.033  55.024  1.00  0.00     0.010 A 
HETATM   30  C   UNL     1       2.532  31.599  55.501  1.00  0.00     0.152 A 
HETATM   31  N   UNL     1       2.159  32.683  54.814  1.00  0.00    -0.187 NA
HETATM   32  N   UNL     1       3.125  32.815  53.892  1.00  0.00    -0.289 N 
HETATM   33  H   UNL     1       3.062  33.588  53.238  1.00  0.00     0.188 HD
HETATM   34  C   UNL     1       4.094  31.859  53.976  1.00  0.00     0.123 A 
ENDBRANCH   6  29
TORSDOF 6
ENDMDL
MODEL 6
REMARK VINA RESULT:      -9.4      3.304      7.517
REMARK  6 active torsions:
REMARK  status: ('A' for Active; 'I' for Inactive)
REMARK    1  A    between atoms: O_2  and  C_3 
REMARK    2  A    between atoms: C_7  and  C_8 
REMARK    3  A    between atoms: C_8  and  N_9 
REMARK       I    between atoms: N_9  and  C_10 
REMARK    4  A    between atoms: C_10  and  C_12 
REMARK    5  A    between atoms: N_14  and  C_15 
REMARK    6  A    between atoms: C_23  and  C_27 
ROOT
HETATM    1  C   UNL     1       7.218  27.266  55.995  1.00  0.00     0.060 C 
HETATM    2  C   UNL     1       6.447  27.676  54.922  1.00  0.00     0.115 C 
HETATM    3  N   UNL     1       6.480  26.712  53.929  1.00  0.00    -0.321 N 
HETATM    4  C   UNL     1       7.143  25.593  54.435  1.00  0.00     0.051 A 
HETATM    5  C   UNL     1       7.307  24.283  53.926  1.00  0.00     0.043 A 
HETATM    6  C   UNL     1       8.071  23.346  54.643  1.00  0.00    -0.021 A 
HETATM    7  C   UNL     1       8.637  23.716  55.863  1.00  0.00     0.013 A 
HETATM    8  C   UNL     1       8.434  24.995  56.393  1.00  0.00     0.016 A 
HETATM    9  C   UNL     1       7.660  25.943  55.688  1.00  0.00     0.008 A 
ENDROOT
BRANCH   1  10
HETATM   10  C   UNL     1       7.536  28.045  57.191  1.00  0.00     0.254 C 
HETATM   11  N   UNL     1       7.569  29.408  56.999  1.00  0.00    -0.353 N 
HETATM   12  H   UNL     1       7.174  29.782  56.148  1.00  0.00     0.163 HD
HETATM   13  O   UNL     1       7.746  27.519  58.279  1.00  0.00    -0.268 OA
BRANCH  11  14
HETATM   14  C   UNL     1       7.802  30.322  58.091  1.00  0.00     0.161 C 
BRANCH  14  15
HETATM   15  C   UNL     1       6.564  31.109  58.430  1.00  0.00    -0.038 A 
HETATM   16  C   UNL     1       6.610  32.121  59.398  1.00  0.00     0.009 A 
HETATM   17  C   UNL     1       5.464  32.848  59.714  1.00  0.00     0.003 A 
HETATM   18  C   UNL     1       4.255  32.572  59.071  1.00  0.00     0.037 A 
HETATM   19  C   UNL     1       4.188  31.562  58.111  1.00  0.00     0.068 A 
HETATM   20  C   UNL     1       5.341  30.832  57.802  1.00  0.00     0.045 A 
BRANCH  19  21
HETATM   21  O   UNL     1       3.072  31.190  57.413  1.00  0.00    -0.356 OA
HETATM   22  C   UNL     1       3.164  31.227  55.994  1.00  0.00     0.210 C 
ENDBRANCH  19  21
ENDBRANCH  14  15
ENDBRANCH  11  14
ENDBRANCH   1  10
BRANCH   3  23
HETATM   23  C   UNL     1       5.947  26.897  52.615  1.00  0.00     0.039 A 
HETATM   24  C   UNL     1       5.769  28.183  52.090  1.00  0.00     0.030 A 
HETATM   25  C   UNL     1       5.221  28.356  50.816  1.00  0.00     0.002 A 
HETATM   26  C   UNL     1       4.841  27.249  50.061  1.00  0.00     0.000 A 
HETATM   27  C   UNL     1       4.999  25.966  50.583  1.00  0.00     0.002 A 
HETATM   28  C   UNL     1       5.542  25.787  51.858  1.00  0.00     0.030 A 
ENDBRANCH   3  23
BRANCH   6  29
HETATM   29  C   UNL     1       8.250  22.004  54.109  1.00  0.00     0.010 A 
HETATM   30  C   UNL     1       8.842  20.851  54.680  1.00  0.00     0.152 A 
HETATM   31  N   UNL     1       8.794  19.789  53.870  1.00  0.00    -0.187 NA
HETATM   32  N   UNL     1       8.172  20.257  52.778  1.00  0.00    -0.289 N 
HETATM   33  H   UNL     1       8.014  19.619  52.005  1.00  0.00     0.188 HD
HETATM   34  C   UNL     1       7.823  21.573  52.870  1.00  0.00     0.123 A 
ENDBRANCH   6  29
TORSDOF 6
ENDMDL
MODEL 7
REMARK VINA RESULT:      -9.3      1.048      1.681
REMARK  6 active torsions:
REMARK  status: ('A' for Active; 'I' for Inactive)
REMARK    1  A    between atoms: O_2  and  C_3 
REMARK    2  A    between atoms: C_7  and  C_8 
REMARK    3  A    between atoms: C_8  and  N_9 
REMARK       I    between atoms: N_9  and  C_10 
REMARK    4  A    between atoms: C_10  and  C_12 
REMARK    5  A    between atoms: N_14  and  C_15 
REMARK    6  A    between atoms: C_23  and  C_27 
ROOT
HETATM    1  C   UNL     1       4.926  28.103  53.327  1.00  0.00     0.060 C 
HETATM    2  C   UNL     1       5.725  28.894  54.134  1.00  0.00     0.115 C 
HETATM    3  N   UNL     1       6.659  28.106  54.782  1.00  0.00    -0.321 N 
HETATM    4  C   UNL     1       6.574  26.814  54.259  1.00  0.00     0.051 A 
HETATM    5  C   UNL     1       7.392  25.673  54.424  1.00  0.00     0.043 A 
HETATM    6  C   UNL     1       7.042  24.465  53.796  1.00  0.00    -0.021 A 
HETATM    7  C   UNL     1       5.902  24.419  52.993  1.00  0.00     0.013 A 
HETATM    8  C   UNL     1       5.118  25.560  52.787  1.00  0.00     0.016 A 
HETATM    9  C   UNL     1       5.465  26.781  53.405  1.00  0.00     0.008 A 
ENDROOT
BRANCH   1  10
HETATM   10  C   UNL     1       3.751  28.531  52.570  1.00  0.00     0.254 C 
HETATM   11  N   UNL     1       4.029  29.302  51.463  1.00  0.00    -0.353 N 
HETATM   12  H   UNL     1       4.981  29.337  51.131  1.00  0.00     0.163 HD
HETATM   13  O   UNL     1       2.611  28.216  52.895  1.00  0.00    -0.268 OA
BRANCH  11  14
HETATM   14  C   UNL     1       2.987  29.750  50.572  1.00  0.00     0.161 C 
BRANCH  14  15
HETATM   15  C   UNL     1       2.726  28.750  49.476  1.00  0.00    -0.038 A 
HETATM   16  C   UNL     1       1.415  28.371  49.160  1.00  0.00     0.009 A 
HETATM   17  C   UNL     1       1.173  27.443  48.148  1.00  0.00     0.003 A 
HETATM   18  C   UNL     1       2.237  26.878  47.442  1.00  0.00     0.037 A 
HETATM   19  C   UNL     1       3.550  27.236  47.749  1.00  0.00     0.068 A 
HETATM   20  C   UNL     1       3.787  28.164  48.769  1.00  0.00     0.045 A 
BRANCH  19  21
HETATM   21  O   UNL     1       4.677  26.758  47.140  1.00  0.00    -0.356 OA
HETATM   22  C   UNL     1       5.832  27.588  47.189  1.00  0.00     0.210 C 
ENDBRANCH  19  21
ENDBRANCH  14  15
ENDBRANCH  11  14
ENDBRANCH   1  10
BRANCH   3  23
HETATM   23  C   UNL     1       7.515  28.573  55.827  1.00  0.00     0.039 A 
HETATM   24  C   UNL     1       7.065  28.618  57.154  1.00  0.00     0.030 A 
HETATM   25  C   UNL     1       7.898  29.103  58.165  1.00  0.00     0.002 A 
HETATM   26  C   UNL     1       9.181  29.552  57.861  1.00  0.00     0.000 A 
HETATM   27  C   UNL     1       9.631  29.527  56.543  1.00  0.00     0.002 A 
HETATM   28  C   UNL     1       8.801  29.047  55.526  1.00  0.00     0.030 A 
ENDBRANCH   3  23
BRANCH   6  29
HETATM   29  C   UNL     1       7.877  23.288  53.980  1.00  0.00     0.010 A 
HETATM   30  C   UNL     1       8.039  22.132  53.180  1.00  0.00     0.152 A 
HETATM   31  N   UNL     1       8.929  21.272  53.685  1.00  0.00    -0.187 NA
HETATM   32  N   UNL     1       9.340  21.873  54.811  1.00  0.00    -0.289 N 
HETATM   33  H   UNL     1      10.035  21.402  55.381  1.00  0.00     0.188 HD
HETATM   34  C   UNL     1       8.746  23.082  55.033  1.00  0.00     0.123 A 
ENDBRANCH   6  29
TORSDOF 6
ENDMDL
MODEL 8
REMARK VINA RESULT:      -9.2      5.341     10.627
REMARK  6 active torsions:
REMARK  status: ('A' for Active; 'I' for Inactive)
REMARK    1  A    between atoms: O_2  and  C_3 
REMARK    2  A    between atoms: C_7  and  C_8 
REMARK    3  A    between atoms: C_8  and  N_9 
REMARK       I    between atoms: N_9  and  C_10 
REMARK    4  A    between atoms: C_10  and  C_12 
REMARK    5  A    between atoms: N_14  and  C_15 
REMARK    6  A    between atoms: C_23  and  C_27 
ROOT
HETATM    1  C   UNL     1       6.916  31.042  58.457  1.00  0.00     0.060 C 
HETATM    2  C   UNL     1       5.819  31.635  57.857  1.00  0.00     0.115 C 
HETATM    3  N   UNL     1       5.381  30.849  56.806  1.00  0.00    -0.321 N 
HETATM    4  C   UNL     1       6.098  29.652  56.832  1.00  0.00     0.051 A 
HETATM    5  C   UNL     1       5.943  28.443  56.114  1.00  0.00     0.043 A 
HETATM    6  C   UNL     1       6.851  27.389  56.316  1.00  0.00    -0.021 A 
HETATM    7  C   UNL     1       7.880  27.543  57.245  1.00  0.00     0.013 A 
HETATM    8  C   UNL     1       8.005  28.719  57.994  1.00  0.00     0.016 A 
HETATM    9  C   UNL     1       7.094  29.781  57.807  1.00  0.00     0.008 A 
ENDROOT
BRANCH   1  10
HETATM   10  C   UNL     1       7.742  31.607  59.523  1.00  0.00     0.254 C 
HETATM   11  N   UNL     1       7.464  31.124  60.783  1.00  0.00    -0.353 N 
HETATM   12  H   UNL     1       6.896  30.295  60.863  1.00  0.00     0.163 HD
HETATM   13  O   UNL     1       8.618  32.436  59.304  1.00  0.00    -0.268 OA
BRANCH  11  14
HETATM   14  C   UNL     1       8.233  31.529  61.935  1.00  0.00     0.161 C 
BRANCH  14  15
HETATM   15  C   UNL     1       7.387  32.277  62.932  1.00  0.00    -0.038 A 
HETATM   16  C   UNL     1       7.982  32.920  64.025  1.00  0.00     0.009 A 
HETATM   17  C   UNL     1       7.199  33.609  64.949  1.00  0.00     0.003 A 
HETATM   18  C   UNL     1       5.811  33.663  64.797  1.00  0.00     0.037 A 
HETATM   19  C   UNL     1       5.201  33.021  63.720  1.00  0.00     0.068 A 
HETATM   20  C   UNL     1       5.991  32.326  62.798  1.00  0.00     0.045 A 
BRANCH  19  21
HETATM   21  O   UNL     1       3.859  32.993  63.456  1.00  0.00    -0.356 OA
HETATM   22  C   UNL     1       3.152  34.219  63.605  1.00  0.00     0.210 C 
ENDBRANCH  19  21
ENDBRANCH  14  15
ENDBRANCH  11  14
ENDBRANCH   1  10
BRANCH   3  23
HETATM   23  C   UNL     1       4.389  31.257  55.860  1.00  0.00     0.039 A 
HETATM   24  C   UNL     1       4.482  30.872  54.516  1.00  0.00     0.030 A 
HETATM   25  C   UNL     1       3.523  31.298  53.592  1.00  0.00     0.002 A 
HETATM   26  C   UNL     1       2.472  32.115  54.001  1.00  0.00     0.000 A 
HETATM   27  C   UNL     1       2.381  32.516  55.332  1.00  0.00     0.002 A 
HETATM   28  C   UNL     1       3.339  32.097  56.259  1.00  0.00     0.030 A 
ENDBRANCH   3  23
BRANCH   6  29
HETATM   29  C   UNL     1       6.697  26.152  55.566  1.00  0.00     0.010 A 
HETATM   30  C   UNL     1       7.261  24.869  55.768  1.00  0.00     0.152 A 
HETATM   31  N   UNL     1       6.853  23.975  54.862  1.00  0.00    -0.187 NA
HETATM   32  N   UNL     1       6.028  24.682  54.075  1.00  0.00    -0.289 N 
HETATM   33  H   UNL     1       5.582  24.207  53.297  1.00  0.00     0.188 HD
HETATM   34  C   UNL     1       5.897  25.987  54.454  1.00  0.00     0.123 A 
ENDBRANCH   6  29
TORSDOF 6
ENDMDL
MODEL 9
REMARK VINA RESULT:      -9.2      3.183      8.042
REMARK  6 active torsions:
REMARK  status: ('A' for Active; 'I' for Inactive)
REMARK    1  A    between atoms: O_2  and  C_3 
REMARK    2  A    between atoms: C_7  and  C_8 
REMARK    3  A    between atoms: C_8  and  N_9 
REMARK       I    between atoms: N_9  and  C_10 
REMARK    4  A    between atoms: C_10  and  C_12 
REMARK    5  A    between atoms: N_14  and  C_15 
REMARK    6  A    between atoms: C_23  and  C_27 
ROOT
HETATM    1  C   UNL     1       5.471  27.485  55.495  1.00  0.00     0.060 C 
HETATM    2  C   UNL     1       4.982  27.797  54.238  1.00  0.00     0.115 C 
HETATM    3  N   UNL     1       5.406  26.848  53.325  1.00  0.00    -0.321 N 
HETATM    4  C   UNL     1       6.034  25.819  54.029  1.00  0.00     0.051 A 
HETATM    5  C   UNL     1       6.491  24.542  53.628  1.00  0.00     0.043 A 
HETATM    6  C   UNL     1       7.136  23.707  54.557  1.00  0.00    -0.021 A 
HETATM    7  C   UNL     1       7.293  24.143  55.872  1.00  0.00     0.013 A 
HETATM    8  C   UNL     1       6.797  25.385  56.285  1.00  0.00     0.016 A 
HETATM    9  C   UNL     1       6.139  26.229  55.364  1.00  0.00     0.008 A 
ENDROOT
BRANCH   1  10
HETATM   10  C   UNL     1       5.349  28.295  56.706  1.00  0.00     0.254 C 
HETATM   11  N   UNL     1       5.900  29.554  56.615  1.00  0.00    -0.353 N 
HETATM   12  H   UNL     1       6.141  29.906  55.700  1.00  0.00     0.163 HD
HETATM   13  O   UNL     1       4.790  27.883  57.717  1.00  0.00    -0.268 OA
BRANCH  11  14
HETATM   14  C   UNL     1       5.806  30.502  57.698  1.00  0.00     0.161 C 
BRANCH  14  15
HETATM   15  C   UNL     1       7.164  30.857  58.244  1.00  0.00    -0.038 A 
HETATM   16  C   UNL     1       7.289  31.785  59.287  1.00  0.00     0.009 A 
HETATM   17  C   UNL     1       8.545  32.116  59.790  1.00  0.00     0.003 A 
HETATM   18  C   UNL     1       9.696  31.529  59.257  1.00  0.00     0.037 A 
HETATM   19  C   UNL     1       9.591  30.610  58.213  1.00  0.00     0.068 A 
HETATM   20  C   UNL     1       8.328  30.285  57.708  1.00  0.00     0.045 A 
BRANCH  19  21
HETATM   21  O   UNL     1      10.633  29.967  57.601  1.00  0.00    -0.356 OA
HETATM   22  C   UNL     1      10.470  29.654  56.223  1.00  0.00     0.210 C 
ENDBRANCH  19  21
ENDBRANCH  14  15
ENDBRANCH  11  14
ENDBRANCH   1  10
BRANCH   3  23
HETATM   23  C   UNL     1       5.238  26.966  51.910  1.00  0.00     0.039 A 
HETATM   24  C   UNL     1       4.894  25.850  51.135  1.00  0.00     0.030 A 
HETATM   25  C   UNL     1       4.759  25.969  49.749  1.00  0.00     0.002 A 
HETATM   26  C   UNL     1       4.974  27.196  49.126  1.00  0.00     0.000 A 
HETATM   27  C   UNL     1       5.333  28.306  49.888  1.00  0.00     0.002 A 
HETATM   28  C   UNL     1       5.473  28.194  51.273  1.00  0.00     0.030 A 
ENDBRANCH   3  23
BRANCH   6  29
HETATM   29  C   UNL     1       7.617  22.400  54.137  1.00  0.00     0.010 A 
HETATM   30  C   UNL     1       7.877  21.225  54.882  1.00  0.00     0.152 A 
HETATM   31  N   UNL     1       8.295  20.209  54.121  1.00  0.00    -0.187 NA
HETATM   32  N   UNL     1       8.305  20.729  52.885  1.00  0.00    -0.289 N 
HETATM   33  H   UNL     1       8.592  20.134  52.115  1.00  0.00     0.188 HD
HETATM   34  C   UNL     1       7.906  22.033  52.838  1.00  0.00     0.123 A 
ENDBRANCH   6  29
TORSDOF 6
ENDMDL
MODEL 10
REMARK VINA RESULT:      -9.2      3.280      8.789
REMARK  6 active torsions:
REMARK  status: ('A' for Active; 'I' for Inactive)
REMARK    1  A    between atoms: O_2  and  C_3 
REMARK    2  A    between atoms: C_7  and  C_8 
REMARK    3  A    between atoms: C_8  and  N_9 
REMARK       I    between atoms: N_9  and  C_10 
REMARK    4  A    between atoms: C_10  and  C_12 
REMARK    5  A    between atoms: N_14  and  C_15 
REMARK    6  A    between atoms: C_23  and  C_27 
ROOT
HETATM    1  C   UNL     1       5.850  27.321  55.572  1.00  0.00     0.060 C 
HETATM    2  C   UNL     1       6.616  26.171  55.644  1.00  0.00     0.115 C 
HETATM    3  N   UNL     1       6.612  25.530  54.418  1.00  0.00    -0.321 N 
HETATM    4  C   UNL     1       5.976  26.363  53.496  1.00  0.00     0.051 A 
HETATM    5  C   UNL     1       5.847  26.290  52.089  1.00  0.00     0.043 A 
HETATM    6  C   UNL     1       5.103  27.266  51.404  1.00  0.00    -0.021 A 
HETATM    7  C   UNL     1       4.523  28.311  52.123  1.00  0.00     0.013 A 
HETATM    8  C   UNL     1       4.690  28.413  53.509  1.00  0.00     0.016 A 
HETATM    9  C   UNL     1       5.443  27.445  54.207  1.00  0.00     0.008 A 
ENDROOT
BRANCH   1  10
HETATM   10  C   UNL     1       5.506  28.214  56.677  1.00  0.00     0.254 C 
HETATM   11  N   UNL     1       6.366  29.275  56.849  1.00  0.00    -0.353 N 
HETATM   12  H   UNL     1       7.016  29.490  56.108  1.00  0.00     0.163 HD
HETATM   13  O   UNL     1       4.521  28.030  57.385  1.00  0.00    -0.268 OA
BRANCH  11  14
HETATM   14  C   UNL     1       6.131  30.286  57.852  1.00  0.00     0.161 C 
BRANCH  14  15
HETATM   15  C   UNL     1       7.422  30.840  58.394  1.00  0.00    -0.038 A 
HETATM   16  C   UNL     1       7.411  31.748  59.462  1.00  0.00     0.009 A 
HETATM   17  C   UNL     1       8.605  32.263  59.961  1.00  0.00     0.003 A 
HETATM   18  C   UNL     1       9.827  31.884  59.400  1.00  0.00     0.037 A 
HETATM   19  C   UNL     1       9.856  30.989  58.330  1.00  0.00     0.068 A 
HETATM   20  C   UNL     1       8.654  30.478  57.829  1.00  0.00     0.045 A 
BRANCH  19  21
HETATM   21  O   UNL     1      10.978  30.539  57.689  1.00  0.00    -0.356 OA
HETATM   22  C   UNL     1      10.781  29.607  56.633  1.00  0.00     0.210 C 
ENDBRANCH  19  21
ENDBRANCH  14  15
ENDBRANCH  11  14
ENDBRANCH   1  10
BRANCH   3  23
HETATM   23  C   UNL     1       7.147  24.223  54.195  1.00  0.00     0.039 A 
HETATM   24  C   UNL     1       7.546  23.822  52.913  1.00  0.00     0.030 A 
HETATM   25  C   UNL     1       8.042  22.534  52.698  1.00  0.00     0.002 A 
HETATM   26  C   UNL     1       8.136  21.634  53.757  1.00  0.00     0.000 A 
HETATM   27  C   UNL     1       7.725  22.018  55.032  1.00  0.00     0.002 A 
HETATM   28  C   UNL     1       7.225  23.304  55.252  1.00  0.00     0.030 A 
ENDBRANCH   3  23
BRANCH   6  29
HETATM   29  C   UNL     1       4.961  27.180  49.959  1.00  0.00     0.010 A 
HETATM   30  C   UNL     1       5.337  28.083  48.935  1.00  0.00     0.152 A 
HETATM   31  N   UNL     1       5.052  27.628  47.711  1.00  0.00    -0.187 NA
HETATM   32  N   UNL     1       4.491  26.432  47.946  1.00  0.00    -0.289 N 
HETATM   33  H   UNL     1       4.186  25.880  47.151  1.00  0.00     0.188 HD
HETATM   34  C   UNL     1       4.416  26.115  49.271  1.00  0.00     0.123 A 
ENDBRANCH   6  29
TORSDOF 6
ENDMDL
