MODEL 1
REMARK VINA RESULT:      -9.8      0.000      0.000
REMARK  10 active torsions:
REMARK  status: ('A' for Active; 'I' for Inactive)
REMARK    1  A    between atoms: C_4  and  N_5 
REMARK    2  A    between atoms: N_5  and  C_6 
REMARK    3  A    between atoms: C_6  and  N_7 
REMARK    4  A    between atoms: N_7  and  N_8 
REMARK       I    between atoms: N_8  and  C_9 
REMARK    5  A    between atoms: C_9  and  C_10 
REMARK    6  A    between atoms: C_10  and  O_11 
REMARK    7  A    between atoms: O_11  and  C_12 
REMARK    8  A    between atoms: C_23  and  C_24 
REMARK    9  A    between atoms: C_24  and  O_25 
REMARK   10  A    between atoms: C_28  and  C_29 
ROOT
HETATM    1  C   UNL     1       5.186  30.419  58.092  1.00  0.00     0.191 C 
HETATM    2  S   UNL     1       3.841  31.427  58.172  1.00  0.00    -0.039 SA
ENDROOT
BRANCH   1   3
HETATM    3  N   UNL     1       4.958  29.097  57.828  1.00  0.00    -0.325 N 
HETATM    4  H   UNL     1       4.943  28.540  58.677  1.00  0.00     0.169 HD
BRANCH   3   5
HETATM    5  C   UNL     1       5.246  28.387  56.680  1.00  0.00     0.094 C 
HETATM    6  S   UNL     1       4.259  28.898  55.389  1.00  0.00    -0.075 SA
HETATM    7  C   UNL     1       4.864  27.690  54.346  1.00  0.00    -0.007 C 
HETATM    8  C   UNL     1       4.262  27.528  52.987  1.00  0.00     0.057 C 
HETATM    9  C   UNL     1       5.909  26.996  54.935  1.00  0.00     0.006 C 
HETATM   10  C   UNL     1       6.194  27.459  56.285  1.00  0.00     0.085 C 
BRANCH   9  11
HETATM   11  C   UNL     1       6.590  25.911  54.232  1.00  0.00    -0.024 A 
HETATM   12  C   UNL     1       6.326  24.583  54.590  1.00  0.00     0.012 A 
HETATM   13  C   UNL     1       6.983  23.537  53.937  1.00  0.00     0.001 A 
HETATM   14  C   UNL     1       7.903  23.813  52.927  1.00  0.00     0.000 A 
HETATM   15  C   UNL     1       8.170  25.134  52.568  1.00  0.00     0.001 A 
HETATM   16  C   UNL     1       7.517  26.183  53.220  1.00  0.00     0.012 A 
ENDBRANCH   9  11
BRANCH  10  17
HETATM   17  C   UNL     1       7.352  27.051  57.074  1.00  0.00     0.296 C 
HETATM   18  O   UNL     1       7.765  25.900  57.128  1.00  0.00    -0.259 OA
BRANCH  17  19
HETATM   19  O   UNL     1       7.899  28.089  57.771  1.00  0.00    -0.322 OA
HETATM   20  C   UNL     1       9.026  28.698  57.145  1.00  0.00     0.213 C 
ENDBRANCH  17  19
ENDBRANCH  10  17
ENDBRANCH   3   5
ENDBRANCH   1   3
BRANCH   1  21
HETATM   21  N   UNL     1       6.448  30.821  58.424  1.00  0.00    -0.273 N 
HETATM   22  H   UNL     1       7.073  31.192  57.710  1.00  0.00     0.189 HD
BRANCH  21  23
HETATM   23  N   UNL     1       6.789  31.199  59.733  1.00  0.00    -0.266 N 
HETATM   24  C   UNL     1       7.914  31.989  59.905  1.00  0.00     0.265 C 
HETATM   25  O   UNL     1       8.588  32.375  58.947  1.00  0.00    -0.269 OA
HETATM   26  H   UNL     1       6.289  30.740  60.488  1.00  0.00     0.190 HD
BRANCH  24  27
HETATM   27  C   UNL     1       8.277  32.299  61.372  1.00  0.00     0.218 C 
HETATM   28  C   UNL     1       9.651  31.751  61.751  1.00  0.00     0.050 C 
BRANCH  27  29
HETATM   29  O   UNL     1       7.294  31.648  62.190  1.00  0.00    -0.335 OA
BRANCH  29  30
HETATM   30  C   UNL     1       6.816  32.357  63.256  1.00  0.00     0.091 A 
HETATM   31  C   UNL     1       5.434  32.593  63.334  1.00  0.00     0.068 A 
HETATM   32 CL   UNL     1       4.344  31.912  62.180  1.00  0.00    -0.081 Cl
HETATM   33  C   UNL     1       4.906  33.382  64.357  1.00  0.00     0.046 A 
HETATM   34  C   UNL     1       5.763  33.948  65.296  1.00  0.00     0.012 A 
HETATM   35 BR   UNL     1       5.057  35.030  66.675  1.00  0.00    -0.051 Br
HETATM   36  C   UNL     1       7.140  33.739  65.217  1.00  0.00     0.022 A 
HETATM   37  C   UNL     1       7.669  32.951  64.190  1.00  0.00     0.040 A 
ENDBRANCH  29  30
ENDBRANCH  27  29
ENDBRANCH  24  27
ENDBRANCH  21  23
ENDBRANCH   1  21
TORSDOF 10
ENDMDL
MODEL 2
REMARK VINA RESULT:      -9.3      4.521     10.642
REMARK  10 active torsions:
REMARK  status: ('A' for Active; 'I' for Inactive)
REMARK    1  A    between atoms: C_4  and  N_5 
REMARK    2  A    between atoms: N_5  and  C_6 
REMARK    3  A    between atoms: C_6  and  N_7 
REMARK    4  A    between atoms: N_7  and  N_8 
REMARK       I    between atoms: N_8  and  C_9 
REMARK    5  A    between atoms: C_9  and  C_10 
REMARK    6  A    between atoms: C_10  and  O_11 
REMARK    7  A    between atoms: O_11  and  C_12 
REMARK    8  A    between atoms: C_23  and  C_24 
REMARK    9  A    between atoms: C_24  and  O_25 
REMARK   10  A    between atoms: C_28  and  C_29 
ROOT
HETATM    1  C   UNL     1       8.205  30.247  58.661  1.00  0.00     0.191 C 
HETATM    2  S   UNL     1       9.774  30.543  58.129  1.00  0.00    -0.039 SA
ENDROOT
BRANCH   1   3
HETATM    3  N   UNL     1       7.995  30.247  60.012  1.00  0.00    -0.325 N 
HETATM    4  H   UNL     1       7.821  29.312  60.367  1.00  0.00     0.169 HD
BRANCH   3   5
HETATM    5  C   UNL     1       7.504  31.264  60.807  1.00  0.00     0.094 C 
HETATM    6  S   UNL     1       8.501  31.504  62.167  1.00  0.00    -0.075 SA
HETATM    7  C   UNL     1       7.439  32.660  62.837  1.00  0.00    -0.007 C 
HETATM    8  C   UNL     1       7.723  33.212  64.198  1.00  0.00     0.057 C 
HETATM    9  C   UNL     1       6.408  32.961  61.962  1.00  0.00     0.006 C 
HETATM   10  C   UNL     1       6.486  32.198  60.726  1.00  0.00     0.085 C 
BRANCH   9  11
HETATM   11  C   UNL     1       5.372  33.930  62.315  1.00  0.00    -0.024 A 
HETATM   12  C   UNL     1       5.564  35.285  62.018  1.00  0.00     0.012 A 
HETATM   13  C   UNL     1       4.590  36.224  62.364  1.00  0.00     0.001 A 
HETATM   14  C   UNL     1       3.424  35.814  63.008  1.00  0.00     0.000 A 
HETATM   15  C   UNL     1       3.228  34.467  63.307  1.00  0.00     0.001 A 
HETATM   16  C   UNL     1       4.201  33.525  62.965  1.00  0.00     0.012 A 
ENDBRANCH   9  11
BRANCH  10  17
HETATM   17  C   UNL     1       5.655  32.438  59.549  1.00  0.00     0.296 C 
HETATM   18  O   UNL     1       6.072  32.950  58.519  1.00  0.00    -0.259 OA
BRANCH  17  19
HETATM   19  O   UNL     1       4.359  32.059  59.742  1.00  0.00    -0.322 OA
HETATM   20  C   UNL     1       3.820  31.235  58.710  1.00  0.00     0.213 C 
ENDBRANCH  17  19
ENDBRANCH  10  17
ENDBRANCH   3   5
ENDBRANCH   1   3
BRANCH   1  21
HETATM   21  N   UNL     1       7.189  29.864  57.833  1.00  0.00    -0.273 N 
HETATM   22  H   UNL     1       6.725  30.550  57.239  1.00  0.00     0.189 HD
BRANCH  21  23
HETATM   23  N   UNL     1       7.049  28.539  57.390  1.00  0.00    -0.266 N 
HETATM   24  C   UNL     1       6.372  28.322  56.201  1.00  0.00     0.265 C 
HETATM   25  O   UNL     1       5.923  29.255  55.532  1.00  0.00    -0.269 OA
HETATM   26  H   UNL     1       7.308  27.806  58.045  1.00  0.00     0.190 HD
BRANCH  24  27
HETATM   27  C   UNL     1       6.184  26.840  55.817  1.00  0.00     0.218 C 
HETATM   28  C   UNL     1       5.473  26.049  56.912  1.00  0.00     0.050 C 
BRANCH  27  29
HETATM   29  O   UNL     1       7.496  26.285  55.645  1.00  0.00    -0.335 OA
BRANCH  29  30
HETATM   30  C   UNL     1       7.568  25.042  55.080  1.00  0.00     0.091 A 
HETATM   31  C   UNL     1       8.265  24.037  55.768  1.00  0.00     0.068 A 
HETATM   32 CL   UNL     1       8.920  24.319  57.342  1.00  0.00    -0.081 Cl
HETATM   33  C   UNL     1       8.438  22.775  55.196  1.00  0.00     0.046 A 
HETATM   34  C   UNL     1       7.926  22.524  53.927  1.00  0.00     0.012 A 
HETATM   35 BR   UNL     1       8.170  20.824  53.139  1.00  0.00    -0.051 Br
HETATM   36  C   UNL     1       7.250  23.522  53.224  1.00  0.00     0.022 A 
HETATM   37  C   UNL     1       7.080  24.786  53.797  1.00  0.00     0.040 A 
ENDBRANCH  29  30
ENDBRANCH  27  29
ENDBRANCH  24  27
ENDBRANCH  21  23
ENDBRANCH   1  21
TORSDOF 10
ENDMDL
MODEL 3
REMARK VINA RESULT:      -9.3      2.154      3.113
REMARK  10 active torsions:
REMARK  status: ('A' for Active; 'I' for Inactive)
REMARK    1  A    between atoms: C_4  and  N_5 
REMARK    2  A    between atoms: N_5  and  C_6 
REMARK    3  A    between atoms: C_6  and  N_7 
REMARK    4  A    between atoms: N_7  and  N_8 
REMARK       I    between atoms: N_8  and  C_9 
REMARK    5  A    between atoms: C_9  and  C_10 
REMARK    6  A    between atoms: C_10  and  O_11 
REMARK    7  A    between atoms: O_11  and  C_12 
REMARK    8  A    between atoms: C_23  and  C_24 
REMARK    9  A    between atoms: C_24  and  O_25 
REMARK   10  A    between atoms: C_28  and  C_29 
ROOT
HETATM    1  C   UNL     1       7.319  29.251  56.804  1.00  0.00     0.191 C 
HETATM    2  S   UNL     1       8.905  29.606  56.369  1.00  0.00    -0.039 SA
ENDROOT
BRANCH   1   3
HETATM    3  N   UNL     1       6.692  28.253  56.110  1.00  0.00    -0.325 N 
HETATM    4  H   UNL     1       5.703  28.445  55.984  1.00  0.00     0.169 HD
BRANCH   3   5
HETATM    5  C   UNL     1       7.034  26.918  56.025  1.00  0.00     0.094 C 
HETATM    6  S   UNL     1       7.783  26.393  57.462  1.00  0.00    -0.075 SA
HETATM    7  C   UNL     1       8.119  24.850  56.814  1.00  0.00    -0.007 C 
HETATM    8  C   UNL     1       8.929  23.881  57.615  1.00  0.00     0.057 C 
HETATM    9  C   UNL     1       7.540  24.694  55.565  1.00  0.00     0.006 C 
HETATM   10  C   UNL     1       6.827  25.885  55.128  1.00  0.00     0.085 C 
BRANCH   9  11
HETATM   11  C   UNL     1       7.688  23.450  54.811  1.00  0.00    -0.024 A 
HETATM   12  C   UNL     1       7.462  22.224  55.451  1.00  0.00     0.012 A 
HETATM   13  C   UNL     1       7.616  21.028  54.747  1.00  0.00     0.001 A 
HETATM   14  C   UNL     1       7.996  21.051  53.406  1.00  0.00     0.000 A 
HETATM   15  C   UNL     1       8.223  22.269  52.766  1.00  0.00     0.001 A 
HETATM   16  C   UNL     1       8.073  23.467  53.466  1.00  0.00     0.012 A 
ENDBRANCH   9  11
BRANCH  10  17
HETATM   17  C   UNL     1       5.965  25.951  53.952  1.00  0.00     0.296 C 
HETATM   18  O   UNL     1       5.031  25.186  53.752  1.00  0.00    -0.259 OA
BRANCH  17  19
HETATM   19  O   UNL     1       6.341  26.936  53.086  1.00  0.00    -0.322 OA
HETATM   20  C   UNL     1       5.289  27.442  52.267  1.00  0.00     0.213 C 
ENDBRANCH  17  19
ENDBRANCH  10  17
ENDBRANCH   3   5
ENDBRANCH   1   3
BRANCH   1  21
HETATM   21  N   UNL     1       6.596  29.998  57.688  1.00  0.00    -0.273 N 
HETATM   22  H   UNL     1       5.579  29.925  57.710  1.00  0.00     0.189 HD
BRANCH  21  23
HETATM   23  N   UNL     1       7.157  30.498  58.875  1.00  0.00    -0.266 N 
HETATM   24  C   UNL     1       6.958  31.837  59.171  1.00  0.00     0.265 C 
HETATM   25  O   UNL     1       6.290  32.570  58.438  1.00  0.00    -0.269 OA
HETATM   26  H   UNL     1       7.812  29.894  59.363  1.00  0.00     0.190 HD
BRANCH  24  27
HETATM   27  C   UNL     1       7.669  32.338  60.444  1.00  0.00     0.218 C 
HETATM   28  C   UNL     1       9.188  32.228  60.333  1.00  0.00     0.050 C 
BRANCH  27  29
HETATM   29  O   UNL     1       7.238  31.493  61.521  1.00  0.00    -0.335 OA
BRANCH  29  30
HETATM   30  C   UNL     1       6.870  32.117  62.681  1.00  0.00     0.091 A 
HETATM   31  C   UNL     1       5.513  32.422  62.873  1.00  0.00     0.068 A 
HETATM   32 CL   UNL     1       4.315  31.923  61.732  1.00  0.00    -0.081 Cl
HETATM   33  C   UNL     1       5.098  33.131  64.000  1.00  0.00     0.046 A 
HETATM   34  C   UNL     1       6.045  33.551  64.930  1.00  0.00     0.012 A 
HETATM   35 BR   UNL     1       5.492  34.527  66.452  1.00  0.00    -0.051 Br
HETATM   36  C   UNL     1       7.398  33.273  64.741  1.00  0.00     0.022 A 
HETATM   37  C   UNL     1       7.814  32.565  63.609  1.00  0.00     0.040 A 
ENDBRANCH  29  30
ENDBRANCH  27  29
ENDBRANCH  24  27
ENDBRANCH  21  23
ENDBRANCH   1  21
TORSDOF 10
ENDMDL
MODEL 4
REMARK VINA RESULT:      -9.2      1.648      2.187
REMARK  10 active torsions:
REMARK  status: ('A' for Active; 'I' for Inactive)
REMARK    1  A    between atoms: C_4  and  N_5 
REMARK    2  A    between atoms: N_5  and  C_6 
REMARK    3  A    between atoms: C_6  and  N_7 
REMARK    4  A    between atoms: N_7  and  N_8 
REMARK       I    between atoms: N_8  and  C_9 
REMARK    5  A    between atoms: C_9  and  C_10 
REMARK    6  A    between atoms: C_10  and  O_11 
REMARK    7  A    between atoms: O_11  and  C_12 
REMARK    8  A    between atoms: C_23  and  C_24 
REMARK    9  A    between atoms: C_24  and  O_25 
REMARK   10  A    between atoms: C_28  and  C_29 
ROOT
HETATM    1  C   UNL     1       6.380  30.813  57.172  1.00  0.00     0.191 C 
HETATM    2  S   UNL     1       5.178  31.874  57.682  1.00  0.00    -0.039 SA
ENDROOT
BRANCH   1   3
HETATM    3  N   UNL     1       6.116  30.062  56.060  1.00  0.00    -0.325 N 
HETATM    4  H   UNL     1       5.490  30.542  55.420  1.00  0.00     0.169 HD
BRANCH   3   5
HETATM    5  C   UNL     1       6.131  28.688  55.926  1.00  0.00     0.094 C 
HETATM    6  S   UNL     1       4.972  27.967  56.945  1.00  0.00    -0.075 SA
HETATM    7  C   UNL     1       5.483  26.390  56.539  1.00  0.00    -0.007 C 
HETATM    8  C   UNL     1       4.879  25.220  57.249  1.00  0.00     0.057 C 
HETATM    9  C   UNL     1       6.432  26.414  55.530  1.00  0.00     0.006 C 
HETATM   10  C   UNL     1       6.760  27.767  55.106  1.00  0.00     0.085 C 
BRANCH   9  11
HETATM   11  C   UNL     1       7.019  25.180  55.012  1.00  0.00    -0.024 A 
HETATM   12  C   UNL     1       8.061  24.562  55.716  1.00  0.00     0.012 A 
HETATM   13  C   UNL     1       8.642  23.391  55.223  1.00  0.00     0.001 A 
HETATM   14  C   UNL     1       8.185  22.835  54.029  1.00  0.00     0.000 A 
HETATM   15  C   UNL     1       7.150  23.447  53.324  1.00  0.00     0.001 A 
HETATM   16  C   UNL     1       6.568  24.619  53.812  1.00  0.00     0.012 A 
ENDBRANCH   9  11
BRANCH  10  17
HETATM   17  C   UNL     1       7.577  28.096  53.941  1.00  0.00     0.296 C 
HETATM   18  O   UNL     1       8.691  28.597  54.015  1.00  0.00    -0.259 OA
BRANCH  17  19
HETATM   19  O   UNL     1       6.943  27.816  52.766  1.00  0.00    -0.322 OA
HETATM   20  C   UNL     1       5.759  28.575  52.532  1.00  0.00     0.213 C 
ENDBRANCH  17  19
ENDBRANCH  10  17
ENDBRANCH   3   5
ENDBRANCH   1   3
BRANCH   1  21
HETATM   21  N   UNL     1       7.513  30.559  57.888  1.00  0.00    -0.273 N 
HETATM   22  H   UNL     1       8.428  30.625  57.442  1.00  0.00     0.189 HD
BRANCH  21  23
HETATM   23  N   UNL     1       7.553  30.675  59.287  1.00  0.00    -0.266 N 
HETATM   24  C   UNL     1       8.409  31.617  59.835  1.00  0.00     0.265 C 
HETATM   25  O   UNL     1       9.102  32.352  59.127  1.00  0.00    -0.269 OA
HETATM   26  H   UNL     1       7.075  29.955  59.821  1.00  0.00     0.190 HD
BRANCH  24  27
HETATM   27  C   UNL     1       8.463  31.634  61.376  1.00  0.00     0.218 C 
HETATM   28  C   UNL     1       9.320  30.500  61.933  1.00  0.00     0.050 C 
BRANCH  27  29
HETATM   29  O   UNL     1       7.118  31.448  61.841  1.00  0.00    -0.335 OA
BRANCH  29  30
HETATM   30  C   UNL     1       6.750  32.150  62.955  1.00  0.00     0.091 A 
HETATM   31  C   UNL     1       5.389  32.430  63.147  1.00  0.00     0.068 A 
HETATM   32 CL   UNL     1       4.187  31.809  62.072  1.00  0.00    -0.081 Cl
HETATM   33  C   UNL     1       4.971  33.214  64.224  1.00  0.00     0.046 A 
HETATM   34  C   UNL     1       5.920  33.732  65.101  1.00  0.00     0.012 A 
HETATM   35 BR   UNL     1       5.364  34.808  66.552  1.00  0.00    -0.051 Br
HETATM   36  C   UNL     1       7.278  33.478  64.908  1.00  0.00     0.022 A 
HETATM   37  C   UNL     1       7.695  32.696  63.827  1.00  0.00     0.040 A 
ENDBRANCH  29  30
ENDBRANCH  27  29
ENDBRANCH  24  27
ENDBRANCH  21  23
ENDBRANCH   1  21
TORSDOF 10
ENDMDL
MODEL 5
REMARK VINA RESULT:      -9.2      4.334     10.043
REMARK  10 active torsions:
REMARK  status: ('A' for Active; 'I' for Inactive)
REMARK    1  A    between atoms: C_4  and  N_5 
REMARK    2  A    between atoms: N_5  and  C_6 
REMARK    3  A    between atoms: C_6  and  N_7 
REMARK    4  A    between atoms: N_7  and  N_8 
REMARK       I    between atoms: N_8  and  C_9 
REMARK    5  A    between atoms: C_9  and  C_10 
REMARK    6  A    between atoms: C_10  and  O_11 
REMARK    7  A    between atoms: O_11  and  C_12 
REMARK    8  A    between atoms: C_23  and  C_24 
REMARK    9  A    between atoms: C_24  and  O_25 
REMARK   10  A    between atoms: C_28  and  C_29 
ROOT
HETATM    1  C   UNL     1       5.105  31.027  56.032  1.00  0.00     0.191 C 
HETATM    2  S   UNL     1       3.605  30.779  55.310  1.00  0.00    -0.039 SA
ENDROOT
BRANCH   1   3
HETATM    3  N   UNL     1       5.252  32.158  56.787  1.00  0.00    -0.325 N 
HETATM    4  H   UNL     1       5.762  32.881  56.288  1.00  0.00     0.169 HD
BRANCH   3   5
HETATM    5  C   UNL     1       5.285  32.276  58.162  1.00  0.00     0.094 C 
HETATM    6  S   UNL     1       3.712  32.453  58.792  1.00  0.00    -0.075 SA
HETATM    7  C   UNL     1       4.291  32.701  60.378  1.00  0.00    -0.007 C 
HETATM    8  C   UNL     1       3.324  33.052  61.464  1.00  0.00     0.057 C 
HETATM    9  C   UNL     1       5.662  32.509  60.447  1.00  0.00     0.006 C 
HETATM   10  C   UNL     1       6.244  32.178  59.155  1.00  0.00     0.085 C 
BRANCH   9  11
HETATM   11  C   UNL     1       6.386  32.665  61.707  1.00  0.00    -0.024 A 
HETATM   12  C   UNL     1       6.312  33.879  62.401  1.00  0.00     0.012 A 
HETATM   13  C   UNL     1       7.012  34.047  63.597  1.00  0.00     0.001 A 
HETATM   14  C   UNL     1       7.787  33.005  64.104  1.00  0.00     0.000 A 
HETATM   15  C   UNL     1       7.865  31.795  63.416  1.00  0.00     0.001 A 
HETATM   16  C   UNL     1       7.169  31.624  62.218  1.00  0.00     0.012 A 
ENDBRANCH   9  11
BRANCH  10  17
HETATM   17  C   UNL     1       7.621  31.738  58.954  1.00  0.00     0.296 C 
HETATM   18  O   UNL     1       8.597  32.445  59.166  1.00  0.00    -0.259 OA
BRANCH  17  19
HETATM   19  O   UNL     1       7.695  30.464  58.471  1.00  0.00    -0.322 OA
HETATM   20  C   UNL     1       9.010  30.035  58.123  1.00  0.00     0.213 C 
ENDBRANCH  17  19
ENDBRANCH  10  17
ENDBRANCH   3   5
ENDBRANCH   1   3
BRANCH   1  21
HETATM   21  N   UNL     1       6.199  30.252  55.779  1.00  0.00    -0.273 N 
HETATM   22  H   UNL     1       7.124  30.676  55.717  1.00  0.00     0.189 HD
BRANCH  21  23
HETATM   23  N   UNL     1       6.220  28.877  56.062  1.00  0.00    -0.266 N 
HETATM   24  C   UNL     1       6.307  27.998  54.995  1.00  0.00     0.265 C 
HETATM   25  O   UNL     1       6.388  28.397  53.831  1.00  0.00    -0.269 OA
HETATM   26  H   UNL     1       6.007  28.601  57.016  1.00  0.00     0.190 HD
BRANCH  24  27
HETATM   27  C   UNL     1       6.242  26.504  55.372  1.00  0.00     0.218 C 
HETATM   28  C   UNL     1       5.784  26.295  56.813  1.00  0.00     0.050 C 
BRANCH  27  29
HETATM   29  O   UNL     1       7.575  25.985  55.247  1.00  0.00    -0.335 OA
BRANCH  29  30
HETATM   30  C   UNL     1       7.697  24.724  54.734  1.00  0.00     0.091 A 
HETATM   31  C   UNL     1       8.368  23.756  55.497  1.00  0.00     0.068 A 
HETATM   32 CL   UNL     1       8.928  24.106  57.094  1.00  0.00    -0.081 Cl
HETATM   33  C   UNL     1       8.593  22.478  54.984  1.00  0.00     0.046 A 
HETATM   34  C   UNL     1       8.158  22.172  53.697  1.00  0.00     0.012 A 
HETATM   35 BR   UNL     1       8.472  20.449  52.988  1.00  0.00    -0.051 Br
HETATM   36  C   UNL     1       7.509  23.132  52.920  1.00  0.00     0.022 A 
HETATM   37  C   UNL     1       7.288  24.413  53.435  1.00  0.00     0.040 A 
ENDBRANCH  29  30
ENDBRANCH  27  29
ENDBRANCH  24  27
ENDBRANCH  21  23
ENDBRANCH   1  21
TORSDOF 10
ENDMDL
MODEL 6
REMARK VINA RESULT:      -9.1      4.476     10.459
REMARK  10 active torsions:
REMARK  status: ('A' for Active; 'I' for Inactive)
REMARK    1  A    between atoms: C_4  and  N_5 
REMARK    2  A    between atoms: N_5  and  C_6 
REMARK    3  A    between atoms: C_6  and  N_7 
REMARK    4  A    between atoms: N_7  and  N_8 
REMARK       I    between atoms: N_8  and  C_9 
REMARK    5  A    between atoms: C_9  and  C_10 
REMARK    6  A    between atoms: C_10  and  O_11 
REMARK    7  A    between atoms: O_11  and  C_12 
REMARK    8  A    between atoms: C_23  and  C_24 
REMARK    9  A    between atoms: C_24  and  O_25 
REMARK   10  A    between atoms: C_28  and  C_29 
ROOT
HETATM    1  C   UNL     1       4.832  30.187  57.613  1.00  0.00     0.191 C 
HETATM    2  S   UNL     1       3.327  30.749  57.111  1.00  0.00    -0.039 SA
ENDROOT
BRANCH   1   3
HETATM    3  N   UNL     1       5.837  31.108  57.717  1.00  0.00    -0.325 N 
HETATM    4  H   UNL     1       6.450  31.091  56.907  1.00  0.00     0.169 HD
BRANCH   3   5
HETATM    5  C   UNL     1       6.409  31.632  58.859  1.00  0.00     0.094 C 
HETATM    6  S   UNL     1       8.097  31.404  58.851  1.00  0.00    -0.075 SA
HETATM    7  C   UNL     1       8.268  32.037  60.427  1.00  0.00    -0.007 C 
HETATM    8  C   UNL     1       9.610  32.001  61.088  1.00  0.00     0.057 C 
HETATM    9  C   UNL     1       7.068  32.546  60.896  1.00  0.00     0.006 C 
HETATM   10  C   UNL     1       5.983  32.384  59.941  1.00  0.00     0.085 C 
BRANCH   9  11
HETATM   11  C   UNL     1       6.967  33.145  62.225  1.00  0.00    -0.024 A 
HETATM   12  C   UNL     1       7.506  32.471  63.329  1.00  0.00     0.012 A 
HETATM   13  C   UNL     1       7.402  33.024  64.607  1.00  0.00     0.001 A 
HETATM   14  C   UNL     1       6.762  34.249  64.788  1.00  0.00     0.000 A 
HETATM   15  C   UNL     1       6.223  34.923  63.693  1.00  0.00     0.001 A 
HETATM   16  C   UNL     1       6.322  34.372  62.413  1.00  0.00     0.012 A 
ENDBRANCH   9  11
BRANCH  10  17
HETATM   17  C   UNL     1       4.661  32.989  60.077  1.00  0.00     0.296 C 
HETATM   18  O   UNL     1       3.753  32.493  60.731  1.00  0.00    -0.259 OA
BRANCH  17  19
HETATM   19  O   UNL     1       4.542  34.146  59.365  1.00  0.00    -0.322 OA
HETATM   20  C   UNL     1       3.357  34.242  58.578  1.00  0.00     0.213 C 
ENDBRANCH  17  19
ENDBRANCH  10  17
ENDBRANCH   3   5
ENDBRANCH   1   3
BRANCH   1  21
HETATM   21  N   UNL     1       5.127  28.863  57.767  1.00  0.00    -0.273 N 
HETATM   22  H   UNL     1       4.657  28.313  58.485  1.00  0.00     0.189 HD
BRANCH  21  23
HETATM   23  N   UNL     1       5.672  28.096  56.725  1.00  0.00    -0.266 N 
HETATM   24  C   UNL     1       6.910  27.509  56.933  1.00  0.00     0.265 C 
HETATM   25  O   UNL     1       7.514  27.630  58.001  1.00  0.00    -0.269 OA
HETATM   26  H   UNL     1       5.206  28.148  55.825  1.00  0.00     0.190 HD
BRANCH  24  27
HETATM   27  C   UNL     1       7.485  26.750  55.720  1.00  0.00     0.218 C 
HETATM   28  C   UNL     1       7.570  27.633  54.477  1.00  0.00     0.050 C 
BRANCH  27  29
HETATM   29  O   UNL     1       6.583  25.670  55.440  1.00  0.00    -0.335 OA
BRANCH  29  30
HETATM   30  C   UNL     1       7.133  24.528  54.927  1.00  0.00     0.091 A 
HETATM   31  C   UNL     1       6.726  24.105  53.652  1.00  0.00     0.068 A 
HETATM   32 CL   UNL     1       5.645  25.057  52.698  1.00  0.00    -0.081 Cl
HETATM   33  C   UNL     1       7.194  22.903  53.120  1.00  0.00     0.046 A 
HETATM   34  C   UNL     1       8.060  22.114  53.872  1.00  0.00     0.012 A 
HETATM   35 BR   UNL     1       8.687  20.478  53.164  1.00  0.00    -0.051 Br
HETATM   36  C   UNL     1       8.456  22.513  55.148  1.00  0.00     0.022 A 
HETATM   37  C   UNL     1       7.984  23.716  55.682  1.00  0.00     0.040 A 
ENDBRANCH  29  30
ENDBRANCH  27  29
ENDBRANCH  24  27
ENDBRANCH  21  23
ENDBRANCH   1  21
TORSDOF 10
ENDMDL
MODEL 7
REMARK VINA RESULT:      -8.8      7.243      9.817
REMARK  10 active torsions:
REMARK  status: ('A' for Active; 'I' for Inactive)
REMARK    1  A    between atoms: C_4  and  N_5 
REMARK    2  A    between atoms: N_5  and  C_6 
REMARK    3  A    between atoms: C_6  and  N_7 
REMARK    4  A    between atoms: N_7  and  N_8 
REMARK       I    between atoms: N_8  and  C_9 
REMARK    5  A    between atoms: C_9  and  C_10 
REMARK    6  A    between atoms: C_10  and  O_11 
REMARK    7  A    between atoms: O_11  and  C_12 
REMARK    8  A    between atoms: C_23  and  C_24 
REMARK    9  A    between atoms: C_24  and  O_25 
REMARK   10  A    between atoms: C_28  and  C_29 
ROOT
HETATM    1  C   UNL     1       5.094  28.876  55.141  1.00  0.00     0.191 C 
HETATM    2  S   UNL     1       4.515  29.521  56.584  1.00  0.00    -0.039 SA
ENDROOT
BRANCH   1   3
HETATM    3  N   UNL     1       6.379  28.410  55.140  1.00  0.00    -0.325 N 
HETATM    4  H   UNL     1       6.996  29.005  54.595  1.00  0.00     0.169 HD
BRANCH   3   5
HETATM    5  C   UNL     1       6.823  27.112  55.297  1.00  0.00     0.094 C 
HETATM    6  S   UNL     1       7.749  26.956  56.719  1.00  0.00    -0.075 SA
HETATM    7  C   UNL     1       8.150  25.334  56.372  1.00  0.00    -0.007 C 
HETATM    8  C   UNL     1       9.113  24.613  57.261  1.00  0.00     0.057 C 
HETATM    9  C   UNL     1       7.469  24.876  55.256  1.00  0.00     0.006 C 
HETATM   10  C   UNL     1       6.620  25.898  54.663  1.00  0.00     0.085 C 
BRANCH   9  11
HETATM   11  C   UNL     1       7.649  23.511  54.766  1.00  0.00    -0.024 A 
HETATM   12  C   UNL     1       8.011  23.300  53.429  1.00  0.00     0.012 A 
HETATM   13  C   UNL     1       8.170  22.000  52.943  1.00  0.00     0.001 A 
HETATM   14  C   UNL     1       7.969  20.910  53.787  1.00  0.00     0.000 A 
HETATM   15  C   UNL     1       7.608  21.115  55.118  1.00  0.00     0.001 A 
HETATM   16  C   UNL     1       7.445  22.412  55.608  1.00  0.00     0.012 A 
ENDBRANCH   9  11
BRANCH  10  17
HETATM   17  C   UNL     1       5.646  25.655  53.603  1.00  0.00     0.296 C 
HETATM   18  O   UNL     1       4.794  24.778  53.653  1.00  0.00    -0.259 OA
BRANCH  17  19
HETATM   19  O   UNL     1       5.817  26.491  52.539  1.00  0.00    -0.322 OA
HETATM   20  C   UNL     1       6.156  25.838  51.317  1.00  0.00     0.213 C 
ENDBRANCH  17  19
ENDBRANCH  10  17
ENDBRANCH   3   5
ENDBRANCH   1   3
BRANCH   1  21
HETATM   21  N   UNL     1       4.410  28.939  53.962  1.00  0.00    -0.273 N 
HETATM   22  H   UNL     1       3.392  28.994  53.961  1.00  0.00     0.189 HD
BRANCH  21  23
HETATM   23  N   UNL     1       5.007  29.404  52.779  1.00  0.00    -0.266 N 
HETATM   24  C   UNL     1       4.378  30.434  52.098  1.00  0.00     0.265 C 
HETATM   25  O   UNL     1       3.341  30.951  52.520  1.00  0.00    -0.269 OA
HETATM   26  H   UNL     1       5.773  28.852  52.404  1.00  0.00     0.190 HD
BRANCH  24  27
HETATM   27  C   UNL     1       5.042  30.839  50.767  1.00  0.00     0.218 C 
HETATM   28  C   UNL     1       5.556  32.277  50.796  1.00  0.00     0.050 C 
BRANCH  27  29
HETATM   29  O   UNL     1       4.031  30.746  49.753  1.00  0.00    -0.335 OA
BRANCH  29  30
HETATM   30  C   UNL     1       3.823  29.511  49.204  1.00  0.00     0.091 A 
HETATM   31  C   UNL     1       2.521  28.989  49.212  1.00  0.00     0.068 A 
HETATM   32 CL   UNL     1       1.186  29.921  49.791  1.00  0.00    -0.081 Cl
HETATM   33  C   UNL     1       2.271  27.699  48.740  1.00  0.00     0.046 A 
HETATM   34  C   UNL     1       3.329  26.925  48.274  1.00  0.00     0.012 A 
HETATM   35 BR   UNL     1       3.001  25.172  47.648  1.00  0.00    -0.051 Br
HETATM   36  C   UNL     1       4.632  27.425  48.281  1.00  0.00     0.022 A 
HETATM   37  C   UNL     1       4.881  28.715  48.757  1.00  0.00     0.040 A 
ENDBRANCH  29  30
ENDBRANCH  27  29
ENDBRANCH  24  27
ENDBRANCH  21  23
ENDBRANCH   1  21
TORSDOF 10
ENDMDL
MODEL 8
REMARK VINA RESULT:      -8.7      2.605      3.940
REMARK  10 active torsions:
REMARK  status: ('A' for Active; 'I' for Inactive)
REMARK    1  A    between atoms: C_4  and  N_5 
REMARK    2  A    between atoms: N_5  and  C_6 
REMARK    3  A    between atoms: C_6  and  N_7 
REMARK    4  A    between atoms: N_7  and  N_8 
REMARK       I    between atoms: N_8  and  C_9 
REMARK    5  A    between atoms: C_9  and  C_10 
REMARK    6  A    between atoms: C_10  and  O_11 
REMARK    7  A    between atoms: O_11  and  C_12 
REMARK    8  A    between atoms: C_23  and  C_24 
REMARK    9  A    between atoms: C_24  and  O_25 
REMARK   10  A    between atoms: C_28  and  C_29 
ROOT
HETATM    1  C   UNL     1       6.004  28.972  55.355  1.00  0.00     0.191 C 
HETATM    2  S   UNL     1       4.377  28.538  55.360  1.00  0.00    -0.039 SA
ENDROOT
BRANCH   1   3
HETATM    3  N   UNL     1       6.868  28.135  54.705  1.00  0.00    -0.325 N 
HETATM    4  H   UNL     1       6.959  28.374  53.722  1.00  0.00     0.169 HD
BRANCH   3   5
HETATM    5  C   UNL     1       7.194  26.828  55.010  1.00  0.00     0.094 C 
HETATM    6  S   UNL     1       7.878  26.723  56.567  1.00  0.00    -0.075 SA
HETATM    7  C   UNL     1       8.217  25.060  56.390  1.00  0.00    -0.007 C 
HETATM    8  C   UNL     1       8.980  24.351  57.463  1.00  0.00     0.057 C 
HETATM    9  C   UNL     1       7.685  24.562  55.212  1.00  0.00     0.006 C 
HETATM   10  C   UNL     1       7.008  25.585  54.430  1.00  0.00     0.085 C 
BRANCH   9  11
HETATM   11  C   UNL     1       7.845  23.157  54.842  1.00  0.00    -0.024 A 
HETATM   12  C   UNL     1       7.423  22.158  55.728  1.00  0.00     0.012 A 
HETATM   13  C   UNL     1       7.584  20.811  55.395  1.00  0.00     0.001 A 
HETATM   14  C   UNL     1       8.166  20.458  54.178  1.00  0.00     0.000 A 
HETATM   15  C   UNL     1       8.589  21.450  53.293  1.00  0.00     0.001 A 
HETATM   16  C   UNL     1       8.432  22.797  53.624  1.00  0.00     0.012 A 
ENDBRANCH   9  11
BRANCH  10  17
HETATM   17  C   UNL     1       6.194  25.323  53.247  1.00  0.00     0.296 C 
HETATM   18  O   UNL     1       5.398  24.397  53.163  1.00  0.00    -0.259 OA
BRANCH  17  19
HETATM   19  O   UNL     1       6.447  26.203  52.235  1.00  0.00    -0.322 OA
HETATM   20  C   UNL     1       5.635  26.027  51.076  1.00  0.00     0.213 C 
ENDBRANCH  17  19
ENDBRANCH  10  17
ENDBRANCH   3   5
ENDBRANCH   1   3
BRANCH   1  21
HETATM   21  N   UNL     1       6.508  30.010  56.083  1.00  0.00    -0.273 N 
HETATM   22  H   UNL     1       6.917  30.816  55.612  1.00  0.00     0.189 HD
BRANCH  21  23
HETATM   23  N   UNL     1       6.090  30.270  57.398  1.00  0.00    -0.266 N 
HETATM   24  C   UNL     1       5.431  31.463  57.644  1.00  0.00     0.265 C 
HETATM   25  O   UNL     1       5.190  32.268  56.742  1.00  0.00    -0.269 OA
HETATM   26  H   UNL     1       6.437  29.646  58.121  1.00  0.00     0.190 HD
BRANCH  24  27
HETATM   27  C   UNL     1       5.073  31.720  59.122  1.00  0.00     0.218 C 
HETATM   28  C   UNL     1       3.587  32.016  59.309  1.00  0.00     0.050 C 
BRANCH  27  29
HETATM   29  O   UNL     1       5.815  32.878  59.533  1.00  0.00    -0.335 OA
BRANCH  29  30
HETATM   30  C   UNL     1       6.058  33.008  60.872  1.00  0.00     0.091 A 
HETATM   31  C   UNL     1       5.480  34.090  61.553  1.00  0.00     0.068 A 
HETATM   32 CL   UNL     1       4.394  35.172  60.755  1.00  0.00    -0.081 Cl
HETATM   33  C   UNL     1       5.764  34.314  62.901  1.00  0.00     0.046 A 
HETATM   34  C   UNL     1       6.641  33.461  63.565  1.00  0.00     0.012 A 
HETATM   35 BR   UNL     1       7.043  33.767  65.387  1.00  0.00    -0.051 Br
HETATM   36  C   UNL     1       7.238  32.394  62.895  1.00  0.00     0.022 A 
HETATM   37  C   UNL     1       6.955  32.173  61.543  1.00  0.00     0.040 A 
ENDBRANCH  29  30
ENDBRANCH  27  29
ENDBRANCH  24  27
ENDBRANCH  21  23
ENDBRANCH   1  21
TORSDOF 10
ENDMDL
MODEL 9
REMARK VINA RESULT:      -8.7      2.848      4.339
REMARK  10 active torsions:
REMARK  status: ('A' for Active; 'I' for Inactive)
REMARK    1  A    between atoms: C_4  and  N_5 
REMARK    2  A    between atoms: N_5  and  C_6 
REMARK    3  A    between atoms: C_6  and  N_7 
REMARK    4  A    between atoms: N_7  and  N_8 
REMARK       I    between atoms: N_8  and  C_9 
REMARK    5  A    between atoms: C_9  and  C_10 
REMARK    6  A    between atoms: C_10  and  O_11 
REMARK    7  A    between atoms: O_11  and  C_12 
REMARK    8  A    between atoms: C_23  and  C_24 
REMARK    9  A    between atoms: C_24  and  O_25 
REMARK   10  A    between atoms: C_28  and  C_29 
ROOT
HETATM    1  C   UNL     1       5.554  28.897  55.335  1.00  0.00     0.191 C 
HETATM    2  S   UNL     1       4.354  27.961  56.053  1.00  0.00    -0.039 SA
ENDROOT
BRANCH   1   3
HETATM    3  N   UNL     1       6.728  28.270  55.022  1.00  0.00    -0.325 N 
HETATM    4  H   UNL     1       7.205  28.725  54.249  1.00  0.00     0.169 HD
BRANCH   3   5
HETATM    5  C   UNL     1       7.074  26.947  55.211  1.00  0.00     0.094 C 
HETATM    6  S   UNL     1       7.877  26.738  56.699  1.00  0.00    -0.075 SA
HETATM    7  C   UNL     1       8.197  25.092  56.384  1.00  0.00    -0.007 C 
HETATM    8  C   UNL     1       9.040  24.313  57.343  1.00  0.00     0.057 C 
HETATM    9  C   UNL     1       7.573  24.674  55.219  1.00  0.00     0.006 C 
HETATM   10  C   UNL     1       6.840  25.746  54.564  1.00  0.00     0.085 C 
BRANCH   9  11
HETATM   11  C   UNL     1       7.700  23.298  54.744  1.00  0.00    -0.024 A 
HETATM   12  C   UNL     1       7.473  22.237  55.631  1.00  0.00     0.012 A 
HETATM   13  C   UNL     1       7.607  20.917  55.194  1.00  0.00     0.001 A 
HETATM   14  C   UNL     1       7.967  20.652  53.873  1.00  0.00     0.000 A 
HETATM   15  C   UNL     1       8.195  21.704  52.987  1.00  0.00     0.001 A 
HETATM   16  C   UNL     1       8.065  23.025  53.421  1.00  0.00     0.012 A 
ENDBRANCH   9  11
BRANCH  10  17
HETATM   17  C   UNL     1       5.935  25.562  53.433  1.00  0.00     0.296 C 
HETATM   18  O   UNL     1       4.985  24.790  53.444  1.00  0.00    -0.259 OA
BRANCH  17  19
HETATM   19  O   UNL     1       6.289  26.319  52.355  1.00  0.00    -0.322 OA
HETATM   20  C   UNL     1       5.653  25.948  51.134  1.00  0.00     0.213 C 
ENDBRANCH  17  19
ENDBRANCH  10  17
ENDBRANCH   3   5
ENDBRANCH   1   3
BRANCH   1  21
HETATM   21  N   UNL     1       5.469  30.252  55.196  1.00  0.00    -0.273 N 
HETATM   22  H   UNL     1       4.922  30.658  54.437  1.00  0.00     0.189 HD
BRANCH  21  23
HETATM   23  N   UNL     1       5.682  31.126  56.275  1.00  0.00    -0.266 N 
HETATM   24  C   UNL     1       4.572  31.712  56.861  1.00  0.00     0.265 C 
HETATM   25  O   UNL     1       3.428  31.464  56.474  1.00  0.00    -0.269 OA
HETATM   26  H   UNL     1       6.642  31.404  56.458  1.00  0.00     0.190 HD
BRANCH  24  27
HETATM   27  C   UNL     1       4.883  32.722  57.985  1.00  0.00     0.218 C 
HETATM   28  C   UNL     1       4.835  34.165  57.488  1.00  0.00     0.050 C 
BRANCH  27  29
HETATM   29  O   UNL     1       6.218  32.448  58.433  1.00  0.00    -0.335 OA
BRANCH  29  30
HETATM   30  C   UNL     1       6.480  32.673  59.756  1.00  0.00     0.091 A 
HETATM   31  C   UNL     1       7.768  32.390  60.238  1.00  0.00     0.068 A 
HETATM   32 CL   UNL     1       9.029  31.880  59.173  1.00  0.00    -0.081 Cl
HETATM   33  C   UNL     1       8.062  32.522  61.596  1.00  0.00     0.046 A 
HETATM   34  C   UNL     1       7.061  32.925  62.475  1.00  0.00     0.012 A 
HETATM   35 BR   UNL     1       7.447  33.092  64.318  1.00  0.00    -0.051 Br
HETATM   36  C   UNL     1       5.772  33.189  62.012  1.00  0.00     0.022 A 
HETATM   37  C   UNL     1       5.478  33.052  60.652  1.00  0.00     0.040 A 
ENDBRANCH  29  30
ENDBRANCH  27  29
ENDBRANCH  24  27
ENDBRANCH  21  23
ENDBRANCH   1  21
TORSDOF 10
ENDMDL
MODEL 10
REMARK VINA RESULT:      -8.7      4.275     10.669
REMARK  10 active torsions:
REMARK  status: ('A' for Active; 'I' for Inactive)
REMARK    1  A    between atoms: C_4  and  N_5 
REMARK    2  A    between atoms: N_5  and  C_6 
REMARK    3  A    between atoms: C_6  and  N_7 
REMARK    4  A    between atoms: N_7  and  N_8 
REMARK       I    between atoms: N_8  and  C_9 
REMARK    5  A    between atoms: C_9  and  C_10 
REMARK    6  A    between atoms: C_10  and  O_11 
REMARK    7  A    between atoms: O_11  and  C_12 
REMARK    8  A    between atoms: C_23  and  C_24 
REMARK    9  A    between atoms: C_24  and  O_25 
REMARK   10  A    between atoms: C_28  and  C_29 
ROOT
HETATM    1  C   UNL     1       5.276  30.271  57.574  1.00  0.00     0.191 C 
HETATM    2  S   UNL     1       3.707  30.663  57.106  1.00  0.00    -0.039 SA
ENDROOT
BRANCH   1   3
HETATM    3  N   UNL     1       6.101  31.307  57.913  1.00  0.00    -0.325 N 
HETATM    4  H   UNL     1       6.877  31.399  57.264  1.00  0.00     0.169 HD
BRANCH   3   5
HETATM    5  C   UNL     1       6.327  31.855  59.160  1.00  0.00     0.094 C 
HETATM    6  S   UNL     1       7.888  31.465  59.719  1.00  0.00    -0.075 SA
HETATM    7  C   UNL     1       7.609  32.190  61.238  1.00  0.00    -0.007 C 
HETATM    8  C   UNL     1       8.648  32.073  62.307  1.00  0.00     0.057 C 
HETATM    9  C   UNL     1       6.388  32.847  61.264  1.00  0.00     0.006 C 
HETATM   10  C   UNL     1       5.662  32.721  60.010  1.00  0.00     0.085 C 
BRANCH   9  11
HETATM   11  C   UNL     1       5.930  33.548  62.462  1.00  0.00    -0.024 A 
HETATM   12  C   UNL     1       6.085  34.937  62.550  1.00  0.00     0.012 A 
HETATM   13  C   UNL     1       5.667  35.618  63.696  1.00  0.00     0.001 A 
HETATM   14  C   UNL     1       5.094  34.915  64.755  1.00  0.00     0.000 A 
HETATM   15  C   UNL     1       4.939  33.532  64.672  1.00  0.00     0.001 A 
HETATM   16  C   UNL     1       5.358  32.847  63.530  1.00  0.00     0.012 A 
ENDBRANCH   9  11
BRANCH  10  17
HETATM   17  C   UNL     1       4.447  33.459  59.678  1.00  0.00     0.296 C 
HETATM   18  O   UNL     1       4.434  34.468  58.986  1.00  0.00    -0.259 OA
BRANCH  17  19
HETATM   19  O   UNL     1       3.335  32.918  60.255  1.00  0.00    -0.322 OA
HETATM   20  C   UNL     1       2.547  33.838  61.007  1.00  0.00     0.213 C 
ENDBRANCH  17  19
ENDBRANCH  10  17
ENDBRANCH   3   5
ENDBRANCH   1   3
BRANCH   1  21
HETATM   21  N   UNL     1       5.795  29.012  57.484  1.00  0.00    -0.273 N 
HETATM   22  H   UNL     1       5.845  28.417  58.311  1.00  0.00     0.189 HD
BRANCH  21  23
HETATM   23  N   UNL     1       5.832  28.306  56.271  1.00  0.00    -0.266 N 
HETATM   24  C   UNL     1       7.071  27.925  55.781  1.00  0.00     0.265 C 
HETATM   25  O   UNL     1       8.113  28.170  56.393  1.00  0.00    -0.269 OA
HETATM   26  H   UNL     1       4.966  28.257  55.742  1.00  0.00     0.190 HD
BRANCH  24  27
HETATM   27  C   UNL     1       7.044  27.226  54.406  1.00  0.00     0.218 C 
HETATM   28  C   UNL     1       6.587  28.167  53.294  1.00  0.00     0.050 C 
BRANCH  27  29
HETATM   29  O   UNL     1       6.094  26.155  54.503  1.00  0.00    -0.335 OA
BRANCH  29  30
HETATM   30  C   UNL     1       6.574  24.890  54.303  1.00  0.00     0.091 A 
HETATM   31  C   UNL     1       6.872  24.105  55.428  1.00  0.00     0.068 A 
HETATM   32 CL   UNL     1       6.539  24.668  57.027  1.00  0.00    -0.081 Cl
HETATM   33  C   UNL     1       7.442  22.840  55.278  1.00  0.00     0.046 A 
HETATM   34  C   UNL     1       7.727  22.365  54.001  1.00  0.00     0.012 A 
HETATM   35 BR   UNL     1       8.513  20.659  53.791  1.00  0.00    -0.051 Br
HETATM   36  C   UNL     1       7.454  23.144  52.877  1.00  0.00     0.022 A 
HETATM   37  C   UNL     1       6.887  24.413  53.028  1.00  0.00     0.040 A 
ENDBRANCH  29  30
ENDBRANCH  27  29
ENDBRANCH  24  27
ENDBRANCH  21  23
ENDBRANCH   1  21
TORSDOF 10
ENDMDL
