MODEL 1
REMARK VINA RESULT:      -9.8      0.000      0.000
REMARK  8 active torsions:
REMARK  status: ('A' for Active; 'I' for Inactive)
REMARK    1  A    between atoms: C_2  and  C_3 
REMARK    2  A    between atoms: C_3  and  N_4 
REMARK       I    between atoms: N_4  and  C_5 
REMARK    3  A    between atoms: C_5  and  C_6 
REMARK    4  A    between atoms: C_7  and  N_8 
REMARK    5  A    between atoms: N_11  and  C_12 
REMARK    6  A    between atoms: C_13  and  O_14 
REMARK    7  A    between atoms: C_24  and  N_25 
REMARK       I    between atoms: N_25  and  C_26 
REMARK       I    between atoms: C_26  and  N_27 
REMARK    8  A    between atoms: N_27  and  C_28 
ROOT
HETATM    1  C   UNL     1       5.794  30.653  57.273  1.00  0.00     0.060 A 
HETATM    2  C   UNL     1       6.741  29.618  57.118  1.00  0.00     0.046 A 
HETATM    3  C   UNL     1       7.778  29.583  58.062  1.00  0.00     0.032 A 
HETATM    4  C   UNL     1       7.884  30.530  59.090  1.00  0.00     0.032 A 
HETATM    5  C   UNL     1       6.951  31.557  59.216  1.00  0.00     0.037 A 
HETATM    6  C   UNL     1       5.901  31.614  58.300  1.00  0.00     0.049 A 
ENDROOT
BRANCH   2   7
HETATM    7  N   UNL     1       6.668  28.682  56.079  1.00  0.00    -0.377 N 
HETATM    8  C   UNL     1       5.911  27.445  56.399  1.00  0.00     0.143 C 
HETATM    9  C   UNL     1       5.557  26.687  55.098  1.00  0.00     0.143 C 
HETATM   10  N   UNL     1       6.751  26.413  54.274  1.00  0.00    -0.376 N 
HETATM   11  C   UNL     1       7.559  27.626  54.002  1.00  0.00     0.143 C 
HETATM   12  C   UNL     1       7.898  28.384  55.308  1.00  0.00     0.143 C 
BRANCH  10  13
HETATM   13  C   UNL     1       7.350  25.161  54.182  1.00  0.00     0.064 A 
HETATM   14  C   UNL     1       7.982  24.469  55.242  1.00  0.00     0.094 A 
HETATM   15  C   UNL     1       8.541  23.192  55.038  1.00  0.00     0.039 A 
HETATM   16  C   UNL     1       8.449  22.559  53.801  1.00  0.00     0.003 A 
HETATM   17  C   UNL     1       7.813  23.204  52.752  1.00  0.00     0.002 A 
HETATM   18  C   UNL     1       7.278  24.482  52.946  1.00  0.00     0.032 A 
BRANCH  14  19
HETATM   19  O   UNL     1       8.136  25.105  56.454  1.00  0.00    -0.354 OA
HETATM   20  C   UNL     1       8.973  24.419  57.382  1.00  0.00     0.210 C 
ENDBRANCH  14  19
ENDBRANCH  10  13
ENDBRANCH   2   7
BRANCH   1  21
HETATM   21  C   UNL     1       4.672  30.847  56.320  1.00  0.00     0.254 C 
HETATM   22  N   UNL     1       5.042  31.434  55.123  1.00  0.00    -0.353 N 
HETATM   23  H   UNL     1       5.964  31.847  55.062  1.00  0.00     0.163 HD
HETATM   24  O   UNL     1       3.538  30.465  56.578  1.00  0.00    -0.268 OA
BRANCH  22  25
HETATM   25  C   UNL     1       4.065  31.744  54.087  1.00  0.00     0.080 C 
HETATM   26  C   UNL     1       3.948  30.575  53.112  1.00  0.00     0.032 C 
BRANCH  25  27
HETATM   27  C   UNL     1       4.381  33.076  53.385  1.00  0.00     0.020 C 
HETATM   28  C   UNL     1       5.139  34.084  54.241  1.00  0.00     0.007 C 
ENDBRANCH  25  27
ENDBRANCH  22  25
ENDBRANCH   1  21
BRANCH   5  29
HETATM   29  N   UNL     1       7.047  32.579  60.183  1.00  0.00    -0.309 N 
HETATM   30  C   UNL     1       6.408  32.614  61.415  1.00  0.00     0.325 C 
HETATM   31  N   UNL     1       6.971  33.584  62.228  1.00  0.00    -0.307 N 
HETATM   32  O   UNL     1       5.487  31.874  61.738  1.00  0.00    -0.247 OA
HETATM   33  H   UNL     1       7.867  33.947  61.937  1.00  0.00     0.170 HD
HETATM   34  H   UNL     1       7.534  33.421  59.911  1.00  0.00     0.170 HD
BRANCH  31  35
HETATM   35  C   UNL     1       6.599  33.912  63.556  1.00  0.00     0.053 A 
HETATM   36  C   UNL     1       5.529  34.802  63.761  1.00  0.00     0.037 A 
HETATM   37 BR   UNL     1       4.570  35.552  62.297  1.00  0.00    -0.049 Br
HETATM   38  C   UNL     1       5.143  35.179  65.051  1.00  0.00     0.021 A 
HETATM   39  C   UNL     1       5.815  34.664  66.157  1.00  0.00     0.002 A 
HETATM   40  C   UNL     1       6.863  33.767  65.970  1.00  0.00     0.002 A 
HETATM   41  C   UNL     1       7.249  33.390  64.679  1.00  0.00     0.031 A 
ENDBRANCH  31  35
ENDBRANCH   5  29
TORSDOF 8
ENDMDL
MODEL 2
REMARK VINA RESULT:      -9.6      3.497     11.035
REMARK  8 active torsions:
REMARK  status: ('A' for Active; 'I' for Inactive)
REMARK    1  A    between atoms: C_2  and  C_3 
REMARK    2  A    between atoms: C_3  and  N_4 
REMARK       I    between atoms: N_4  and  C_5 
REMARK    3  A    between atoms: C_5  and  C_6 
REMARK    4  A    between atoms: C_7  and  N_8 
REMARK    5  A    between atoms: N_11  and  C_12 
REMARK    6  A    between atoms: C_13  and  O_14 
REMARK    7  A    between atoms: C_24  and  N_25 
REMARK       I    between atoms: N_25  and  C_26 
REMARK       I    between atoms: C_26  and  N_27 
REMARK    8  A    between atoms: N_27  and  C_28 
ROOT
HETATM    1  C   UNL     1       6.619  30.469  58.245  1.00  0.00     0.060 A 
HETATM    2  C   UNL     1       5.291  30.807  57.909  1.00  0.00     0.046 A 
HETATM    3  C   UNL     1       4.672  29.996  56.946  1.00  0.00     0.032 A 
HETATM    4  C   UNL     1       5.337  28.923  56.335  1.00  0.00     0.032 A 
HETATM    5  C   UNL     1       6.655  28.617  56.665  1.00  0.00     0.037 A 
HETATM    6  C   UNL     1       7.295  29.397  57.627  1.00  0.00     0.049 A 
ENDROOT
BRANCH   2   7
HETATM    7  N   UNL     1       4.623  31.893  58.487  1.00  0.00    -0.377 N 
HETATM    8  C   UNL     1       5.118  33.230  58.072  1.00  0.00     0.143 C 
HETATM    9  C   UNL     1       4.082  34.318  58.440  1.00  0.00     0.143 C 
HETATM   10  N   UNL     1       3.719  34.277  59.871  1.00  0.00    -0.376 N 
HETATM   11  C   UNL     1       3.289  32.932  60.322  1.00  0.00     0.143 C 
HETATM   12  C   UNL     1       4.326  31.849  59.939  1.00  0.00     0.143 C 
BRANCH  10  13
HETATM   13  C   UNL     1       4.187  35.192  60.808  1.00  0.00     0.064 A 
HETATM   14  C   UNL     1       3.646  36.478  61.047  1.00  0.00     0.094 A 
HETATM   15  C   UNL     1       4.191  37.316  62.040  1.00  0.00     0.039 A 
HETATM   16  C   UNL     1       5.246  36.887  62.840  1.00  0.00     0.003 A 
HETATM   17  C   UNL     1       5.779  35.623  62.644  1.00  0.00     0.002 A 
HETATM   18  C   UNL     1       5.255  34.797  61.644  1.00  0.00     0.032 A 
BRANCH  14  19
HETATM   19  O   UNL     1       2.643  36.941  60.226  1.00  0.00    -0.354 OA
HETATM   20  C   UNL     1       3.065  37.891  59.250  1.00  0.00     0.210 C 
ENDBRANCH  14  19
ENDBRANCH  10  13
ENDBRANCH   2   7
BRANCH   1  21
HETATM   21  C   UNL     1       7.418  31.268  59.209  1.00  0.00     0.254 C 
HETATM   22  N   UNL     1       7.556  30.678  60.454  1.00  0.00    -0.353 N 
HETATM   23  H   UNL     1       6.970  29.882  60.669  1.00  0.00     0.163 HD
HETATM   24  O   UNL     1       7.940  32.327  58.887  1.00  0.00    -0.268 OA
BRANCH  22  25
HETATM   25  C   UNL     1       8.268  31.339  61.540  1.00  0.00     0.080 C 
HETATM   26  C   UNL     1       9.386  30.437  62.058  1.00  0.00     0.032 C 
BRANCH  25  27
HETATM   27  C   UNL     1       7.310  31.801  62.652  1.00  0.00     0.020 C 
HETATM   28  C   UNL     1       7.932  32.736  63.682  1.00  0.00     0.007 C 
ENDBRANCH  25  27
ENDBRANCH  22  25
ENDBRANCH   1  21
BRANCH   5  29
HETATM   29  N   UNL     1       7.397  27.598  56.031  1.00  0.00    -0.309 N 
HETATM   30  C   UNL     1       7.146  26.233  56.093  1.00  0.00     0.325 C 
HETATM   31  N   UNL     1       7.858  25.564  55.111  1.00  0.00    -0.307 N 
HETATM   32  O   UNL     1       6.386  25.704  56.894  1.00  0.00    -0.247 OA
HETATM   33  H   UNL     1       8.247  26.134  54.373  1.00  0.00     0.170 HD
HETATM   34  H   UNL     1       8.260  27.872  55.584  1.00  0.00     0.170 HD
BRANCH  31  35
HETATM   35  C   UNL     1       7.857  24.171  54.849  1.00  0.00     0.053 A 
HETATM   36  C   UNL     1       7.761  23.731  53.516  1.00  0.00     0.037 A 
HETATM   37 BR   UNL     1       7.651  24.966  52.071  1.00  0.00    -0.049 Br
HETATM   38  C   UNL     1       7.727  22.368  53.208  1.00  0.00     0.021 A 
HETATM   39  C   UNL     1       7.798  21.422  54.228  1.00  0.00     0.002 A 
HETATM   40  C   UNL     1       7.914  21.842  55.550  1.00  0.00     0.002 A 
HETATM   41  C   UNL     1       7.947  23.206  55.858  1.00  0.00     0.031 A 
ENDBRANCH  31  35
ENDBRANCH   5  29
TORSDOF 8
ENDMDL
MODEL 3
REMARK VINA RESULT:      -9.5      2.563      3.446
REMARK  8 active torsions:
REMARK  status: ('A' for Active; 'I' for Inactive)
REMARK    1  A    between atoms: C_2  and  C_3 
REMARK    2  A    between atoms: C_3  and  N_4 
REMARK       I    between atoms: N_4  and  C_5 
REMARK    3  A    between atoms: C_5  and  C_6 
REMARK    4  A    between atoms: C_7  and  N_8 
REMARK    5  A    between atoms: N_11  and  C_12 
REMARK    6  A    between atoms: C_13  and  O_14 
REMARK    7  A    between atoms: C_24  and  N_25 
REMARK       I    between atoms: N_25  and  C_26 
REMARK       I    between atoms: C_26  and  N_27 
REMARK    8  A    between atoms: N_27  and  C_28 
ROOT
HETATM    1  C   UNL     1       5.043  29.093  54.878  1.00  0.00     0.060 A 
HETATM    2  C   UNL     1       5.862  28.051  55.362  1.00  0.00     0.046 A 
HETATM    3  C   UNL     1       6.355  28.209  56.667  1.00  0.00     0.032 A 
HETATM    4  C   UNL     1       6.070  29.342  57.440  1.00  0.00     0.032 A 
HETATM    5  C   UNL     1       5.276  30.370  56.938  1.00  0.00     0.037 A 
HETATM    6  C   UNL     1       4.761  30.240  55.649  1.00  0.00     0.049 A 
ENDROOT
BRANCH   2   7
HETATM    7  N   UNL     1       6.181  26.927  54.592  1.00  0.00    -0.377 N 
HETATM    8  C   UNL     1       5.273  25.765  54.769  1.00  0.00     0.143 C 
HETATM    9  C   UNL     1       5.468  24.757  53.611  1.00  0.00     0.143 C 
HETATM   10  N   UNL     1       6.878  24.346  53.465  1.00  0.00    -0.376 N 
HETATM   11  C   UNL     1       7.809  25.495  53.358  1.00  0.00     0.143 C 
HETATM   12  C   UNL     1       7.599  26.503  54.513  1.00  0.00     0.143 C 
BRANCH  10  13
HETATM   13  C   UNL     1       7.366  23.112  53.882  1.00  0.00     0.064 A 
HETATM   14  C   UNL     1       7.502  22.689  55.225  1.00  0.00     0.094 A 
HETATM   15  C   UNL     1       7.991  21.403  55.531  1.00  0.00     0.039 A 
HETATM   16  C   UNL     1       8.313  20.501  54.521  1.00  0.00     0.003 A 
HETATM   17  C   UNL     1       8.166  20.880  53.197  1.00  0.00     0.002 A 
HETATM   18  C   UNL     1       7.702  22.164  52.890  1.00  0.00     0.032 A 
BRANCH  14  19
HETATM   19  O   UNL     1       7.246  23.589  56.236  1.00  0.00    -0.354 OA
HETATM   20  C   UNL     1       8.373  23.904  57.049  1.00  0.00     0.210 C 
ENDBRANCH  14  19
ENDBRANCH  10  13
ENDBRANCH   2   7
BRANCH   1  21
HETATM   21  C   UNL     1       4.492  29.090  53.499  1.00  0.00     0.254 C 
HETATM   22  N   UNL     1       5.312  29.694  52.561  1.00  0.00    -0.353 N 
HETATM   23  H   UNL     1       6.094  30.240  52.897  1.00  0.00     0.163 HD
HETATM   24  O   UNL     1       3.427  28.547  53.235  1.00  0.00    -0.268 OA
BRANCH  22  25
HETATM   25  C   UNL     1       4.913  29.825  51.166  1.00  0.00     0.080 C 
HETATM   26  C   UNL     1       5.431  28.636  50.360  1.00  0.00     0.032 C 
BRANCH  25  27
HETATM   27  C   UNL     1       5.342  31.179  50.574  1.00  0.00     0.020 C 
HETATM   28  C   UNL     1       5.492  31.195  49.058  1.00  0.00     0.007 C 
ENDBRANCH  25  27
ENDBRANCH  22  25
ENDBRANCH   1  21
BRANCH   5  29
HETATM   29  N   UNL     1       5.017  31.565  57.641  1.00  0.00    -0.309 N 
HETATM   30  C   UNL     1       4.045  31.758  58.614  1.00  0.00     0.325 C 
HETATM   31  N   UNL     1       4.280  32.931  59.310  1.00  0.00    -0.307 N 
HETATM   32  O   UNL     1       3.122  30.984  58.833  1.00  0.00    -0.247 OA
HETATM   33  H   UNL     1       5.196  33.343  59.199  1.00  0.00     0.170 HD
HETATM   34  H   UNL     1       5.504  32.393  57.330  1.00  0.00     0.170 HD
BRANCH  31  35
HETATM   35  C   UNL     1       3.516  33.462  60.381  1.00  0.00     0.053 A 
HETATM   36  C   UNL     1       3.972  33.273  61.699  1.00  0.00     0.037 A 
HETATM   37 BR   UNL     1       5.591  32.340  62.063  1.00  0.00    -0.049 Br
HETATM   38  C   UNL     1       3.239  33.753  62.789  1.00  0.00     0.021 A 
HETATM   39  C   UNL     1       2.045  34.438  62.578  1.00  0.00     0.002 A 
HETATM   40  C   UNL     1       1.592  34.649  61.279  1.00  0.00     0.002 A 
HETATM   41  C   UNL     1       2.324  34.169  60.188  1.00  0.00     0.031 A 
ENDBRANCH  31  35
ENDBRANCH   5  29
TORSDOF 8
ENDMDL
MODEL 4
REMARK VINA RESULT:      -9.3      3.555      6.310
REMARK  8 active torsions:
REMARK  status: ('A' for Active; 'I' for Inactive)
REMARK    1  A    between atoms: C_2  and  C_3 
REMARK    2  A    between atoms: C_3  and  N_4 
REMARK       I    between atoms: N_4  and  C_5 
REMARK    3  A    between atoms: C_5  and  C_6 
REMARK    4  A    between atoms: C_7  and  N_8 
REMARK    5  A    between atoms: N_11  and  C_12 
REMARK    6  A    between atoms: C_13  and  O_14 
REMARK    7  A    between atoms: C_24  and  N_25 
REMARK       I    between atoms: N_25  and  C_26 
REMARK       I    between atoms: C_26  and  N_27 
REMARK    8  A    between atoms: N_27  and  C_28 
ROOT
HETATM    1  C   UNL     1       6.275  28.389  54.852  1.00  0.00     0.060 A 
HETATM    2  C   UNL     1       5.344  28.841  53.893  1.00  0.00     0.046 A 
HETATM    3  C   UNL     1       4.435  29.819  54.327  1.00  0.00     0.032 A 
HETATM    4  C   UNL     1       4.435  30.306  55.641  1.00  0.00     0.032 A 
HETATM    5  C   UNL     1       5.347  29.833  56.580  1.00  0.00     0.037 A 
HETATM    6  C   UNL     1       6.272  28.869  56.179  1.00  0.00     0.049 A 
ENDROOT
BRANCH   2   7
HETATM    7  N   UNL     1       5.312  28.343  52.585  1.00  0.00    -0.377 N 
HETATM    8  C   UNL     1       4.985  29.344  51.538  1.00  0.00     0.143 C 
HETATM    9  C   UNL     1       5.363  28.797  50.142  1.00  0.00     0.143 C 
HETATM   10  N   UNL     1       4.741  27.485  49.874  1.00  0.00    -0.376 N 
HETATM   11  C   UNL     1       4.997  26.492  50.943  1.00  0.00     0.143 C 
HETATM   12  C   UNL     1       4.627  27.052  52.337  1.00  0.00     0.143 C 
BRANCH  10  13
HETATM   13  C   UNL     1       3.647  27.312  49.031  1.00  0.00     0.064 A 
HETATM   14  C   UNL     1       2.391  27.949  49.169  1.00  0.00     0.094 A 
HETATM   15  C   UNL     1       1.357  27.712  48.242  1.00  0.00     0.039 A 
HETATM   16  C   UNL     1       1.556  26.880  47.143  1.00  0.00     0.003 A 
HETATM   17  C   UNL     1       2.785  26.264  46.970  1.00  0.00     0.002 A 
HETATM   18  C   UNL     1       3.806  26.479  47.902  1.00  0.00     0.032 A 
BRANCH  14  19
HETATM   19  O   UNL     1       2.156  28.726  50.281  1.00  0.00    -0.354 OA
HETATM   20  C   UNL     1       1.595  30.006  50.004  1.00  0.00     0.210 C 
ENDBRANCH  14  19
ENDBRANCH  10  13
ENDBRANCH   2   7
BRANCH   1  21
HETATM   21  C   UNL     1       7.262  27.321  54.553  1.00  0.00     0.254 C 
HETATM   22  N   UNL     1       6.903  26.070  55.025  1.00  0.00    -0.353 N 
HETATM   23  H   UNL     1       6.130  26.013  55.676  1.00  0.00     0.163 HD
HETATM   24  O   UNL     1       8.273  27.546  53.901  1.00  0.00    -0.268 OA
BRANCH  22  25
HETATM   25  C   UNL     1       7.772  24.912  54.865  1.00  0.00     0.080 C 
HETATM   26  C   UNL     1       7.195  23.965  53.816  1.00  0.00     0.032 C 
BRANCH  25  27
HETATM   27  C   UNL     1       8.049  24.216  56.209  1.00  0.00     0.020 C 
HETATM   28  C   UNL     1       8.500  25.146  57.329  1.00  0.00     0.007 C 
ENDBRANCH  25  27
ENDBRANCH  22  25
ENDBRANCH   1  21
BRANCH   5  29
HETATM   29  N   UNL     1       5.346  30.231  57.933  1.00  0.00    -0.309 N 
HETATM   30  C   UNL     1       5.655  31.494  58.423  1.00  0.00     0.325 C 
HETATM   31  N   UNL     1       5.244  31.617  59.740  1.00  0.00    -0.307 N 
HETATM   32  O   UNL     1       6.197  32.376  57.771  1.00  0.00    -0.247 OA
HETATM   33  H   UNL     1       4.599  30.916  60.076  1.00  0.00     0.170 HD
HETATM   34  H   UNL     1       5.222  29.505  58.623  1.00  0.00     0.170 HD
BRANCH  31  35
HETATM   35  C   UNL     1       5.373  32.755  60.576  1.00  0.00     0.053 A 
HETATM   36  C   UNL     1       6.469  32.830  61.456  1.00  0.00     0.037 A 
HETATM   37 BR   UNL     1       7.777  31.448  61.527  1.00  0.00    -0.049 Br
HETATM   38  C   UNL     1       6.626  33.917  62.321  1.00  0.00     0.021 A 
HETATM   39  C   UNL     1       5.693  34.952  62.312  1.00  0.00     0.002 A 
HETATM   40  C   UNL     1       4.615  34.902  61.434  1.00  0.00     0.002 A 
HETATM   41  C   UNL     1       4.459  33.813  60.568  1.00  0.00     0.031 A 
ENDBRANCH  31  35
ENDBRANCH   5  29
TORSDOF 8
ENDMDL
MODEL 5
REMARK VINA RESULT:      -9.3      4.062      5.471
REMARK  8 active torsions:
REMARK  status: ('A' for Active; 'I' for Inactive)
REMARK    1  A    between atoms: C_2  and  C_3 
REMARK    2  A    between atoms: C_3  and  N_4 
REMARK       I    between atoms: N_4  and  C_5 
REMARK    3  A    between atoms: C_5  and  C_6 
REMARK    4  A    between atoms: C_7  and  N_8 
REMARK    5  A    between atoms: N_11  and  C_12 
REMARK    6  A    between atoms: C_13  and  O_14 
REMARK    7  A    between atoms: C_24  and  N_25 
REMARK       I    between atoms: N_25  and  C_26 
REMARK       I    between atoms: C_26  and  N_27 
REMARK    8  A    between atoms: N_27  and  C_28 
ROOT
HETATM    1  C   UNL     1       4.711  28.636  53.408  1.00  0.00     0.060 A 
HETATM    2  C   UNL     1       5.190  27.583  54.215  1.00  0.00     0.046 A 
HETATM    3  C   UNL     1       4.972  27.714  55.595  1.00  0.00     0.032 A 
HETATM    4  C   UNL     1       4.334  28.834  56.147  1.00  0.00     0.032 A 
HETATM    5  C   UNL     1       3.887  29.874  55.336  1.00  0.00     0.037 A 
HETATM    6  C   UNL     1       4.078  29.770  53.959  1.00  0.00     0.049 A 
ENDROOT
BRANCH   2   7
HETATM    7  N   UNL     1       5.856  26.472  53.684  1.00  0.00    -0.377 N 
HETATM    8  C   UNL     1       5.046  25.230  53.608  1.00  0.00     0.143 C 
HETATM    9  C   UNL     1       5.724  24.210  52.664  1.00  0.00     0.143 C 
HETATM   10  N   UNL     1       7.123  23.941  53.051  1.00  0.00    -0.376 N 
HETATM   11  C   UNL     1       7.931  25.175  53.200  1.00  0.00     0.143 C 
HETATM   12  C   UNL     1       7.239  26.193  54.137  1.00  0.00     0.143 C 
BRANCH  10  13
HETATM   13  C   UNL     1       7.532  22.777  53.694  1.00  0.00     0.064 A 
HETATM   14  C   UNL     1       7.463  22.537  55.087  1.00  0.00     0.094 A 
HETATM   15  C   UNL     1       7.890  21.308  55.629  1.00  0.00     0.039 A 
HETATM   16  C   UNL     1       8.351  20.284  54.806  1.00  0.00     0.003 A 
HETATM   17  C   UNL     1       8.405  20.483  53.436  1.00  0.00     0.002 A 
HETATM   18  C   UNL     1       8.003  21.710  52.897  1.00  0.00     0.032 A 
BRANCH  14  19
HETATM   19  O   UNL     1       7.068  23.559  55.921  1.00  0.00    -0.354 OA
HETATM   20  C   UNL     1       8.003  23.883  56.947  1.00  0.00     0.210 C 
ENDBRANCH  14  19
ENDBRANCH  10  13
ENDBRANCH   2   7
BRANCH   1  21
HETATM   21  C   UNL     1       4.915  28.661  51.937  1.00  0.00     0.254 C 
HETATM   22  N   UNL     1       3.954  27.967  51.222  1.00  0.00    -0.353 N 
HETATM   23  H   UNL     1       3.327  27.362  51.734  1.00  0.00     0.163 HD
HETATM   24  O   UNL     1       5.833  29.289  51.427  1.00  0.00    -0.268 OA
BRANCH  22  25
HETATM   25  C   UNL     1       4.019  27.844  49.771  1.00  0.00     0.080 C 
HETATM   26  C   UNL     1       2.716  28.334  49.145  1.00  0.00     0.032 C 
BRANCH  25  27
HETATM   27  C   UNL     1       4.391  26.416  49.336  1.00  0.00     0.020 C 
HETATM   28  C   UNL     1       3.489  25.820  48.262  1.00  0.00     0.007 C 
ENDBRANCH  25  27
ENDBRANCH  22  25
ENDBRANCH   1  21
BRANCH   5  29
HETATM   29  N   UNL     1       3.306  31.057  55.840  1.00  0.00    -0.309 N 
HETATM   30  C   UNL     1       3.980  32.138  56.394  1.00  0.00     0.325 C 
HETATM   31  N   UNL     1       3.144  33.238  56.482  1.00  0.00    -0.307 N 
HETATM   32  O   UNL     1       5.155  32.119  56.736  1.00  0.00    -0.247 OA
HETATM   33  H   UNL     1       2.288  33.195  55.946  1.00  0.00     0.170 HD
HETATM   34  H   UNL     1       2.299  31.076  55.913  1.00  0.00     0.170 HD
BRANCH  31  35
HETATM   35  C   UNL     1       3.469  34.525  56.981  1.00  0.00     0.053 A 
HETATM   36  C   UNL     1       3.712  35.566  56.066  1.00  0.00     0.037 A 
HETATM   37 BR   UNL     1       3.597  35.280  54.187  1.00  0.00    -0.049 Br
HETATM   38  C   UNL     1       4.063  36.845  56.507  1.00  0.00     0.021 A 
HETATM   39  C   UNL     1       4.167  37.106  57.872  1.00  0.00     0.002 A 
HETATM   40  C   UNL     1       3.910  36.091  58.789  1.00  0.00     0.002 A 
HETATM   41  C   UNL     1       3.558  34.811  58.347  1.00  0.00     0.031 A 
ENDBRANCH  31  35
ENDBRANCH   5  29
TORSDOF 8
ENDMDL
MODEL 6
REMARK VINA RESULT:      -9.2      6.405     11.197
REMARK  8 active torsions:
REMARK  status: ('A' for Active; 'I' for Inactive)
REMARK    1  A    between atoms: C_2  and  C_3 
REMARK    2  A    between atoms: C_3  and  N_4 
REMARK       I    between atoms: N_4  and  C_5 
REMARK    3  A    between atoms: C_5  and  C_6 
REMARK    4  A    between atoms: C_7  and  N_8 
REMARK    5  A    between atoms: N_11  and  C_12 
REMARK    6  A    between atoms: C_13  and  O_14 
REMARK    7  A    between atoms: C_24  and  N_25 
REMARK       I    between atoms: N_25  and  C_26 
REMARK       I    between atoms: C_26  and  N_27 
REMARK    8  A    between atoms: N_27  and  C_28 
ROOT
HETATM    1  C   UNL     1       4.715  27.948  50.610  1.00  0.00     0.060 A 
HETATM    2  C   UNL     1       4.983  26.569  50.740  1.00  0.00     0.046 A 
HETATM    3  C   UNL     1       4.567  25.755  49.675  1.00  0.00     0.032 A 
HETATM    4  C   UNL     1       3.906  26.275  48.553  1.00  0.00     0.032 A 
HETATM    5  C   UNL     1       3.631  27.636  48.451  1.00  0.00     0.037 A 
HETATM    6  C   UNL     1       4.041  28.474  49.488  1.00  0.00     0.049 A 
ENDROOT
BRANCH   2   7
HETATM    7  N   UNL     1       5.615  26.029  51.866  1.00  0.00    -0.377 N 
HETATM    8  C   UNL     1       7.024  25.610  51.657  1.00  0.00     0.143 C 
HETATM    9  C   UNL     1       7.728  25.415  53.020  1.00  0.00     0.143 C 
HETATM   10  N   UNL     1       6.993  24.481  53.895  1.00  0.00    -0.376 N 
HETATM   11  C   UNL     1       5.565  24.843  54.061  1.00  0.00     0.143 C 
HETATM   12  C   UNL     1       4.872  25.048  52.692  1.00  0.00     0.143 C 
BRANCH  10  13
HETATM   13  C   UNL     1       7.394  23.169  54.128  1.00  0.00     0.064 A 
HETATM   14  C   UNL     1       7.549  22.567  55.400  1.00  0.00     0.094 A 
HETATM   15  C   UNL     1       7.944  21.220  55.517  1.00  0.00     0.039 A 
HETATM   16  C   UNL     1       8.150  20.433  54.386  1.00  0.00     0.003 A 
HETATM   17  C   UNL     1       7.980  20.990  53.129  1.00  0.00     0.002 A 
HETATM   18  C   UNL     1       7.611  22.334  53.010  1.00  0.00     0.032 A 
BRANCH  14  19
HETATM   19  O   UNL     1       7.410  23.347  56.527  1.00  0.00    -0.354 OA
HETATM   20  C   UNL     1       8.630  23.635  57.204  1.00  0.00     0.210 C 
ENDBRANCH  14  19
ENDBRANCH  10  13
ENDBRANCH   2   7
BRANCH   1  21
HETATM   21  C   UNL     1       5.049  28.923  51.679  1.00  0.00     0.254 C 
HETATM   22  N   UNL     1       4.118  28.982  52.701  1.00  0.00    -0.353 N 
HETATM   23  H   UNL     1       3.226  28.526  52.558  1.00  0.00     0.163 HD
HETATM   24  O   UNL     1       6.090  29.566  51.657  1.00  0.00    -0.268 OA
BRANCH  22  25
HETATM   25  C   UNL     1       4.258  29.915  53.812  1.00  0.00     0.080 C 
HETATM   26  C   UNL     1       4.177  29.165  55.139  1.00  0.00     0.032 C 
BRANCH  25  27
HETATM   27  C   UNL     1       3.246  31.071  53.717  1.00  0.00     0.020 C 
HETATM   28  C   UNL     1       2.755  31.602  55.058  1.00  0.00     0.007 C 
ENDBRANCH  25  27
ENDBRANCH  22  25
ENDBRANCH   1  21
BRANCH   5  29
HETATM   29  N   UNL     1       2.905  28.204  47.384  1.00  0.00    -0.309 N 
HETATM   30  C   UNL     1       1.523  28.292  47.278  1.00  0.00     0.325 C 
HETATM   31  N   UNL     1       1.167  29.180  46.278  1.00  0.00    -0.307 N 
HETATM   32  O   UNL     1       0.734  27.680  47.988  1.00  0.00    -0.247 OA
HETATM   33  H   UNL     1       1.897  29.793  45.942  1.00  0.00     0.170 HD
HETATM   34  H   UNL     1       3.430  28.469  46.564  1.00  0.00     0.170 HD
BRANCH  31  35
HETATM   35  C   UNL     1      -0.144  29.543  45.878  1.00  0.00     0.053 A 
HETATM   36  C   UNL     1      -0.799  30.583  46.564  1.00  0.00     0.037 A 
HETATM   37 BR   UNL     1       0.047  31.512  47.995  1.00  0.00    -0.049 Br
HETATM   38  C   UNL     1      -2.103  30.960  46.227  1.00  0.00     0.021 A 
HETATM   39  C   UNL     1      -2.769  30.308  45.191  1.00  0.00     0.002 A 
HETATM   40  C   UNL     1      -2.126  29.291  44.491  1.00  0.00     0.002 A 
HETATM   41  C   UNL     1      -0.822  28.915  44.829  1.00  0.00     0.031 A 
ENDBRANCH  31  35
ENDBRANCH   5  29
TORSDOF 8
ENDMDL
MODEL 7
REMARK VINA RESULT:      -9.0      1.618      2.283
REMARK  8 active torsions:
REMARK  status: ('A' for Active; 'I' for Inactive)
REMARK    1  A    between atoms: C_2  and  C_3 
REMARK    2  A    between atoms: C_3  and  N_4 
REMARK       I    between atoms: N_4  and  C_5 
REMARK    3  A    between atoms: C_5  and  C_6 
REMARK    4  A    between atoms: C_7  and  N_8 
REMARK    5  A    between atoms: N_11  and  C_12 
REMARK    6  A    between atoms: C_13  and  O_14 
REMARK    7  A    between atoms: C_24  and  N_25 
REMARK       I    between atoms: N_25  and  C_26 
REMARK       I    between atoms: C_26  and  N_27 
REMARK    8  A    between atoms: N_27  and  C_28 
ROOT
HETATM    1  C   UNL     1       4.903  31.027  57.383  1.00  0.00     0.060 A 
HETATM    2  C   UNL     1       6.076  30.266  57.188  1.00  0.00     0.046 A 
HETATM    3  C   UNL     1       7.103  30.462  58.123  1.00  0.00     0.032 A 
HETATM    4  C   UNL     1       6.984  31.374  59.181  1.00  0.00     0.032 A 
HETATM    5  C   UNL     1       5.828  32.132  59.347  1.00  0.00     0.037 A 
HETATM    6  C   UNL     1       4.783  31.953  58.440  1.00  0.00     0.049 A 
ENDROOT
BRANCH   2   7
HETATM    7  N   UNL     1       6.222  29.373  56.120  1.00  0.00    -0.377 N 
HETATM    8  C   UNL     1       5.331  28.186  56.165  1.00  0.00     0.143 C 
HETATM    9  C   UNL     1       5.288  27.500  54.779  1.00  0.00     0.143 C 
HETATM   10  N   UNL     1       6.638  27.165  54.285  1.00  0.00    -0.376 N 
HETATM   11  C   UNL     1       7.565  28.322  54.298  1.00  0.00     0.143 C 
HETATM   12  C   UNL     1       7.591  29.009  55.685  1.00  0.00     0.143 C 
BRANCH  10  13
HETATM   13  C   UNL     1       7.160  25.875  54.289  1.00  0.00     0.064 A 
HETATM   14  C   UNL     1       7.450  25.099  53.142  1.00  0.00     0.094 A 
HETATM   15  C   UNL     1       7.997  23.806  53.265  1.00  0.00     0.039 A 
HETATM   16  C   UNL     1       8.306  23.275  54.515  1.00  0.00     0.003 A 
HETATM   17  C   UNL     1       8.056  24.024  55.654  1.00  0.00     0.002 A 
HETATM   18  C   UNL     1       7.492  25.299  55.535  1.00  0.00     0.032 A 
BRANCH  14  19
HETATM   19  O   UNL     1       7.094  25.583  51.903  1.00  0.00    -0.354 OA
HETATM   20  C   UNL     1       5.713  25.433  51.581  1.00  0.00     0.210 C 
ENDBRANCH  14  19
ENDBRANCH  10  13
ENDBRANCH   2   7
BRANCH   1  21
HETATM   21  C   UNL     1       3.754  30.963  56.445  1.00  0.00     0.254 C 
HETATM   22  N   UNL     1       4.039  31.423  55.171  1.00  0.00    -0.353 N 
HETATM   23  H   UNL     1       4.906  31.925  55.030  1.00  0.00     0.163 HD
HETATM   24  O   UNL     1       2.675  30.494  56.783  1.00  0.00    -0.268 OA
BRANCH  22  25
HETATM   25  C   UNL     1       3.019  31.479  54.131  1.00  0.00     0.080 C 
HETATM   26  C   UNL     1       3.583  30.945  52.817  1.00  0.00     0.032 C 
BRANCH  25  27
HETATM   27  C   UNL     1       2.421  32.890  53.994  1.00  0.00     0.020 C 
HETATM   28  C   UNL     1       1.107  33.100  54.736  1.00  0.00     0.007 C 
ENDBRANCH  25  27
ENDBRANCH  22  25
ENDBRANCH   1  21
BRANCH   5  29
HETATM   29  N   UNL     1       5.681  33.116  60.346  1.00  0.00    -0.309 N 
HETATM   30  C   UNL     1       5.075  32.952  61.585  1.00  0.00     0.325 C 
HETATM   31  N   UNL     1       5.390  34.008  62.424  1.00  0.00    -0.307 N 
HETATM   32  O   UNL     1       4.377  31.995  61.893  1.00  0.00    -0.247 OA
HETATM   33  H   UNL     1       6.162  34.594  62.136  1.00  0.00     0.170 HD
HETATM   34  H   UNL     1       5.935  34.061  60.098  1.00  0.00     0.170 HD
BRANCH  31  35
HETATM   35  C   UNL     1       4.973  34.192  63.766  1.00  0.00     0.053 A 
HETATM   36  C   UNL     1       5.866  33.872  64.805  1.00  0.00     0.037 A 
HETATM   37 BR   UNL     1       7.616  33.216  64.440  1.00  0.00    -0.049 Br
HETATM   38  C   UNL     1       5.491  34.009  66.145  1.00  0.00     0.021 A 
HETATM   39  C   UNL     1       4.220  34.479  66.467  1.00  0.00     0.002 A 
HETATM   40  C   UNL     1       3.332  34.819  65.450  1.00  0.00     0.002 A 
HETATM   41  C   UNL     1       3.708  34.681  64.109  1.00  0.00     0.031 A 
ENDBRANCH  31  35
ENDBRANCH   5  29
TORSDOF 8
ENDMDL
MODEL 8
REMARK VINA RESULT:      -8.5      5.956     10.639
REMARK  8 active torsions:
REMARK  status: ('A' for Active; 'I' for Inactive)
REMARK    1  A    between atoms: C_2  and  C_3 
REMARK    2  A    between atoms: C_3  and  N_4 
REMARK       I    between atoms: N_4  and  C_5 
REMARK    3  A    between atoms: C_5  and  C_6 
REMARK    4  A    between atoms: C_7  and  N_8 
REMARK    5  A    between atoms: N_11  and  C_12 
REMARK    6  A    between atoms: C_13  and  O_14 
REMARK    7  A    between atoms: C_24  and  N_25 
REMARK       I    between atoms: N_25  and  C_26 
REMARK       I    between atoms: C_26  and  N_27 
REMARK    8  A    between atoms: N_27  and  C_28 
ROOT
HETATM    1  C   UNL     1       4.976  28.694  51.510  1.00  0.00     0.060 A 
HETATM    2  C   UNL     1       4.380  28.148  50.354  1.00  0.00     0.046 A 
HETATM    3  C   UNL     1       4.653  26.795  50.098  1.00  0.00     0.032 A 
HETATM    4  C   UNL     1       5.486  26.032  50.927  1.00  0.00     0.032 A 
HETATM    5  C   UNL     1       6.083  26.594  52.053  1.00  0.00     0.037 A 
HETATM    6  C   UNL     1       5.823  27.933  52.343  1.00  0.00     0.049 A 
ENDROOT
BRANCH   2   7
HETATM    7  N   UNL     1       3.569  28.903  49.498  1.00  0.00    -0.377 N 
HETATM    8  C   UNL     1       2.115  28.840  49.790  1.00  0.00     0.143 C 
HETATM    9  C   UNL     1       1.378  29.992  49.067  1.00  0.00     0.143 C 
HETATM   10  N   UNL     1       1.656  30.004  47.617  1.00  0.00    -0.376 N 
HETATM   11  C   UNL     1       3.105  29.996  47.304  1.00  0.00     0.143 C 
HETATM   12  C   UNL     1       3.836  28.848  48.041  1.00  0.00     0.143 C 
BRANCH  10  13
HETATM   13  C   UNL     1       0.749  29.565  46.657  1.00  0.00     0.064 A 
HETATM   14  C   UNL     1       0.225  28.254  46.556  1.00  0.00     0.094 A 
HETATM   15  C   UNL     1      -0.706  27.925  45.551  1.00  0.00     0.039 A 
HETATM   16  C   UNL     1      -1.166  28.889  44.657  1.00  0.00     0.003 A 
HETATM   17  C   UNL     1      -0.688  30.186  44.750  1.00  0.00     0.002 A 
HETATM   18  C   UNL     1       0.254  30.510  45.733  1.00  0.00     0.032 A 
BRANCH  14  19
HETATM   19  O   UNL     1       0.714  27.275  47.392  1.00  0.00    -0.354 OA
HETATM   20  C   UNL     1       1.717  26.445  46.811  1.00  0.00     0.210 C 
ENDBRANCH  14  19
ENDBRANCH  10  13
ENDBRANCH   2   7
BRANCH   1  21
HETATM   21  C   UNL     1       4.819  30.123  51.881  1.00  0.00     0.254 C 
HETATM   22  N   UNL     1       4.383  30.326  53.179  1.00  0.00    -0.353 N 
HETATM   23  H   UNL     1       4.032  29.527  53.691  1.00  0.00     0.163 HD
HETATM   24  O   UNL     1       5.107  31.023  51.103  1.00  0.00    -0.268 OA
BRANCH  22  25
HETATM   25  C   UNL     1       4.128  31.662  53.702  1.00  0.00     0.080 C 
HETATM   26  C   UNL     1       4.534  31.735  55.171  1.00  0.00     0.032 C 
BRANCH  25  27
HETATM   27  C   UNL     1       2.672  32.100  53.462  1.00  0.00     0.020 C 
HETATM   28  C   UNL     1       2.487  33.113  52.339  1.00  0.00     0.007 C 
ENDBRANCH  25  27
ENDBRANCH  22  25
ENDBRANCH   1  21
BRANCH   5  29
HETATM   29  N   UNL     1       6.988  25.897  52.881  1.00  0.00    -0.309 N 
HETATM   30  C   UNL     1       6.703  24.786  53.665  1.00  0.00     0.325 C 
HETATM   31  N   UNL     1       7.872  24.175  54.085  1.00  0.00    -0.307 N 
HETATM   32  O   UNL     1       5.572  24.397  53.929  1.00  0.00    -0.247 OA
HETATM   33  H   UNL     1       8.718  24.445  53.603  1.00  0.00     0.170 HD
HETATM   34  H   UNL     1       7.901  26.308  53.009  1.00  0.00     0.170 HD
BRANCH  31  35
HETATM   35  C   UNL     1       7.992  23.013  54.889  1.00  0.00     0.053 A 
HETATM   36  C   UNL     1       8.239  23.164  56.267  1.00  0.00     0.037 A 
HETATM   37 BR   UNL     1       8.394  24.887  57.063  1.00  0.00    -0.049 Br
HETATM   38  C   UNL     1       8.394  22.049  57.097  1.00  0.00     0.021 A 
HETATM   39  C   UNL     1       8.295  20.766  56.564  1.00  0.00     0.002 A 
HETATM   40  C   UNL     1       8.032  20.602  55.207  1.00  0.00     0.002 A 
HETATM   41  C   UNL     1       7.877  21.717  54.376  1.00  0.00     0.031 A 
ENDBRANCH  31  35
ENDBRANCH   5  29
TORSDOF 8
ENDMDL
MODEL 9
REMARK VINA RESULT:      -8.3      7.442     10.910
REMARK  8 active torsions:
REMARK  status: ('A' for Active; 'I' for Inactive)
REMARK    1  A    between atoms: C_2  and  C_3 
REMARK    2  A    between atoms: C_3  and  N_4 
REMARK       I    between atoms: N_4  and  C_5 
REMARK    3  A    between atoms: C_5  and  C_6 
REMARK    4  A    between atoms: C_7  and  N_8 
REMARK    5  A    between atoms: N_11  and  C_12 
REMARK    6  A    between atoms: C_13  and  O_14 
REMARK    7  A    between atoms: C_24  and  N_25 
REMARK       I    between atoms: N_25  and  C_26 
REMARK       I    between atoms: C_26  and  N_27 
REMARK    8  A    between atoms: N_27  and  C_28 
ROOT
HETATM    1  C   UNL     1       4.889  28.658  51.558  1.00  0.00     0.060 A 
HETATM    2  C   UNL     1       4.355  28.148  50.355  1.00  0.00     0.046 A 
HETATM    3  C   UNL     1       4.694  26.823  50.042  1.00  0.00     0.032 A 
HETATM    4  C   UNL     1       5.529  26.052  50.863  1.00  0.00     0.032 A 
HETATM    5  C   UNL     1       6.064  26.579  52.036  1.00  0.00     0.037 A 
HETATM    6  C   UNL     1       5.738  27.890  52.382  1.00  0.00     0.049 A 
ENDROOT
BRANCH   2   7
HETATM    7  N   UNL     1       3.544  28.913  49.509  1.00  0.00    -0.377 N 
HETATM    8  C   UNL     1       2.093  28.874  49.823  1.00  0.00     0.143 C 
HETATM    9  C   UNL     1       1.362  30.034  49.107  1.00  0.00     0.143 C 
HETATM   10  N   UNL     1       1.618  30.037  47.653  1.00  0.00    -0.376 N 
HETATM   11  C   UNL     1       3.062  30.005  47.319  1.00  0.00     0.143 C 
HETATM   12  C   UNL     1       3.787  28.849  48.048  1.00  0.00     0.143 C 
BRANCH  10  13
HETATM   13  C   UNL     1       0.691  29.608  46.709  1.00  0.00     0.064 A 
HETATM   14  C   UNL     1      -0.118  30.448  45.907  1.00  0.00     0.094 A 
HETATM   15  C   UNL     1      -1.013  29.902  44.966  1.00  0.00     0.039 A 
HETATM   16  C   UNL     1      -1.094  28.526  44.769  1.00  0.00     0.003 A 
HETATM   17  C   UNL     1      -0.295  27.682  45.523  1.00  0.00     0.002 A 
HETATM   18  C   UNL     1       0.578  28.220  46.474  1.00  0.00     0.032 A 
BRANCH  14  19
HETATM   19  O   UNL     1      -0.095  31.807  46.131  1.00  0.00    -0.354 OA
HETATM   20  C   UNL     1      -1.221  32.310  46.845  1.00  0.00     0.210 C 
ENDBRANCH  14  19
ENDBRANCH  10  13
ENDBRANCH   2   7
BRANCH   1  21
HETATM   21  C   UNL     1       4.660  30.059  51.993  1.00  0.00     0.254 C 
HETATM   22  N   UNL     1       4.973  31.007  51.034  1.00  0.00    -0.353 N 
HETATM   23  H   UNL     1       5.493  30.705  50.221  1.00  0.00     0.163 HD
HETATM   24  O   UNL     1       4.186  30.321  53.091  1.00  0.00    -0.268 OA
BRANCH  22  25
HETATM   25  C   UNL     1       4.855  32.435  51.301  1.00  0.00     0.080 C 
HETATM   26  C   UNL     1       3.413  32.890  51.090  1.00  0.00     0.032 C 
BRANCH  25  27
HETATM   27  C   UNL     1       5.866  33.254  50.479  1.00  0.00     0.020 C 
HETATM   28  C   UNL     1       6.199  32.670  49.112  1.00  0.00     0.007 C 
ENDBRANCH  25  27
ENDBRANCH  22  25
ENDBRANCH   1  21
BRANCH   5  29
HETATM   29  N   UNL     1       6.968  25.878  52.861  1.00  0.00    -0.309 N 
HETATM   30  C   UNL     1       6.685  24.757  53.631  1.00  0.00     0.325 C 
HETATM   31  N   UNL     1       7.855  24.147  54.050  1.00  0.00    -0.307 N 
HETATM   32  O   UNL     1       5.555  24.358  53.884  1.00  0.00    -0.247 OA
HETATM   33  H   UNL     1       8.702  24.428  53.575  1.00  0.00     0.170 HD
HETATM   34  H   UNL     1       7.877  26.293  52.998  1.00  0.00     0.170 HD
BRANCH  31  35
HETATM   35  C   UNL     1       7.978  22.977  54.841  1.00  0.00     0.053 A 
HETATM   36  C   UNL     1       8.247  23.113  56.216  1.00  0.00     0.037 A 
HETATM   37 BR   UNL     1       8.430  24.826  57.025  1.00  0.00    -0.049 Br
HETATM   38  C   UNL     1       8.406  21.989  57.033  1.00  0.00     0.021 A 
HETATM   39  C   UNL     1       8.287  20.712  56.490  1.00  0.00     0.002 A 
HETATM   40  C   UNL     1       8.001  20.562  55.136  1.00  0.00     0.002 A 
HETATM   41  C   UNL     1       7.843  21.687  54.318  1.00  0.00     0.031 A 
ENDBRANCH  31  35
ENDBRANCH   5  29
TORSDOF 8
ENDMDL
MODEL 10
REMARK VINA RESULT:      -8.1      4.262     10.455
REMARK  8 active torsions:
REMARK  status: ('A' for Active; 'I' for Inactive)
REMARK    1  A    between atoms: C_2  and  C_3 
REMARK    2  A    between atoms: C_3  and  N_4 
REMARK       I    between atoms: N_4  and  C_5 
REMARK    3  A    between atoms: C_5  and  C_6 
REMARK    4  A    between atoms: C_7  and  N_8 
REMARK    5  A    between atoms: N_11  and  C_12 
REMARK    6  A    between atoms: C_13  and  O_14 
REMARK    7  A    between atoms: C_24  and  N_25 
REMARK       I    between atoms: N_25  and  C_26 
REMARK       I    between atoms: C_26  and  N_27 
REMARK    8  A    between atoms: N_27  and  C_28 
ROOT
HETATM    1  C   UNL     1       4.360  29.565  53.740  1.00  0.00     0.060 A 
HETATM    2  C   UNL     1       4.284  30.294  54.945  1.00  0.00     0.046 A 
HETATM    3  C   UNL     1       4.559  29.576  56.119  1.00  0.00     0.032 A 
HETATM    4  C   UNL     1       4.871  28.210  56.103  1.00  0.00     0.032 A 
HETATM    5  C   UNL     1       4.920  27.502  54.905  1.00  0.00     0.037 A 
HETATM    6  C   UNL     1       4.663  28.188  53.719  1.00  0.00     0.049 A 
ENDROOT
BRANCH   2   7
HETATM    7  N   UNL     1       3.945  31.652  54.982  1.00  0.00    -0.377 N 
HETATM    8  C   UNL     1       4.920  32.526  55.683  1.00  0.00     0.143 C 
HETATM    9  C   UNL     1       4.660  34.007  55.323  1.00  0.00     0.143 C 
HETATM   10  N   UNL     1       3.264  34.406  55.588  1.00  0.00    -0.376 N 
HETATM   11  C   UNL     1       2.273  33.503  54.953  1.00  0.00     0.143 C 
HETATM   12  C   UNL     1       2.548  32.023  55.310  1.00  0.00     0.143 C 
BRANCH  10  13
HETATM   13  C   UNL     1       2.879  35.181  56.677  1.00  0.00     0.064 A 
HETATM   14  C   UNL     1       2.768  34.729  58.013  1.00  0.00     0.094 A 
HETATM   15  C   UNL     1       2.386  35.611  59.044  1.00  0.00     0.039 A 
HETATM   16  C   UNL     1       2.150  36.958  58.782  1.00  0.00     0.003 A 
HETATM   17  C   UNL     1       2.276  37.433  57.487  1.00  0.00     0.002 A 
HETATM   18  C   UNL     1       2.633  36.554  56.458  1.00  0.00     0.032 A 
BRANCH  14  19
HETATM   19  O   UNL     1       2.937  33.388  58.279  1.00  0.00    -0.354 OA
HETATM   20  C   UNL     1       3.858  33.103  59.329  1.00  0.00     0.210 C 
ENDBRANCH  14  19
ENDBRANCH  10  13
ENDBRANCH   2   7
BRANCH   1  21
HETATM   21  C   UNL     1       4.044  30.178  52.424  1.00  0.00     0.254 C 
HETATM   22  N   UNL     1       5.159  30.497  51.668  1.00  0.00    -0.353 N 
HETATM   23  H   UNL     1       6.063  30.474  52.122  1.00  0.00     0.163 HD
HETATM   24  O   UNL     1       2.890  30.329  52.047  1.00  0.00    -0.268 OA
BRANCH  22  25
HETATM   25  C   UNL     1       5.043  31.149  50.369  1.00  0.00     0.080 C 
HETATM   26  C   UNL     1       5.502  30.201  49.265  1.00  0.00     0.032 C 
BRANCH  25  27
HETATM   27  C   UNL     1       5.780  32.500  50.341  1.00  0.00     0.020 C 
HETATM   28  C   UNL     1       6.343  32.891  48.981  1.00  0.00     0.007 C 
ENDBRANCH  25  27
ENDBRANCH  22  25
ENDBRANCH   1  21
BRANCH   5  29
HETATM   29  N   UNL     1       5.155  26.113  54.833  1.00  0.00    -0.309 N 
HETATM   30  C   UNL     1       6.290  25.491  54.327  1.00  0.00     0.325 C 
HETATM   31  N   UNL     1       6.323  24.159  54.703  1.00  0.00    -0.307 N 
HETATM   32  O   UNL     1       7.147  26.054  53.658  1.00  0.00    -0.247 OA
HETATM   33  H   UNL     1       5.695  23.888  55.447  1.00  0.00     0.170 HD
HETATM   34  H   UNL     1       4.382  25.506  55.064  1.00  0.00     0.170 HD
BRANCH  31  35
HETATM   35  C   UNL     1       7.323  23.204  54.391  1.00  0.00     0.053 A 
HETATM   36  C   UNL     1       8.369  22.993  55.307  1.00  0.00     0.037 A 
HETATM   37 BR   UNL     1       8.455  23.949  56.951  1.00  0.00    -0.049 Br
HETATM   38  C   UNL     1       9.395  22.082  55.032  1.00  0.00     0.021 A 
HETATM   39  C   UNL     1       9.383  21.361  53.841  1.00  0.00     0.002 A 
HETATM   40  C   UNL     1       8.343  21.544  52.934  1.00  0.00     0.002 A 
HETATM   41  C   UNL     1       7.318  22.455  53.209  1.00  0.00     0.031 A 
ENDBRANCH  31  35
ENDBRANCH   5  29
TORSDOF 8
ENDMDL
