MODEL 1
REMARK VINA RESULT:      -9.3      0.000      0.000
REMARK  3 active torsions:
REMARK  status: ('A' for Active; 'I' for Inactive)
REMARK       I    between atoms: N_2  and  C_3 
REMARK    1  A    between atoms: C_3  and  C_4 
REMARK    2  A    between atoms: C_7  and  N_8 
REMARK       I    between atoms: N_8  and  C_9 
REMARK    3  A    between atoms: C_9  and  C_10 
ROOT
HETATM    1  N   UNL     1       7.343  26.404  56.193  1.00  0.00    -0.321 N 
HETATM    2  C   UNL     1       6.648  25.241  56.475  1.00  0.00     0.280 C 
HETATM    3  O   UNL     1       5.751  25.131  57.303  1.00  0.00    -0.265 OA
HETATM    4  H   UNL     1       8.037  26.313  55.457  1.00  0.00     0.169 HD
ENDROOT
BRANCH   1   5
HETATM    5  C   UNL     1       7.235  27.659  56.818  1.00  0.00     0.035 A 
HETATM    6  C   UNL     1       6.060  28.413  56.858  1.00  0.00     0.030 A 
HETATM    7  C   UNL     1       6.020  29.638  57.537  1.00  0.00     0.019 A 
HETATM    8  C   UNL     1       7.160  30.118  58.188  1.00  0.00     0.032 A 
HETATM    9  C   UNL     1       8.348  29.385  58.124  1.00  0.00     0.019 A 
HETATM   10  C   UNL     1       8.382  28.160  57.448  1.00  0.00     0.030 A 
BRANCH   8  11
HETATM   11  C   UNL     1       7.153  31.399  58.944  1.00  0.00     0.251 C 
HETATM   12  N   UNL     1       6.020  31.658  59.689  1.00  0.00    -0.361 N 
HETATM   13  C   UNL     1       5.961  32.811  60.550  1.00  0.00     0.149 C 
HETATM   14  H   UNL     1       5.364  30.908  59.855  1.00  0.00     0.162 HD
HETATM   15  O   UNL     1       8.132  32.136  58.918  1.00  0.00    -0.268 OA
ENDBRANCH   8  11
ENDBRANCH   1   5
BRANCH   2  16
HETATM   16  C   UNL     1       7.099  24.114  55.679  1.00  0.00     0.144 A 
HETATM   17  O   UNL     1       7.595  23.000  56.308  1.00  0.00    -0.304 OA
HETATM   18  C   UNL     1       7.906  22.097  55.338  1.00  0.00     0.086 A 
HETATM   19  C   UNL     1       7.625  22.618  54.081  1.00  0.00     0.001 A 
HETATM   20  C   UNL     1       8.428  20.824  55.556  1.00  0.00     0.038 A 
HETATM   21  C   UNL     1       7.111  23.919  54.310  1.00  0.00     0.057 A 
HETATM   22  C   UNL     1       7.878  21.822  52.950  1.00  0.00     0.014 A 
HETATM   23  C   UNL     1       8.400  20.534  53.138  1.00  0.00     0.001 A 
HETATM   24  C   UNL     1       8.670  20.046  54.419  1.00  0.00     0.003 A 
ENDBRANCH   2  16
TORSDOF 3
ENDMDL
MODEL 2
REMARK VINA RESULT:      -8.8      1.413      2.063
REMARK  3 active torsions:
REMARK  status: ('A' for Active; 'I' for Inactive)
REMARK       I    between atoms: N_2  and  C_3 
REMARK    1  A    between atoms: C_3  and  C_4 
REMARK    2  A    between atoms: C_7  and  N_8 
REMARK       I    between atoms: N_8  and  C_9 
REMARK    3  A    between atoms: C_9  and  C_10 
ROOT
HETATM    1  N   UNL     1       7.081  26.644  56.644  1.00  0.00    -0.321 N 
HETATM    2  C   UNL     1       7.395  26.308  55.339  1.00  0.00     0.280 C 
HETATM    3  O   UNL     1       7.561  27.102  54.420  1.00  0.00    -0.265 OA
HETATM    4  H   UNL     1       7.005  25.853  57.277  1.00  0.00     0.169 HD
ENDROOT
BRANCH   1   5
HETATM    5  C   UNL     1       6.818  27.918  57.179  1.00  0.00     0.035 A 
HETATM    6  C   UNL     1       7.775  28.709  57.819  1.00  0.00     0.030 A 
HETATM    7  C   UNL     1       7.446  29.987  58.288  1.00  0.00     0.019 A 
HETATM    8  C   UNL     1       6.152  30.487  58.119  1.00  0.00     0.032 A 
HETATM    9  C   UNL     1       5.182  29.689  57.509  1.00  0.00     0.019 A 
HETATM   10  C   UNL     1       5.516  28.414  57.037  1.00  0.00     0.030 A 
BRANCH   8  11
HETATM   11  C   UNL     1       5.769  31.849  58.578  1.00  0.00     0.251 C 
HETATM   12  N   UNL     1       5.201  31.930  59.833  1.00  0.00    -0.361 N 
HETATM   13  C   UNL     1       4.906  33.212  60.420  1.00  0.00     0.149 C 
HETATM   14  H   UNL     1       5.261  31.130  60.447  1.00  0.00     0.162 HD
HETATM   15  O   UNL     1       6.002  32.825  57.874  1.00  0.00    -0.268 OA
ENDBRANCH   8  11
ENDBRANCH   1   5
BRANCH   2  16
HETATM   16  C   UNL     1       7.505  24.874  55.142  1.00  0.00     0.144 A 
HETATM   17  O   UNL     1       7.651  24.377  53.872  1.00  0.00    -0.304 OA
HETATM   18  C   UNL     1       7.763  23.024  53.981  1.00  0.00     0.086 A 
HETATM   19  C   UNL     1       7.682  22.637  55.313  1.00  0.00     0.001 A 
HETATM   20  C   UNL     1       7.940  22.140  52.920  1.00  0.00     0.038 A 
HETATM   21  C   UNL     1       7.509  23.833  56.053  1.00  0.00     0.057 A 
HETATM   22  C   UNL     1       7.784  21.269  55.624  1.00  0.00     0.014 A 
HETATM   23  C   UNL     1       7.966  20.354  54.576  1.00  0.00     0.001 A 
HETATM   24  C   UNL     1       8.042  20.784  53.249  1.00  0.00     0.003 A 
ENDBRANCH   2  16
TORSDOF 3
ENDMDL
MODEL 3
REMARK VINA RESULT:      -8.7      2.140      9.042
REMARK  3 active torsions:
REMARK  status: ('A' for Active; 'I' for Inactive)
REMARK       I    between atoms: N_2  and  C_3 
REMARK    1  A    between atoms: C_3  and  C_4 
REMARK    2  A    between atoms: C_7  and  N_8 
REMARK       I    between atoms: N_8  and  C_9 
REMARK    3  A    between atoms: C_9  and  C_10 
ROOT
HETATM    1  N   UNL     1       7.558  27.048  57.624  1.00  0.00    -0.321 N 
HETATM    2  C   UNL     1       7.943  28.277  57.118  1.00  0.00     0.280 C 
HETATM    3  O   UNL     1       8.336  28.487  55.976  1.00  0.00    -0.265 OA
HETATM    4  H   UNL     1       7.237  27.070  58.586  1.00  0.00     0.169 HD
ENDROOT
BRANCH   1   5
HETATM    5  C   UNL     1       7.598  25.793  56.990  1.00  0.00     0.035 A 
HETATM    6  C   UNL     1       6.737  25.411  55.959  1.00  0.00     0.030 A 
HETATM    7  C   UNL     1       6.865  24.157  55.349  1.00  0.00     0.019 A 
HETATM    8  C   UNL     1       7.863  23.271  55.766  1.00  0.00     0.032 A 
HETATM    9  C   UNL     1       8.706  23.633  56.820  1.00  0.00     0.019 A 
HETATM   10  C   UNL     1       8.576  24.889  57.423  1.00  0.00     0.030 A 
BRANCH   8  11
HETATM   11  C   UNL     1       8.051  21.941  55.127  1.00  0.00     0.251 C 
HETATM   12  N   UNL     1       7.688  21.849  53.798  1.00  0.00    -0.361 N 
HETATM   13  C   UNL     1       7.941  20.642  53.054  1.00  0.00     0.149 C 
HETATM   14  H   UNL     1       7.519  22.700  53.279  1.00  0.00     0.162 HD
HETATM   15  O   UNL     1       8.544  21.016  55.761  1.00  0.00    -0.268 OA
ENDBRANCH   8  11
ENDBRANCH   1   5
BRANCH   2  16
HETATM   16  C   UNL     1       7.847  29.341  58.102  1.00  0.00     0.144 A 
HETATM   17  O   UNL     1       8.739  29.377  59.145  1.00  0.00    -0.304 OA
HETATM   18  C   UNL     1       8.446  30.482  59.884  1.00  0.00     0.086 A 
HETATM   19  C   UNL     1       7.365  31.160  59.336  1.00  0.00     0.001 A 
HETATM   20  C   UNL     1       9.126  30.892  61.028  1.00  0.00     0.038 A 
HETATM   21  C   UNL     1       6.981  30.415  58.192  1.00  0.00     0.057 A 
HETATM   22  C   UNL     1       6.918  32.337  59.964  1.00  0.00     0.014 A 
HETATM   23  C   UNL     1       7.586  32.777  61.116  1.00  0.00     0.001 A 
HETATM   24  C   UNL     1       8.670  32.066  61.637  1.00  0.00     0.003 A 
ENDBRANCH   2  16
TORSDOF 3
ENDMDL
MODEL 4
REMARK VINA RESULT:      -8.7      2.187      9.273
REMARK  3 active torsions:
REMARK  status: ('A' for Active; 'I' for Inactive)
REMARK       I    between atoms: N_2  and  C_3 
REMARK    1  A    between atoms: C_3  and  C_4 
REMARK    2  A    between atoms: C_7  and  N_8 
REMARK       I    between atoms: N_8  and  C_9 
REMARK    3  A    between atoms: C_9  and  C_10 
ROOT
HETATM    1  N   UNL     1       7.596  28.247  57.868  1.00  0.00    -0.321 N 
HETATM    2  C   UNL     1       8.539  29.244  58.046  1.00  0.00     0.280 C 
HETATM    3  O   UNL     1       9.582  29.359  57.413  1.00  0.00    -0.265 OA
HETATM    4  H   UNL     1       6.781  28.326  58.468  1.00  0.00     0.169 HD
ENDROOT
BRANCH   1   5
HETATM    5  C   UNL     1       7.650  27.139  57.004  1.00  0.00     0.035 A 
HETATM    6  C   UNL     1       8.146  25.886  57.371  1.00  0.00     0.030 A 
HETATM    7  C   UNL     1       8.127  24.818  56.465  1.00  0.00     0.019 A 
HETATM    8  C   UNL     1       7.609  24.996  55.179  1.00  0.00     0.032 A 
HETATM    9  C   UNL     1       7.142  26.255  54.794  1.00  0.00     0.019 A 
HETATM   10  C   UNL     1       7.158  27.318  55.705  1.00  0.00     0.030 A 
BRANCH   8  11
HETATM   11  C   UNL     1       7.546  23.881  54.196  1.00  0.00     0.251 C 
HETATM   12  N   UNL     1       8.518  22.909  54.317  1.00  0.00    -0.361 N 
HETATM   13  C   UNL     1       8.476  21.728  53.493  1.00  0.00     0.149 C 
HETATM   14  H   UNL     1       9.077  22.880  55.158  1.00  0.00     0.162 HD
HETATM   15  O   UNL     1       6.642  23.838  53.369  1.00  0.00    -0.268 OA
ENDBRANCH   8  11
ENDBRANCH   1   5
BRANCH   2  16
HETATM   16  C   UNL     1       8.176  30.174  59.101  1.00  0.00     0.144 A 
HETATM   17  O   UNL     1       8.810  30.097  60.316  1.00  0.00    -0.304 OA
HETATM   18  C   UNL     1       8.307  31.096  61.094  1.00  0.00     0.086 A 
HETATM   19  C   UNL     1       7.345  31.816  60.397  1.00  0.00     0.001 A 
HETATM   20  C   UNL     1       8.694  31.373  62.402  1.00  0.00     0.038 A 
HETATM   21  C   UNL     1       7.262  31.212  59.117  1.00  0.00     0.057 A 
HETATM   22  C   UNL     1       6.715  32.896  61.040  1.00  0.00     0.014 A 
HETATM   23  C   UNL     1       7.087  33.202  62.358  1.00  0.00     0.001 A 
HETATM   24  C   UNL     1       8.059  32.452  63.025  1.00  0.00     0.003 A 
ENDBRANCH   2  16
TORSDOF 3
ENDMDL
MODEL 5
REMARK VINA RESULT:      -8.5      1.831      2.034
REMARK  3 active torsions:
REMARK  status: ('A' for Active; 'I' for Inactive)
REMARK       I    between atoms: N_2  and  C_3 
REMARK    1  A    between atoms: C_3  and  C_4 
REMARK    2  A    between atoms: C_7  and  N_8 
REMARK       I    between atoms: N_8  and  C_9 
REMARK    3  A    between atoms: C_9  and  C_10 
ROOT
HETATM    1  N   UNL     1       6.466  26.366  55.710  1.00  0.00    -0.321 N 
HETATM    2  C   UNL     1       7.208  26.154  54.561  1.00  0.00     0.280 C 
HETATM    3  O   UNL     1       7.589  27.025  53.788  1.00  0.00    -0.265 OA
HETATM    4  H   UNL     1       6.262  25.526  56.242  1.00  0.00     0.169 HD
ENDROOT
BRANCH   1   5
HETATM    5  C   UNL     1       5.937  27.576  56.196  1.00  0.00     0.035 A 
HETATM    6  C   UNL     1       4.697  28.094  55.816  1.00  0.00     0.030 A 
HETATM    7  C   UNL     1       4.219  29.285  56.376  1.00  0.00     0.019 A 
HETATM    8  C   UNL     1       4.981  29.970  57.327  1.00  0.00     0.032 A 
HETATM    9  C   UNL     1       6.237  29.475  57.687  1.00  0.00     0.019 A 
HETATM   10  C   UNL     1       6.708  28.282  57.128  1.00  0.00     0.030 A 
BRANCH   8  11
HETATM   11  C   UNL     1       4.498  31.223  57.967  1.00  0.00     0.251 C 
HETATM   12  N   UNL     1       3.811  31.074  59.154  1.00  0.00    -0.361 N 
HETATM   13  C   UNL     1       3.406  32.228  59.914  1.00  0.00     0.149 C 
HETATM   14  H   UNL     1       3.846  30.182  59.629  1.00  0.00     0.162 HD
HETATM   15  O   UNL     1       4.754  32.311  57.463  1.00  0.00    -0.268 OA
ENDBRANCH   8  11
ENDBRANCH   1   5
BRANCH   2  16
HETATM   16  C   UNL     1       7.499  24.749  54.336  1.00  0.00     0.144 A 
HETATM   17  O   UNL     1       7.485  23.879  55.398  1.00  0.00    -0.304 OA
HETATM   18  C   UNL     1       7.754  22.639  54.903  1.00  0.00     0.086 A 
HETATM   19  C   UNL     1       7.950  22.697  53.528  1.00  0.00     0.001 A 
HETATM   20  C   UNL     1       7.820  21.467  55.652  1.00  0.00     0.038 A 
HETATM   21  C   UNL     1       7.791  24.060  53.173  1.00  0.00     0.057 A 
HETATM   22  C   UNL     1       8.235  21.506  52.838  1.00  0.00     0.014 A 
HETATM   23  C   UNL     1       8.304  20.308  53.565  1.00  0.00     0.001 A 
HETATM   24  C   UNL     1       8.101  20.292  54.947  1.00  0.00     0.003 A 
ENDBRANCH   2  16
TORSDOF 3
ENDMDL
MODEL 6
REMARK VINA RESULT:      -8.5      4.344      7.633
REMARK  3 active torsions:
REMARK  status: ('A' for Active; 'I' for Inactive)
REMARK       I    between atoms: N_2  and  C_3 
REMARK    1  A    between atoms: C_3  and  C_4 
REMARK    2  A    between atoms: C_7  and  N_8 
REMARK       I    between atoms: N_8  and  C_9 
REMARK    3  A    between atoms: C_9  and  C_10 
ROOT
HETATM    1  N   UNL     1       6.984  31.338  61.190  1.00  0.00    -0.321 N 
HETATM    2  C   UNL     1       7.727  31.712  60.085  1.00  0.00     0.280 C 
HETATM    3  O   UNL     1       8.448  32.700  60.012  1.00  0.00    -0.265 OA
HETATM    4  H   UNL     1       6.463  30.474  61.076  1.00  0.00     0.169 HD
ENDROOT
BRANCH   1   5
HETATM    5  C   UNL     1       6.834  32.019  62.412  1.00  0.00     0.035 A 
HETATM    6  C   UNL     1       7.902  32.476  63.187  1.00  0.00     0.030 A 
HETATM    7  C   UNL     1       7.671  33.185  64.373  1.00  0.00     0.019 A 
HETATM    8  C   UNL     1       6.363  33.445  64.794  1.00  0.00     0.032 A 
HETATM    9  C   UNL     1       5.291  32.961  64.041  1.00  0.00     0.019 A 
HETATM   10  C   UNL     1       5.526  32.258  62.854  1.00  0.00     0.030 A 
BRANCH   8  11
HETATM   11  C   UNL     1       6.075  34.216  66.032  1.00  0.00     0.251 C 
HETATM   12  N   UNL     1       6.921  33.991  67.100  1.00  0.00    -0.361 N 
HETATM   13  C   UNL     1       6.802  34.774  68.303  1.00  0.00     0.149 C 
HETATM   14  H   UNL     1       7.787  33.497  66.939  1.00  0.00     0.162 HD
HETATM   15  O   UNL     1       5.159  35.030  66.052  1.00  0.00    -0.268 OA
ENDBRANCH   8  11
ENDBRANCH   1   5
BRANCH   2  16
HETATM   16  C   UNL     1       7.563  30.799  58.967  1.00  0.00     0.144 A 
HETATM   17  O   UNL     1       8.198  29.583  58.991  1.00  0.00    -0.304 OA
HETATM   18  C   UNL     1       7.847  28.925  57.851  1.00  0.00     0.086 A 
HETATM   19  C   UNL     1       6.995  29.709  57.082  1.00  0.00     0.001 A 
HETATM   20  C   UNL     1       8.267  27.647  57.493  1.00  0.00     0.038 A 
HETATM   21  C   UNL     1       6.823  30.916  57.805  1.00  0.00     0.057 A 
HETATM   22  C   UNL     1       6.520  29.191  55.864  1.00  0.00     0.014 A 
HETATM   23  C   UNL     1       6.923  27.904  55.478  1.00  0.00     0.001 A 
HETATM   24  C   UNL     1       7.782  27.148  56.280  1.00  0.00     0.003 A 
ENDBRANCH   2  16
TORSDOF 3
ENDMDL
MODEL 7
REMARK VINA RESULT:      -8.4      3.051      3.624
REMARK  3 active torsions:
REMARK  status: ('A' for Active; 'I' for Inactive)
REMARK       I    between atoms: N_2  and  C_3 
REMARK    1  A    between atoms: C_3  and  C_4 
REMARK    2  A    between atoms: C_7  and  N_8 
REMARK       I    between atoms: N_8  and  C_9 
REMARK    3  A    between atoms: C_9  and  C_10 
ROOT
HETATM    1  N   UNL     1       5.769  26.356  54.972  1.00  0.00    -0.321 N 
HETATM    2  C   UNL     1       6.928  26.169  54.239  1.00  0.00     0.280 C 
HETATM    3  O   UNL     1       7.596  27.058  53.722  1.00  0.00    -0.265 OA
HETATM    4  H   UNL     1       5.364  25.504  55.345  1.00  0.00     0.169 HD
ENDROOT
BRANCH   1   5
HETATM    5  C   UNL     1       5.078  27.556  55.221  1.00  0.00     0.035 A 
HETATM    6  C   UNL     1       5.043  28.192  56.463  1.00  0.00     0.030 A 
HETATM    7  C   UNL     1       4.366  29.409  56.623  1.00  0.00     0.019 A 
HETATM    8  C   UNL     1       3.719  30.001  55.535  1.00  0.00     0.032 A 
HETATM    9  C   UNL     1       3.723  29.353  54.297  1.00  0.00     0.019 A 
HETATM   10  C   UNL     1       4.404  28.140  54.142  1.00  0.00     0.030 A 
BRANCH   8  11
HETATM   11  C   UNL     1       3.013  31.305  55.655  1.00  0.00     0.251 C 
HETATM   12  N   UNL     1       2.412  31.779  54.506  1.00  0.00    -0.361 N 
HETATM   13  C   UNL     1       1.603  32.969  54.543  1.00  0.00     0.149 C 
HETATM   14  H   UNL     1       2.297  31.151  53.722  1.00  0.00     0.162 HD
HETATM   15  O   UNL     1       2.950  31.875  56.738  1.00  0.00    -0.268 OA
ENDBRANCH   8  11
ENDBRANCH   1   5
BRANCH   2  16
HETATM   16  C   UNL     1       7.294  24.769  54.120  1.00  0.00     0.144 A 
HETATM   17  O   UNL     1       7.297  23.975  55.240  1.00  0.00    -0.304 OA
HETATM   18  C   UNL     1       7.639  22.719  54.840  1.00  0.00     0.086 A 
HETATM   19  C   UNL     1       7.867  22.692  53.469  1.00  0.00     0.001 A 
HETATM   20  C   UNL     1       7.745  21.608  55.671  1.00  0.00     0.038 A 
HETATM   21  C   UNL     1       7.649  24.017  53.015  1.00  0.00     0.057 A 
HETATM   22  C   UNL     1       8.228  21.471  52.871  1.00  0.00     0.014 A 
HETATM   23  C   UNL     1       8.339  20.332  53.683  1.00  0.00     0.001 A 
HETATM   24  C   UNL     1       8.102  20.402  55.058  1.00  0.00     0.003 A 
ENDBRANCH   2  16
TORSDOF 3
ENDMDL
MODEL 8
REMARK VINA RESULT:      -8.1      4.674      5.654
REMARK  3 active torsions:
REMARK  status: ('A' for Active; 'I' for Inactive)
REMARK       I    between atoms: N_2  and  C_3 
REMARK    1  A    between atoms: C_3  and  C_4 
REMARK    2  A    between atoms: C_7  and  N_8 
REMARK       I    between atoms: N_8  and  C_9 
REMARK    3  A    between atoms: C_9  and  C_10 
ROOT
HETATM    1  N   UNL     1       5.740  25.618  52.703  1.00  0.00    -0.321 N 
HETATM    2  C   UNL     1       6.891  25.573  53.470  1.00  0.00     0.280 C 
HETATM    3  O   UNL     1       7.494  26.547  53.907  1.00  0.00    -0.265 OA
HETATM    4  H   UNL     1       5.367  24.708  52.450  1.00  0.00     0.169 HD
ENDROOT
BRANCH   1   5
HETATM    5  C   UNL     1       5.064  26.747  52.208  1.00  0.00     0.035 A 
HETATM    6  C   UNL     1       5.109  27.162  50.875  1.00  0.00     0.030 A 
HETATM    7  C   UNL     1       4.373  28.275  50.449  1.00  0.00     0.019 A 
HETATM    8  C   UNL     1       3.582  28.985  51.357  1.00  0.00     0.032 A 
HETATM    9  C   UNL     1       3.559  28.595  52.698  1.00  0.00     0.019 A 
HETATM   10  C   UNL     1       4.292  27.479  53.118  1.00  0.00     0.030 A 
BRANCH   8  11
HETATM   11  C   UNL     1       2.764  30.155  50.940  1.00  0.00     0.251 C 
HETATM   12  N   UNL     1       2.476  31.077  51.926  1.00  0.00    -0.361 N 
HETATM   13  C   UNL     1       1.795  32.304  51.601  1.00  0.00     0.149 C 
HETATM   14  H   UNL     1       2.986  31.034  52.797  1.00  0.00     0.162 HD
HETATM   15  O   UNL     1       2.423  30.283  49.770  1.00  0.00    -0.268 OA
ENDBRANCH   8  11
ENDBRANCH   1   5
BRANCH   2  16
HETATM   16  C   UNL     1       7.350  24.217  53.711  1.00  0.00     0.144 A 
HETATM   17  O   UNL     1       7.364  23.728  54.993  1.00  0.00    -0.304 OA
HETATM   18  C   UNL     1       7.800  22.440  54.926  1.00  0.00     0.086 A 
HETATM   19  C   UNL     1       8.077  22.090  53.610  1.00  0.00     0.001 A 
HETATM   20  C   UNL     1       7.947  21.579  56.010  1.00  0.00     0.038 A 
HETATM   21  C   UNL     1       7.791  23.242  52.836  1.00  0.00     0.057 A 
HETATM   22  C   UNL     1       8.536  20.788  53.343  1.00  0.00     0.014 A 
HETATM   23  C   UNL     1       8.691  19.896  54.415  1.00  0.00     0.001 A 
HETATM   24  C   UNL     1       8.401  20.287  55.724  1.00  0.00     0.003 A 
ENDBRANCH   2  16
TORSDOF 3
ENDMDL
MODEL 9
REMARK VINA RESULT:      -8.1      6.327      9.046
REMARK  3 active torsions:
REMARK  status: ('A' for Active; 'I' for Inactive)
REMARK       I    between atoms: N_2  and  C_3 
REMARK    1  A    between atoms: C_3  and  C_4 
REMARK    2  A    between atoms: C_7  and  N_8 
REMARK       I    between atoms: N_8  and  C_9 
REMARK    3  A    between atoms: C_9  and  C_10 
ROOT
HETATM    1  N   UNL     1       5.221  25.966  51.111  1.00  0.00    -0.321 N 
HETATM    2  C   UNL     1       5.120  27.334  50.927  1.00  0.00     0.280 C 
HETATM    3  O   UNL     1       5.759  28.184  51.537  1.00  0.00    -0.265 OA
HETATM    4  H   UNL     1       4.630  25.414  50.498  1.00  0.00     0.169 HD
ENDROOT
BRANCH   1   5
HETATM    5  C   UNL     1       5.996  25.267  52.053  1.00  0.00     0.035 A 
HETATM    6  C   UNL     1       7.324  24.886  51.843  1.00  0.00     0.030 A 
HETATM    7  C   UNL     1       8.044  24.227  52.848  1.00  0.00     0.019 A 
HETATM    8  C   UNL     1       7.441  23.946  54.077  1.00  0.00     0.032 A 
HETATM    9  C   UNL     1       6.103  24.295  54.281  1.00  0.00     0.019 A 
HETATM   10  C   UNL     1       5.389  24.957  53.276  1.00  0.00     0.030 A 
BRANCH   8  11
HETATM   11  C   UNL     1       8.179  23.273  55.179  1.00  0.00     0.251 C 
HETATM   12  N   UNL     1       7.725  22.020  55.539  1.00  0.00    -0.361 N 
HETATM   13  C   UNL     1       8.441  21.235  56.510  1.00  0.00     0.149 C 
HETATM   14  H   UNL     1       7.077  21.543  54.927  1.00  0.00     0.162 HD
HETATM   15  O   UNL     1       9.157  23.811  55.685  1.00  0.00    -0.268 OA
ENDBRANCH   8  11
ENDBRANCH   1   5
BRANCH   2  16
HETATM   16  C   UNL     1       4.142  27.691  49.915  1.00  0.00     0.144 A 
HETATM   17  O   UNL     1       3.567  26.704  49.154  1.00  0.00    -0.304 OA
HETATM   18  C   UNL     1       2.675  27.308  48.322  1.00  0.00     0.086 A 
HETATM   19  C   UNL     1       2.671  28.682  48.529  1.00  0.00     0.001 A 
HETATM   20  C   UNL     1       1.868  26.657  47.392  1.00  0.00     0.038 A 
HETATM   21  C   UNL     1       3.623  28.921  49.552  1.00  0.00     0.057 A 
HETATM   22  C   UNL     1       1.803  29.477  47.759  1.00  0.00     0.014 A 
HETATM   23  C   UNL     1       0.975  28.848  46.817  1.00  0.00     0.001 A 
HETATM   24  C   UNL     1       1.009  27.463  46.638  1.00  0.00     0.003 A 
ENDBRANCH   2  16
TORSDOF 3
ENDMDL
MODEL 10
REMARK VINA RESULT:      -8.0      3.392     10.018
REMARK  3 active torsions:
REMARK  status: ('A' for Active; 'I' for Inactive)
REMARK       I    between atoms: N_2  and  C_3 
REMARK    1  A    between atoms: C_3  and  C_4 
REMARK    2  A    between atoms: C_7  and  N_8 
REMARK       I    between atoms: N_8  and  C_9 
REMARK    3  A    between atoms: C_9  and  C_10 
ROOT
HETATM    1  N   UNL     1       6.866  30.498  58.739  1.00  0.00    -0.321 N 
HETATM    2  C   UNL     1       6.601  31.847  58.903  1.00  0.00     0.280 C 
HETATM    3  O   UNL     1       6.225  32.611  58.021  1.00  0.00    -0.265 OA
HETATM    4  H   UNL     1       7.145  30.017  59.588  1.00  0.00     0.169 HD
ENDROOT
BRANCH   1   5
HETATM    5  C   UNL     1       6.836  29.741  57.554  1.00  0.00     0.035 A 
HETATM    6  C   UNL     1       5.667  29.233  56.982  1.00  0.00     0.030 A 
HETATM    7  C   UNL     1       5.714  28.522  55.776  1.00  0.00     0.019 A 
HETATM    8  C   UNL     1       6.936  28.314  55.129  1.00  0.00     0.032 A 
HETATM    9  C   UNL     1       8.112  28.791  55.713  1.00  0.00     0.019 A 
HETATM   10  C   UNL     1       8.060  29.505  56.916  1.00  0.00     0.030 A 
BRANCH   8  11
HETATM   11  C   UNL     1       7.026  27.588  53.834  1.00  0.00     0.251 C 
HETATM   12  N   UNL     1       7.641  26.353  53.871  1.00  0.00    -0.361 N 
HETATM   13  C   UNL     1       7.673  25.518  52.698  1.00  0.00     0.149 C 
HETATM   14  H   UNL     1       7.805  25.918  54.768  1.00  0.00     0.162 HD
HETATM   15  O   UNL     1       6.531  28.070  52.821  1.00  0.00    -0.268 OA
ENDBRANCH   8  11
ENDBRANCH   1   5
BRANCH   2  16
HETATM   16  C   UNL     1       6.828  32.299  60.264  1.00  0.00     0.144 A 
HETATM   17  O   UNL     1       6.060  33.316  60.773  1.00  0.00    -0.304 OA
HETATM   18  C   UNL     1       6.457  33.511  62.061  1.00  0.00     0.086 A 
HETATM   19  C   UNL     1       7.483  32.634  62.391  1.00  0.00     0.001 A 
HETATM   20  C   UNL     1       5.917  34.447  62.940  1.00  0.00     0.038 A 
HETATM   21  C   UNL     1       7.720  31.863  61.226  1.00  0.00     0.057 A 
HETATM   22  C   UNL     1       8.021  32.685  63.689  1.00  0.00     0.014 A 
HETATM   23  C   UNL     1       7.496  33.615  64.598  1.00  0.00     0.001 A 
HETATM   24  C   UNL     1       6.463  34.480  64.228  1.00  0.00     0.003 A 
ENDBRANCH   2  16
TORSDOF 3
ENDMDL
