MODEL 1
REMARK VINA RESULT:      -9.4      0.000      0.000
REMARK  6 active torsions:
REMARK  status: ('A' for Active; 'I' for Inactive)
REMARK    1  A    between atoms: C_3  and  N_4 
REMARK       I    between atoms: N_4  and  C_5 
REMARK       I    between atoms: C_5  and  N_6 
REMARK    2  A    between atoms: N_6  and  C_7 
REMARK    3  A    between atoms: C_7  and  C_8 
REMARK    4  A    between atoms: C_10  and  C_11 
REMARK       I    between atoms: C_11  and  N_12 
REMARK    5  A    between atoms: N_12  and  C_13 
REMARK    6  A    between atoms: C_13  and  C_14 
ROOT
HETATM    1  C   UNL     1       8.437  28.620  57.440  1.00  0.00    -0.040 A 
HETATM    2  C   UNL     1       8.168  29.422  58.560  1.00  0.00     0.026 A 
HETATM    3  C   UNL     1       8.986  30.513  58.874  1.00  0.00     0.032 A 
HETATM    4  C   UNL     1      10.110  30.781  58.086  1.00  0.00     0.017 A 
HETATM    5  C   UNL     1      10.386  29.989  56.970  1.00  0.00     0.002 A 
HETATM    6  C   UNL     1       9.548  28.922  56.641  1.00  0.00     0.009 A 
ENDROOT
BRANCH   1   7
HETATM    7  C   UNL     1       7.512  27.480  57.095  1.00  0.00     0.162 C 
BRANCH   7   8
HETATM    8  N   UNL     1       8.230  26.293  56.676  1.00  0.00    -0.339 N 
HETATM    9  C   UNL     1       7.625  25.357  55.856  1.00  0.00     0.321 C 
HETATM   10  N   UNL     1       8.473  24.294  55.650  1.00  0.00    -0.307 N 
HETATM   11  O   UNL     1       6.511  25.514  55.379  1.00  0.00    -0.247 OA
HETATM   12  H   UNL     1       9.444  24.561  55.735  1.00  0.00     0.170 HD
HETATM   13  H   UNL     1       8.857  25.899  57.361  1.00  0.00     0.164 HD
BRANCH  10  14
HETATM   14  C   UNL     1       8.230  23.084  54.957  1.00  0.00     0.059 A 
HETATM   15  C   UNL     1       8.043  22.913  53.577  1.00  0.00    -0.032 A 
HETATM   16  C   UNL     1       8.020  24.014  52.558  1.00  0.00     0.050 C 
HETATM   17  C   UNL     1       7.843  21.605  53.091  1.00  0.00     0.028 A 
HETATM   18  C   UNL     1       7.775  20.541  53.974  1.00  0.00     0.117 A 
HETATM   19  N   UNL     1       7.892  20.677  55.306  1.00  0.00    -0.271 NA
HETATM   20  C   UNL     1       8.115  21.935  55.754  1.00  0.00     0.146 A 
ENDBRANCH  10  14
ENDBRANCH   7   8
ENDBRANCH   1   7
BRANCH   3  21
HETATM   21  C   UNL     1       8.699  31.392  60.040  1.00  0.00     0.252 C 
HETATM   22  N   UNL     1       7.883  30.866  61.012  1.00  0.00    -0.351 N 
HETATM   23  H   UNL     1       7.480  29.940  60.919  1.00  0.00     0.163 HD
HETATM   24  O   UNL     1       9.166  32.525  60.092  1.00  0.00    -0.268 OA
BRANCH  22  25
HETATM   25  C   UNL     1       7.617  31.581  62.236  1.00  0.00     0.187 C 
BRANCH  25  26
HETATM   26  C   UNL     1       6.349  32.342  62.097  1.00  0.00     0.070 A 
HETATM   27  O   UNL     1       5.246  31.835  62.727  1.00  0.00    -0.325 OA
HETATM   28  C   UNL     1       4.213  32.673  62.458  1.00  0.00     0.142 A 
HETATM   29  C   UNL     1       4.634  33.722  61.676  1.00  0.00     0.027 A 
HETATM   30  C   UNL     1       6.015  33.510  61.442  1.00  0.00     0.036 A 
ENDBRANCH  25  26
ENDBRANCH  22  25
ENDBRANCH   3  21
TORSDOF 6
ENDMDL
MODEL 2
REMARK VINA RESULT:      -9.2      1.530      1.855
REMARK  6 active torsions:
REMARK  status: ('A' for Active; 'I' for Inactive)
REMARK    1  A    between atoms: C_3  and  N_4 
REMARK       I    between atoms: N_4  and  C_5 
REMARK       I    between atoms: C_5  and  N_6 
REMARK    2  A    between atoms: N_6  and  C_7 
REMARK    3  A    between atoms: C_7  and  C_8 
REMARK    4  A    between atoms: C_10  and  C_11 
REMARK       I    between atoms: C_11  and  N_12 
REMARK    5  A    between atoms: N_12  and  C_13 
REMARK    6  A    between atoms: C_13  and  C_14 
ROOT
HETATM    1  C   UNL     1       7.478  28.636  57.156  1.00  0.00    -0.040 A 
HETATM    2  C   UNL     1       6.733  29.662  57.759  1.00  0.00     0.026 A 
HETATM    3  C   UNL     1       7.372  30.742  58.380  1.00  0.00     0.032 A 
HETATM    4  C   UNL     1       8.768  30.776  58.437  1.00  0.00     0.017 A 
HETATM    5  C   UNL     1       9.518  29.761  57.841  1.00  0.00     0.002 A 
HETATM    6  C   UNL     1       8.877  28.703  57.194  1.00  0.00     0.009 A 
ENDROOT
BRANCH   1   7
HETATM    7  C   UNL     1       6.768  27.509  56.451  1.00  0.00     0.162 C 
BRANCH   7   8
HETATM    8  N   UNL     1       7.671  26.445  56.060  1.00  0.00    -0.339 N 
HETATM    9  C   UNL     1       7.209  25.148  55.914  1.00  0.00     0.321 C 
HETATM   10  N   UNL     1       8.254  24.309  55.604  1.00  0.00    -0.307 N 
HETATM   11  O   UNL     1       6.030  24.848  56.018  1.00  0.00    -0.247 OA
HETATM   12  H   UNL     1       9.005  24.795  55.133  1.00  0.00     0.170 HD
HETATM   13  H   UNL     1       8.607  26.512  56.428  1.00  0.00     0.164 HD
BRANCH  10  14
HETATM   14  C   UNL     1       8.251  22.902  55.459  1.00  0.00     0.059 A 
HETATM   15  C   UNL     1       8.051  22.165  54.282  1.00  0.00    -0.032 A 
HETATM   16  C   UNL     1       7.749  22.746  52.932  1.00  0.00     0.050 C 
HETATM   17  C   UNL     1       8.119  20.759  54.359  1.00  0.00     0.028 A 
HETATM   18  C   UNL     1       8.319  20.141  55.582  1.00  0.00     0.117 A 
HETATM   19  N   UNL     1       8.457  20.814  56.736  1.00  0.00    -0.271 NA
HETATM   20  C   UNL     1       8.420  22.164  56.641  1.00  0.00     0.146 A 
ENDBRANCH  10  14
ENDBRANCH   7   8
ENDBRANCH   1   7
BRANCH   3  21
HETATM   21  C   UNL     1       6.598  31.853  58.998  1.00  0.00     0.252 C 
HETATM   22  N   UNL     1       6.505  31.841  60.368  1.00  0.00    -0.351 N 
HETATM   23  H   UNL     1       6.920  31.098  60.919  1.00  0.00     0.163 HD
HETATM   24  O   UNL     1       6.070  32.706  58.293  1.00  0.00    -0.268 OA
BRANCH  22  25
HETATM   25  C   UNL     1       5.871  32.919  61.087  1.00  0.00     0.187 C 
BRANCH  25  26
HETATM   26  C   UNL     1       6.505  33.062  62.422  1.00  0.00     0.070 A 
HETATM   27  O   UNL     1       5.822  33.782  63.362  1.00  0.00    -0.325 OA
HETATM   28  C   UNL     1       6.582  33.794  64.486  1.00  0.00     0.142 A 
HETATM   29  C   UNL     1       7.741  33.080  64.291  1.00  0.00     0.027 A 
HETATM   30  C   UNL     1       7.693  32.606  62.958  1.00  0.00     0.036 A 
ENDBRANCH  25  26
ENDBRANCH  22  25
ENDBRANCH   3  21
TORSDOF 6
ENDMDL
MODEL 3
REMARK VINA RESULT:      -9.2      1.845     10.625
REMARK  6 active torsions:
REMARK  status: ('A' for Active; 'I' for Inactive)
REMARK    1  A    between atoms: C_3  and  N_4 
REMARK       I    between atoms: N_4  and  C_5 
REMARK       I    between atoms: C_5  and  N_6 
REMARK    2  A    between atoms: N_6  and  C_7 
REMARK    3  A    between atoms: C_7  and  C_8 
REMARK    4  A    between atoms: C_10  and  C_11 
REMARK       I    between atoms: C_11  and  N_12 
REMARK    5  A    between atoms: N_12  and  C_13 
REMARK    6  A    between atoms: C_13  and  C_14 
ROOT
HETATM    1  C   UNL     1       8.365  28.690  57.116  1.00  0.00    -0.040 A 
HETATM    2  C   UNL     1       8.115  27.331  57.362  1.00  0.00     0.026 A 
HETATM    3  C   UNL     1       7.660  26.489  56.341  1.00  0.00     0.032 A 
HETATM    4  C   UNL     1       7.412  27.018  55.071  1.00  0.00     0.017 A 
HETATM    5  C   UNL     1       7.658  28.369  54.816  1.00  0.00     0.002 A 
HETATM    6  C   UNL     1       8.143  29.197  55.829  1.00  0.00     0.009 A 
ENDROOT
BRANCH   1   7
HETATM    7  C   UNL     1       8.901  29.565  58.220  1.00  0.00     0.162 C 
BRANCH   7   8
HETATM    8  N   UNL     1       7.871  29.965  59.158  1.00  0.00    -0.339 N 
HETATM    9  C   UNL     1       7.742  31.289  59.540  1.00  0.00     0.321 C 
HETATM   10  N   UNL     1       6.746  31.412  60.480  1.00  0.00    -0.307 N 
HETATM   11  O   UNL     1       8.414  32.187  59.056  1.00  0.00    -0.247 OA
HETATM   12  H   UNL     1       6.051  30.684  60.395  1.00  0.00     0.170 HD
HETATM   13  H   UNL     1       7.669  29.302  59.890  1.00  0.00     0.164 HD
BRANCH  10  14
HETATM   14  C   UNL     1       6.343  32.560  61.203  1.00  0.00     0.059 A 
HETATM   15  C   UNL     1       6.900  33.062  62.388  1.00  0.00    -0.032 A 
HETATM   16  C   UNL     1       8.025  32.432  63.156  1.00  0.00     0.050 C 
HETATM   17  C   UNL     1       6.359  34.247  62.927  1.00  0.00     0.028 A 
HETATM   18  C   UNL     1       5.270  34.849  62.321  1.00  0.00     0.117 A 
HETATM   19  N   UNL     1       4.677  34.364  61.217  1.00  0.00    -0.271 NA
HETATM   20  C   UNL     1       5.228  33.243  60.695  1.00  0.00     0.146 A 
ENDBRANCH  10  14
ENDBRANCH   7   8
ENDBRANCH   1   7
BRANCH   3  21
HETATM   21  C   UNL     1       7.418  25.040  56.576  1.00  0.00     0.252 C 
HETATM   22  N   UNL     1       8.459  24.193  56.280  1.00  0.00    -0.351 N 
HETATM   23  H   UNL     1       9.330  24.541  55.898  1.00  0.00     0.163 HD
HETATM   24  O   UNL     1       6.331  24.653  56.994  1.00  0.00    -0.268 OA
BRANCH  22  25
HETATM   25  C   UNL     1       8.381  22.781  56.563  1.00  0.00     0.187 C 
BRANCH  25  26
HETATM   26  C   UNL     1       8.280  22.026  55.288  1.00  0.00     0.070 A 
HETATM   27  O   UNL     1       8.833  20.777  55.258  1.00  0.00    -0.325 OA
HETATM   28  C   UNL     1       8.639  20.284  54.009  1.00  0.00     0.142 A 
HETATM   29  C   UNL     1       7.956  21.192  53.234  1.00  0.00     0.027 A 
HETATM   30  C   UNL     1       7.723  22.318  54.059  1.00  0.00     0.036 A 
ENDBRANCH  25  26
ENDBRANCH  22  25
ENDBRANCH   3  21
TORSDOF 6
ENDMDL
MODEL 4
REMARK VINA RESULT:      -9.0      1.827      2.452
REMARK  6 active torsions:
REMARK  status: ('A' for Active; 'I' for Inactive)
REMARK    1  A    between atoms: C_3  and  N_4 
REMARK       I    between atoms: N_4  and  C_5 
REMARK       I    between atoms: C_5  and  N_6 
REMARK    2  A    between atoms: N_6  and  C_7 
REMARK    3  A    between atoms: C_7  and  C_8 
REMARK    4  A    between atoms: C_10  and  C_11 
REMARK       I    between atoms: C_11  and  N_12 
REMARK    5  A    between atoms: N_12  and  C_13 
REMARK    6  A    between atoms: C_13  and  C_14 
ROOT
HETATM    1  C   UNL     1       6.907  27.550  57.423  1.00  0.00    -0.040 A 
HETATM    2  C   UNL     1       7.294  28.746  58.046  1.00  0.00     0.026 A 
HETATM    3  C   UNL     1       6.616  29.943  57.783  1.00  0.00     0.032 A 
HETATM    4  C   UNL     1       5.570  29.953  56.856  1.00  0.00     0.017 A 
HETATM    5  C   UNL     1       5.179  28.768  56.230  1.00  0.00     0.002 A 
HETATM    6  C   UNL     1       5.835  27.571  56.521  1.00  0.00     0.009 A 
ENDROOT
BRANCH   1   7
HETATM    7  C   UNL     1       7.621  26.265  57.760  1.00  0.00     0.162 C 
BRANCH   7   8
HETATM    8  N   UNL     1       7.107  25.135  57.011  1.00  0.00    -0.339 N 
HETATM    9  C   UNL     1       7.973  24.241  56.406  1.00  0.00     0.321 C 
HETATM   10  N   UNL     1       7.259  23.297  55.704  1.00  0.00    -0.307 N 
HETATM   11  O   UNL     1       9.186  24.300  56.535  1.00  0.00    -0.247 OA
HETATM   12  H   UNL     1       6.334  23.157  56.088  1.00  0.00     0.170 HD
HETATM   13  H   UNL     1       6.259  25.305  56.493  1.00  0.00     0.164 HD
BRANCH  10  14
HETATM   14  C   UNL     1       7.738  22.260  54.869  1.00  0.00     0.059 A 
HETATM   15  C   UNL     1       7.999  22.323  53.492  1.00  0.00    -0.032 A 
HETATM   16  C   UNL     1       7.769  23.520  52.617  1.00  0.00     0.050 C 
HETATM   17  C   UNL     1       8.505  21.170  52.858  1.00  0.00     0.028 A 
HETATM   18  C   UNL     1       8.674  20.001  53.580  1.00  0.00     0.117 A 
HETATM   19  N   UNL     1       8.379  19.890  54.886  1.00  0.00    -0.271 NA
HETATM   20  C   UNL     1       7.925  21.014  55.487  1.00  0.00     0.146 A 
ENDBRANCH  10  14
ENDBRANCH   7   8
ENDBRANCH   1   7
BRANCH   3  21
HETATM   21  C   UNL     1       6.992  31.215  58.457  1.00  0.00     0.252 C 
HETATM   22  N   UNL     1       7.951  31.124  59.437  1.00  0.00    -0.351 N 
HETATM   23  H   UNL     1       8.355  30.231  59.699  1.00  0.00     0.163 HD
HETATM   24  O   UNL     1       6.445  32.267  58.145  1.00  0.00    -0.268 OA
BRANCH  22  25
HETATM   25  C   UNL     1       8.473  32.300  60.089  1.00  0.00     0.187 C 
BRANCH  25  26
HETATM   26  C   UNL     1       7.920  32.388  61.465  1.00  0.00     0.070 A 
HETATM   27  O   UNL     1       6.563  32.502  61.585  1.00  0.00    -0.325 OA
HETATM   28  C   UNL     1       6.285  32.580  62.910  1.00  0.00     0.142 A 
HETATM   29  C   UNL     1       7.441  32.502  63.651  1.00  0.00     0.027 A 
HETATM   30  C   UNL     1       8.499  32.378  62.718  1.00  0.00     0.036 A 
ENDBRANCH  25  26
ENDBRANCH  22  25
ENDBRANCH   3  21
TORSDOF 6
ENDMDL
MODEL 5
REMARK VINA RESULT:      -8.9      1.993      2.947
REMARK  6 active torsions:
REMARK  status: ('A' for Active; 'I' for Inactive)
REMARK    1  A    between atoms: C_3  and  N_4 
REMARK       I    between atoms: N_4  and  C_5 
REMARK       I    between atoms: C_5  and  N_6 
REMARK    2  A    between atoms: N_6  and  C_7 
REMARK    3  A    between atoms: C_7  and  C_8 
REMARK    4  A    between atoms: C_10  and  C_11 
REMARK       I    between atoms: C_11  and  N_12 
REMARK    5  A    between atoms: N_12  and  C_13 
REMARK    6  A    between atoms: C_13  and  C_14 
ROOT
HETATM    1  C   UNL     1       6.066  28.136  55.150  1.00  0.00    -0.040 A 
HETATM    2  C   UNL     1       7.124  28.414  56.028  1.00  0.00     0.026 A 
HETATM    3  C   UNL     1       6.902  29.114  57.220  1.00  0.00     0.032 A 
HETATM    4  C   UNL     1       5.618  29.579  57.517  1.00  0.00     0.017 A 
HETATM    5  C   UNL     1       4.558  29.309  56.649  1.00  0.00     0.002 A 
HETATM    6  C   UNL     1       4.778  28.581  55.478  1.00  0.00     0.009 A 
ENDROOT
BRANCH   1   7
HETATM    7  C   UNL     1       6.322  27.338  53.896  1.00  0.00     0.162 C 
BRANCH   7   8
HETATM    8  N   UNL     1       7.323  26.308  54.092  1.00  0.00    -0.339 N 
HETATM    9  C   UNL     1       6.951  25.027  54.459  1.00  0.00     0.321 C 
HETATM   10  N   UNL     1       8.070  24.249  54.648  1.00  0.00    -0.307 N 
HETATM   11  O   UNL     1       5.785  24.675  54.553  1.00  0.00    -0.247 OA
HETATM   12  H   UNL     1       8.854  24.572  54.099  1.00  0.00     0.170 HD
HETATM   13  H   UNL     1       8.193  26.619  54.495  1.00  0.00     0.164 HD
BRANCH  10  14
HETATM   14  C   UNL     1       8.156  22.915  55.113  1.00  0.00     0.059 A 
HETATM   15  C   UNL     1       8.090  21.739  54.350  1.00  0.00    -0.032 A 
HETATM   16  C   UNL     1       7.861  21.674  52.869  1.00  0.00     0.050 C 
HETATM   17  C   UNL     1       8.231  20.505  55.018  1.00  0.00     0.028 A 
HETATM   18  C   UNL     1       8.369  20.476  56.395  1.00  0.00     0.117 A 
HETATM   19  N   UNL     1       8.379  21.580  57.161  1.00  0.00    -0.271 NA
HETATM   20  C   UNL     1       8.275  22.757  56.502  1.00  0.00     0.146 A 
ENDBRANCH  10  14
ENDBRANCH   7   8
ENDBRANCH   1   7
BRANCH   3  21
HETATM   21  C   UNL     1       8.007  29.391  58.178  1.00  0.00     0.252 C 
HETATM   22  N   UNL     1       7.695  30.189  59.252  1.00  0.00    -0.351 N 
HETATM   23  H   UNL     1       6.768  30.585  59.364  1.00  0.00     0.163 HD
HETATM   24  O   UNL     1       9.127  28.933  57.981  1.00  0.00    -0.268 OA
BRANCH  22  25
HETATM   25  C   UNL     1       8.652  30.443  60.301  1.00  0.00     0.187 C 
BRANCH  25  26
HETATM   26  C   UNL     1       8.092  31.440  61.249  1.00  0.00     0.070 A 
HETATM   27  O   UNL     1       7.223  32.364  60.740  1.00  0.00    -0.325 OA
HETATM   28  C   UNL     1       6.852  33.171  61.765  1.00  0.00     0.142 A 
HETATM   29  C   UNL     1       7.458  32.774  62.934  1.00  0.00     0.027 A 
HETATM   30  C   UNL     1       8.259  31.655  62.602  1.00  0.00     0.036 A 
ENDBRANCH  25  26
ENDBRANCH  22  25
ENDBRANCH   3  21
TORSDOF 6
ENDMDL
MODEL 6
REMARK VINA RESULT:      -8.9      1.935     10.368
REMARK  6 active torsions:
REMARK  status: ('A' for Active; 'I' for Inactive)
REMARK    1  A    between atoms: C_3  and  N_4 
REMARK       I    between atoms: N_4  and  C_5 
REMARK       I    between atoms: C_5  and  N_6 
REMARK    2  A    between atoms: N_6  and  C_7 
REMARK    3  A    between atoms: C_7  and  C_8 
REMARK    4  A    between atoms: C_10  and  C_11 
REMARK       I    between atoms: C_11  and  N_12 
REMARK    5  A    between atoms: N_12  and  C_13 
REMARK    6  A    between atoms: C_13  and  C_14 
ROOT
HETATM    1  C   UNL     1       9.251  30.237  58.790  1.00  0.00    -0.040 A 
HETATM    2  C   UNL     1       8.231  29.346  58.420  1.00  0.00     0.026 A 
HETATM    3  C   UNL     1       8.213  28.766  57.147  1.00  0.00     0.032 A 
HETATM    4  C   UNL     1       9.198  29.113  56.217  1.00  0.00     0.017 A 
HETATM    5  C   UNL     1      10.216  29.998  56.575  1.00  0.00     0.002 A 
HETATM    6  C   UNL     1      10.250  30.548  57.858  1.00  0.00     0.009 A 
ENDROOT
BRANCH   1   7
HETATM    7  C   UNL     1       9.277  30.810  60.184  1.00  0.00     0.162 C 
BRANCH   7   8
HETATM    8  N   UNL     1       7.980  30.755  60.828  1.00  0.00    -0.339 N 
HETATM    9  C   UNL     1       7.401  31.902  61.344  1.00  0.00     0.321 C 
HETATM   10  N   UNL     1       6.211  31.592  61.960  1.00  0.00    -0.307 N 
HETATM   11  O   UNL     1       7.896  33.011  61.213  1.00  0.00    -0.247 OA
HETATM   12  H   UNL     1       5.787  30.762  61.571  1.00  0.00     0.170 HD
HETATM   13  H   UNL     1       7.795  29.922  61.365  1.00  0.00     0.164 HD
BRANCH  10  14
HETATM   14  C   UNL     1       5.343  32.437  62.693  1.00  0.00     0.059 A 
HETATM   15  C   UNL     1       5.639  33.164  63.855  1.00  0.00    -0.032 A 
HETATM   16  C   UNL     1       6.951  33.144  64.584  1.00  0.00     0.050 C 
HETATM   17  C   UNL     1       4.627  33.973  64.409  1.00  0.00     0.028 A 
HETATM   18  C   UNL     1       3.364  33.988  63.841  1.00  0.00     0.117 A 
HETATM   19  N   UNL     1       3.031  33.260  62.761  1.00  0.00    -0.271 NA
HETATM   20  C   UNL     1       4.023  32.513  62.224  1.00  0.00     0.146 A 
ENDBRANCH  10  14
ENDBRANCH   7   8
ENDBRANCH   1   7
BRANCH   3  21
HETATM   21  C   UNL     1       7.156  27.797  56.748  1.00  0.00     0.252 C 
HETATM   22  N   UNL     1       7.547  26.784  55.905  1.00  0.00    -0.351 N 
HETATM   23  H   UNL     1       8.497  26.724  55.557  1.00  0.00     0.163 HD
HETATM   24  O   UNL     1       6.006  27.933  57.151  1.00  0.00    -0.268 OA
BRANCH  22  25
HETATM   25  C   UNL     1       6.640  25.727  55.532  1.00  0.00     0.187 C 
BRANCH  25  26
HETATM   26  C   UNL     1       7.159  25.033  54.326  1.00  0.00     0.070 A 
HETATM   27  O   UNL     1       7.465  25.810  53.243  1.00  0.00    -0.325 OA
HETATM   28  C   UNL     1       7.903  24.978  52.266  1.00  0.00     0.142 A 
HETATM   29  C   UNL     1       7.899  23.675  52.704  1.00  0.00     0.027 A 
HETATM   30  C   UNL     1       7.419  23.709  54.036  1.00  0.00     0.036 A 
ENDBRANCH  25  26
ENDBRANCH  22  25
ENDBRANCH   3  21
TORSDOF 6
ENDMDL
MODEL 7
REMARK VINA RESULT:      -8.8      4.027      7.086
REMARK  6 active torsions:
REMARK  status: ('A' for Active; 'I' for Inactive)
REMARK    1  A    between atoms: C_3  and  N_4 
REMARK       I    between atoms: N_4  and  C_5 
REMARK       I    between atoms: C_5  and  N_6 
REMARK    2  A    between atoms: N_6  and  C_7 
REMARK    3  A    between atoms: C_7  and  C_8 
REMARK    4  A    between atoms: C_10  and  C_11 
REMARK       I    between atoms: C_11  and  N_12 
REMARK    5  A    between atoms: N_12  and  C_13 
REMARK    6  A    between atoms: C_13  and  C_14 
ROOT
HETATM    1  C   UNL     1       7.785  24.038  53.837  1.00  0.00    -0.040 A 
HETATM    2  C   UNL     1       7.680  25.168  54.663  1.00  0.00     0.026 A 
HETATM    3  C   UNL     1       7.838  25.059  56.050  1.00  0.00     0.032 A 
HETATM    4  C   UNL     1       8.060  23.803  56.622  1.00  0.00     0.017 A 
HETATM    5  C   UNL     1       8.166  22.673  55.809  1.00  0.00     0.002 A 
HETATM    6  C   UNL     1       8.041  22.791  54.423  1.00  0.00     0.009 A 
ENDROOT
BRANCH   1   7
HETATM    7  C   UNL     1       7.660  24.189  52.342  1.00  0.00     0.162 C 
BRANCH   7   8
HETATM    8  N   UNL     1       7.215  25.512  51.955  1.00  0.00    -0.339 N 
HETATM    9  C   UNL     1       5.887  25.742  51.637  1.00  0.00     0.321 C 
HETATM   10  N   UNL     1       5.719  27.048  51.240  1.00  0.00    -0.307 N 
HETATM   11  O   UNL     1       5.021  24.888  51.745  1.00  0.00    -0.247 OA
HETATM   12  H   UNL     1       6.411  27.661  51.647  1.00  0.00     0.170 HD
HETATM   13  H   UNL     1       7.870  26.050  51.409  1.00  0.00     0.164 HD
BRANCH  10  14
HETATM   14  C   UNL     1       4.555  27.683  50.745  1.00  0.00     0.059 A 
HETATM   15  C   UNL     1       3.998  27.566  49.463  1.00  0.00    -0.032 A 
HETATM   16  C   UNL     1       4.574  26.762  48.334  1.00  0.00     0.050 C 
HETATM   17  C   UNL     1       2.807  28.269  49.188  1.00  0.00     0.028 A 
HETATM   18  C   UNL     1       2.253  29.094  50.152  1.00  0.00     0.117 A 
HETATM   19  N   UNL     1       2.792  29.274  51.370  1.00  0.00    -0.271 NA
HETATM   20  C   UNL     1       3.917  28.568  51.628  1.00  0.00     0.146 A 
ENDBRANCH  10  14
ENDBRANCH   7   8
ENDBRANCH   1   7
BRANCH   3  21
HETATM   21  C   UNL     1       7.759  26.251  56.938  1.00  0.00     0.252 C 
HETATM   22  N   UNL     1       7.740  27.475  56.314  1.00  0.00    -0.351 N 
HETATM   23  H   UNL     1       7.805  27.554  55.305  1.00  0.00     0.163 HD
HETATM   24  O   UNL     1       7.733  26.115  58.156  1.00  0.00    -0.268 OA
BRANCH  22  25
HETATM   25  C   UNL     1       7.562  28.695  57.061  1.00  0.00     0.187 C 
BRANCH  25  26
HETATM   26  C   UNL     1       8.877  29.365  57.234  1.00  0.00     0.070 A 
HETATM   27  O   UNL     1       8.911  30.475  58.031  1.00  0.00    -0.325 OA
HETATM   28  C   UNL     1      10.191  30.924  58.036  1.00  0.00     0.142 A 
HETATM   29  C   UNL     1      10.989  30.112  57.265  1.00  0.00     0.027 A 
HETATM   30  C   UNL     1      10.141  29.103  56.747  1.00  0.00     0.036 A 
ENDBRANCH  25  26
ENDBRANCH  22  25
ENDBRANCH   3  21
TORSDOF 6
ENDMDL
MODEL 8
REMARK VINA RESULT:      -8.8      2.111     10.675
REMARK  6 active torsions:
REMARK  status: ('A' for Active; 'I' for Inactive)
REMARK    1  A    between atoms: C_3  and  N_4 
REMARK       I    between atoms: N_4  and  C_5 
REMARK       I    between atoms: C_5  and  N_6 
REMARK    2  A    between atoms: N_6  and  C_7 
REMARK    3  A    between atoms: C_7  and  C_8 
REMARK    4  A    between atoms: C_10  and  C_11 
REMARK       I    between atoms: C_11  and  N_12 
REMARK    5  A    between atoms: N_12  and  C_13 
REMARK    6  A    between atoms: C_13  and  C_14 
ROOT
HETATM    1  C   UNL     1       7.238  28.663  56.853  1.00  0.00    -0.040 A 
HETATM    2  C   UNL     1       7.100  27.990  55.628  1.00  0.00     0.026 A 
HETATM    3  C   UNL     1       7.354  26.617  55.532  1.00  0.00     0.032 A 
HETATM    4  C   UNL     1       7.791  25.916  56.660  1.00  0.00     0.017 A 
HETATM    5  C   UNL     1       7.933  26.576  57.882  1.00  0.00     0.002 A 
HETATM    6  C   UNL     1       7.646  27.939  57.981  1.00  0.00     0.009 A 
ENDROOT
BRANCH   1   7
HETATM    7  C   UNL     1       6.911  30.132  56.942  1.00  0.00     0.162 C 
BRANCH   7   8
HETATM    8  N   UNL     1       6.341  30.495  58.224  1.00  0.00    -0.339 N 
HETATM    9  C   UNL     1       7.033  31.323  59.092  1.00  0.00     0.321 C 
HETATM   10  N   UNL     1       6.327  31.470  60.263  1.00  0.00    -0.307 N 
HETATM   11  O   UNL     1       8.094  31.851  58.800  1.00  0.00    -0.247 OA
HETATM   12  H   UNL     1       5.333  31.347  60.126  1.00  0.00     0.170 HD
HETATM   13  H   UNL     1       5.802  29.775  58.680  1.00  0.00     0.164 HD
BRANCH  10  14
HETATM   14  C   UNL     1       6.701  32.149  61.447  1.00  0.00     0.059 A 
HETATM   15  C   UNL     1       7.766  31.843  62.307  1.00  0.00    -0.032 A 
HETATM   16  C   UNL     1       8.702  30.680  62.153  1.00  0.00     0.050 C 
HETATM   17  C   UNL     1       7.980  32.676  63.423  1.00  0.00     0.028 A 
HETATM   18  C   UNL     1       7.115  33.726  63.679  1.00  0.00     0.117 A 
HETATM   19  N   UNL     1       6.052  34.012  62.909  1.00  0.00    -0.271 NA
HETATM   20  C   UNL     1       5.879  33.222  61.824  1.00  0.00     0.146 A 
ENDBRANCH  10  14
ENDBRANCH   7   8
ENDBRANCH   1   7
BRANCH   3  21
HETATM   21  C   UNL     1       7.183  25.882  54.250  1.00  0.00     0.252 C 
HETATM   22  N   UNL     1       7.939  24.744  54.095  1.00  0.00    -0.351 N 
HETATM   23  H   UNL     1       8.594  24.445  54.809  1.00  0.00     0.163 HD
HETATM   24  O   UNL     1       6.417  26.304  53.390  1.00  0.00    -0.268 OA
BRANCH  22  25
HETATM   25  C   UNL     1       7.786  23.892  52.942  1.00  0.00     0.187 C 
BRANCH  25  26
HETATM   26  C   UNL     1       8.077  22.487  53.324  1.00  0.00     0.070 A 
HETATM   27  O   UNL     1       8.550  22.270  54.588  1.00  0.00    -0.325 OA
HETATM   28  C   UNL     1       8.757  20.936  54.714  1.00  0.00     0.142 A 
HETATM   29  C   UNL     1       8.411  20.283  53.554  1.00  0.00     0.027 A 
HETATM   30  C   UNL     1       7.971  21.284  52.655  1.00  0.00     0.036 A 
ENDBRANCH  25  26
ENDBRANCH  22  25
ENDBRANCH   3  21
TORSDOF 6
ENDMDL
MODEL 9
REMARK VINA RESULT:      -8.6      2.218     10.590
REMARK  6 active torsions:
REMARK  status: ('A' for Active; 'I' for Inactive)
REMARK    1  A    between atoms: C_3  and  N_4 
REMARK       I    between atoms: N_4  and  C_5 
REMARK       I    between atoms: C_5  and  N_6 
REMARK    2  A    between atoms: N_6  and  C_7 
REMARK    3  A    between atoms: C_7  and  C_8 
REMARK    4  A    between atoms: C_10  and  C_11 
REMARK       I    between atoms: C_11  and  N_12 
REMARK    5  A    between atoms: N_12  and  C_13 
REMARK    6  A    between atoms: C_13  and  C_14 
ROOT
HETATM    1  C   UNL     1       6.308  29.087  56.954  1.00  0.00    -0.040 A 
HETATM    2  C   UNL     1       7.062  27.996  57.412  1.00  0.00     0.026 A 
HETATM    3  C   UNL     1       6.786  26.697  56.968  1.00  0.00     0.032 A 
HETATM    4  C   UNL     1       5.718  26.481  56.092  1.00  0.00     0.017 A 
HETATM    5  C   UNL     1       4.961  27.560  55.632  1.00  0.00     0.002 A 
HETATM    6  C   UNL     1       5.262  28.858  56.051  1.00  0.00     0.009 A 
ENDROOT
BRANCH   1   7
HETATM    7  C   UNL     1       6.656  30.482  57.409  1.00  0.00     0.162 C 
BRANCH   7   8
HETATM    8  N   UNL     1       6.112  30.789  58.717  1.00  0.00    -0.339 N 
HETATM    9  C   UNL     1       6.743  31.702  59.544  1.00  0.00     0.321 C 
HETATM   10  N   UNL     1       6.083  31.778  60.749  1.00  0.00    -0.307 N 
HETATM   11  O   UNL     1       7.719  32.348  59.198  1.00  0.00    -0.247 OA
HETATM   12  H   UNL     1       5.105  31.538  60.662  1.00  0.00     0.170 HD
HETATM   13  H   UNL     1       5.684  30.016  59.203  1.00  0.00     0.164 HD
BRANCH  10  14
HETATM   14  C   UNL     1       6.433  32.508  61.909  1.00  0.00     0.059 A 
HETATM   15  C   UNL     1       5.913  33.741  62.332  1.00  0.00    -0.032 A 
HETATM   16  C   UNL     1       4.898  34.558  61.588  1.00  0.00     0.050 C 
HETATM   17  C   UNL     1       6.386  34.281  63.545  1.00  0.00     0.028 A 
HETATM   18  C   UNL     1       7.378  33.626  64.254  1.00  0.00     0.117 A 
HETATM   19  N   UNL     1       7.938  32.474  63.849  1.00  0.00    -0.271 NA
HETATM   20  C   UNL     1       7.452  31.953  62.699  1.00  0.00     0.146 A 
ENDBRANCH  10  14
ENDBRANCH   7   8
ENDBRANCH   1   7
BRANCH   3  21
HETATM   21  C   UNL     1       7.594  25.532  57.419  1.00  0.00     0.252 C 
HETATM   22  N   UNL     1       7.472  24.383  56.675  1.00  0.00    -0.351 N 
HETATM   23  H   UNL     1       6.843  24.332  55.882  1.00  0.00     0.163 HD
HETATM   24  O   UNL     1       8.306  25.619  58.413  1.00  0.00    -0.268 OA
BRANCH  22  25
HETATM   25  C   UNL     1       8.281  23.221  56.951  1.00  0.00     0.187 C 
BRANCH  25  26
HETATM   26  C   UNL     1       8.220  22.291  55.795  1.00  0.00     0.070 A 
HETATM   27  O   UNL     1       8.720  22.742  54.605  1.00  0.00    -0.325 OA
HETATM   28  C   UNL     1       8.551  21.747  53.699  1.00  0.00     0.142 A 
HETATM   29  C   UNL     1       7.962  20.653  54.288  1.00  0.00     0.027 A 
HETATM   30  C   UNL     1       7.747  21.003  55.643  1.00  0.00     0.036 A 
ENDBRANCH  25  26
ENDBRANCH  22  25
ENDBRANCH   3  21
TORSDOF 6
ENDMDL
MODEL 10
REMARK VINA RESULT:      -8.4      4.207      8.161
REMARK  6 active torsions:
REMARK  status: ('A' for Active; 'I' for Inactive)
REMARK    1  A    between atoms: C_3  and  N_4 
REMARK       I    between atoms: N_4  and  C_5 
REMARK       I    between atoms: C_5  and  N_6 
REMARK    2  A    between atoms: N_6  and  C_7 
REMARK    3  A    between atoms: C_7  and  C_8 
REMARK    4  A    between atoms: C_10  and  C_11 
REMARK       I    between atoms: C_11  and  N_12 
REMARK    5  A    between atoms: N_12  and  C_13 
REMARK    6  A    between atoms: C_13  and  C_14 
ROOT
HETATM    1  C   UNL     1       5.916  29.255  56.169  1.00  0.00    -0.040 A 
HETATM    2  C   UNL     1       6.371  27.934  56.304  1.00  0.00     0.026 A 
HETATM    3  C   UNL     1       7.328  27.601  57.270  1.00  0.00     0.032 A 
HETATM    4  C   UNL     1       7.869  28.604  58.079  1.00  0.00     0.017 A 
HETATM    5  C   UNL     1       7.424  29.922  57.952  1.00  0.00     0.002 A 
HETATM    6  C   UNL     1       6.444  30.244  57.011  1.00  0.00     0.009 A 
ENDROOT
BRANCH   1   7
HETATM    7  C   UNL     1       4.849  29.580  55.155  1.00  0.00     0.162 C 
BRANCH   7   8
HETATM    8  N   UNL     1       5.335  29.491  53.793  1.00  0.00    -0.339 N 
HETATM    9  C   UNL     1       4.588  28.849  52.820  1.00  0.00     0.321 C 
HETATM   10  N   UNL     1       5.279  28.834  51.631  1.00  0.00    -0.307 N 
HETATM   11  O   UNL     1       3.468  28.408  53.026  1.00  0.00    -0.247 OA
HETATM   12  H   UNL     1       5.925  29.607  51.557  1.00  0.00     0.170 HD
HETATM   13  H   UNL     1       6.332  29.375  53.693  1.00  0.00     0.164 HD
BRANCH  10  14
HETATM   14  C   UNL     1       4.933  28.208  50.409  1.00  0.00     0.059 A 
HETATM   15  C   UNL     1       4.889  26.832  50.137  1.00  0.00    -0.032 A 
HETATM   16  C   UNL     1       5.257  25.742  51.101  1.00  0.00     0.050 C 
HETATM   17  C   UNL     1       4.485  26.422  48.851  1.00  0.00     0.028 A 
HETATM   18  C   UNL     1       4.202  27.367  47.880  1.00  0.00     0.117 A 
HETATM   19  N   UNL     1       4.289  28.692  48.090  1.00  0.00    -0.271 NA
HETATM   20  C   UNL     1       4.648  29.069  49.339  1.00  0.00     0.146 A 
ENDBRANCH  10  14
ENDBRANCH   7   8
ENDBRANCH   1   7
BRANCH   3  21
HETATM   21  C   UNL     1       7.800  26.201  57.448  1.00  0.00     0.252 C 
HETATM   22  N   UNL     1       7.987  25.471  56.298  1.00  0.00    -0.351 N 
HETATM   23  H   UNL     1       7.786  25.864  55.386  1.00  0.00     0.163 HD
HETATM   24  O   UNL     1       7.984  25.748  58.572  1.00  0.00    -0.268 OA
BRANCH  22  25
HETATM   25  C   UNL     1       8.539  24.139  56.337  1.00  0.00     0.187 C 
BRANCH  25  26
HETATM   26  C   UNL     1       8.337  23.483  55.020  1.00  0.00     0.070 A 
HETATM   27  O   UNL     1       9.024  22.324  54.789  1.00  0.00    -0.325 OA
HETATM   28  C   UNL     1       8.703  21.912  53.537  1.00  0.00     0.142 A 
HETATM   29  C   UNL     1       7.807  22.780  52.959  1.00  0.00     0.027 A 
HETATM   30  C   UNL     1       7.569  23.796  53.916  1.00  0.00     0.036 A 
ENDBRANCH  25  26
ENDBRANCH  22  25
ENDBRANCH   3  21
TORSDOF 6
ENDMDL
