MODEL 1
REMARK VINA RESULT:     -10.1      0.000      0.000
REMARK  5 active torsions:
REMARK  status: ('A' for Active; 'I' for Inactive)
REMARK    1  A    between atoms: C_3  and  N_4 
REMARK       I    between atoms: N_4  and  C_5 
REMARK    2  A    between atoms: C_5  and  C_6 
REMARK    3  A    between atoms: C_6  and  N_7 
REMARK       I    between atoms: N_7  and  C_8 
REMARK    4  A    between atoms: C_8  and  C_9 
REMARK    5  A    between atoms: C_10  and  C_11 
ROOT
HETATM    1  N   UNL     1       7.318  28.913  56.383  1.00  0.00    -0.348 N 
HETATM    2  C   UNL     1       8.131  28.757  57.480  1.00  0.00     0.255 C 
HETATM    3  O   UNL     1       7.995  27.825  58.267  1.00  0.00    -0.268 OA
HETATM    4  H   UNL     1       7.405  29.753  55.827  1.00  0.00     0.163 HD
ENDROOT
BRANCH   1   5
HETATM    5  C   UNL     1       6.395  27.888  55.928  1.00  0.00     0.226 C 
BRANCH   5   6
HETATM    6  C   UNL     1       6.980  26.855  54.955  1.00  0.00     0.239 C 
HETATM    7  N   UNL     1       6.770  25.545  55.361  1.00  0.00    -0.325 N 
HETATM    8  H   UNL     1       6.488  25.454  56.337  1.00  0.00     0.169 HD
HETATM    9  O   UNL     1       7.682  27.216  54.015  1.00  0.00    -0.271 OA
BRANCH   7  10
HETATM   10  C   UNL     1       7.381  24.411  54.775  1.00  0.00     0.046 A 
HETATM   11  C   UNL     1       8.382  23.748  55.526  1.00  0.00    -0.035 A 
HETATM   12  C   UNL     1       8.831  24.239  56.879  1.00  0.00     0.050 C 
HETATM   13  C   UNL     1       9.017  22.617  54.991  1.00  0.00     0.009 A 
HETATM   14  C   UNL     1       8.677  22.143  53.730  1.00  0.00     0.001 A 
HETATM   15  C   UNL     1       7.679  22.780  53.000  1.00  0.00     0.009 A 
HETATM   16  C   UNL     1       7.000  23.899  53.517  1.00  0.00    -0.035 A 
HETATM   17  C   UNL     1       5.873  24.451  52.687  1.00  0.00     0.050 C 
ENDBRANCH   7  10
ENDBRANCH   5   6
ENDBRANCH   1   5
BRANCH   2  18
HETATM   18  C   UNL     1       9.146  29.786  57.606  1.00  0.00     0.080 A 
HETATM   19  C   UNL     1       9.387  30.750  58.641  1.00  0.00     0.104 A 
HETATM   20  N   UNL     1      10.491  31.470  58.352  1.00  0.00    -0.174 NA
HETATM   21  N   UNL     1      10.938  30.986  57.193  1.00  0.00    -0.288 N 
HETATM   22  H   UNL     1      11.788  31.382  56.804  1.00  0.00     0.188 HD
HETATM   23  C   UNL     1      10.163  29.993  56.688  1.00  0.00     0.128 A 
BRANCH  19  24
HETATM   24  C   UNL     1       8.628  31.070  59.862  1.00  0.00    -0.004 A 
HETATM   25  C   UNL     1       7.451  31.832  59.839  1.00  0.00     0.017 A 
HETATM   26  C   UNL     1       6.786  32.154  61.028  1.00  0.00     0.043 A 
HETATM   27  C   UNL     1       7.300  31.729  62.246  1.00  0.00     0.116 A 
HETATM   28  F   UNL     1       6.668  32.052  63.382  1.00  0.00    -0.206 F 
HETATM   29  C   UNL     1       8.466  30.980  62.301  1.00  0.00     0.043 A 
HETATM   30  C   UNL     1       9.125  30.652  61.114  1.00  0.00     0.017 A 
ENDBRANCH  19  24
ENDBRANCH   2  18
TORSDOF 5
ENDMDL
MODEL 2
REMARK VINA RESULT:      -9.9      0.111      1.682
REMARK  5 active torsions:
REMARK  status: ('A' for Active; 'I' for Inactive)
REMARK    1  A    between atoms: C_3  and  N_4 
REMARK       I    between atoms: N_4  and  C_5 
REMARK    2  A    between atoms: C_5  and  C_6 
REMARK    3  A    between atoms: C_6  and  N_7 
REMARK       I    between atoms: N_7  and  C_8 
REMARK    4  A    between atoms: C_8  and  C_9 
REMARK    5  A    between atoms: C_10  and  C_11 
ROOT
HETATM    1  N   UNL     1       7.336  28.935  56.305  1.00  0.00    -0.348 N 
HETATM    2  C   UNL     1       8.106  28.784  57.433  1.00  0.00     0.255 C 
HETATM    3  O   UNL     1       7.932  27.862  58.224  1.00  0.00    -0.268 OA
HETATM    4  H   UNL     1       7.451  29.769  55.744  1.00  0.00     0.163 HD
ENDROOT
BRANCH   1   5
HETATM    5  C   UNL     1       6.423  27.912  55.825  1.00  0.00     0.226 C 
BRANCH   5   6
HETATM    6  C   UNL     1       7.049  26.834  54.929  1.00  0.00     0.239 C 
HETATM    7  N   UNL     1       6.749  25.544  55.339  1.00  0.00    -0.325 N 
HETATM    8  H   UNL     1       6.377  25.486  56.287  1.00  0.00     0.169 HD
HETATM    9  O   UNL     1       7.846  27.145  54.049  1.00  0.00    -0.271 OA
BRANCH   7  10
HETATM   10  C   UNL     1       7.361  24.373  54.832  1.00  0.00     0.046 A 
HETATM   11  C   UNL     1       6.920  23.899  53.573  1.00  0.00    -0.035 A 
HETATM   12  C   UNL     1       5.812  24.571  52.803  1.00  0.00     0.050 C 
HETATM   13  C   UNL     1       7.496  22.741  53.026  1.00  0.00     0.009 A 
HETATM   14  C   UNL     1       8.491  22.053  53.710  1.00  0.00     0.001 A 
HETATM   15  C   UNL     1       8.940  22.530  54.937  1.00  0.00     0.009 A 
HETATM   16  C   UNL     1       8.406  23.703  55.502  1.00  0.00    -0.035 A 
HETATM   17  C   UNL     1       9.031  24.182  56.785  1.00  0.00     0.050 C 
ENDBRANCH   7  10
ENDBRANCH   5   6
ENDBRANCH   1   5
BRANCH   2  18
HETATM   18  C   UNL     1       9.123  29.807  57.588  1.00  0.00     0.080 A 
HETATM   19  C   UNL     1       9.350  30.760  58.636  1.00  0.00     0.104 A 
HETATM   20  N   UNL     1      10.462  31.477  58.374  1.00  0.00    -0.174 NA
HETATM   21  N   UNL     1      10.928  31.003  57.218  1.00  0.00    -0.288 N 
HETATM   22  H   UNL     1      11.786  31.399  56.849  1.00  0.00     0.188 HD
HETATM   23  C   UNL     1      10.157  30.019  56.690  1.00  0.00     0.128 A 
BRANCH  19  24
HETATM   24  C   UNL     1       8.571  31.072  59.846  1.00  0.00    -0.004 A 
HETATM   25  C   UNL     1       7.380  31.810  59.805  1.00  0.00     0.017 A 
HETATM   26  C   UNL     1       6.694  32.126  60.985  1.00  0.00     0.043 A 
HETATM   27  C   UNL     1       7.202  31.717  62.211  1.00  0.00     0.116 A 
HETATM   28  F   UNL     1       6.551  32.035  63.338  1.00  0.00    -0.206 F 
HETATM   29  C   UNL     1       8.382  30.992  62.284  1.00  0.00     0.043 A 
HETATM   30  C   UNL     1       9.062  30.671  61.106  1.00  0.00     0.017 A 
ENDBRANCH  19  24
ENDBRANCH   2  18
TORSDOF 5
ENDMDL
MODEL 3
REMARK VINA RESULT:      -9.8      2.118      2.680
REMARK  5 active torsions:
REMARK  status: ('A' for Active; 'I' for Inactive)
REMARK    1  A    between atoms: C_3  and  N_4 
REMARK       I    between atoms: N_4  and  C_5 
REMARK    2  A    between atoms: C_5  and  C_6 
REMARK    3  A    between atoms: C_6  and  N_7 
REMARK       I    between atoms: N_7  and  C_8 
REMARK    4  A    between atoms: C_8  and  C_9 
REMARK    5  A    between atoms: C_10  and  C_11 
ROOT
HETATM    1  N   UNL     1       7.353  26.945  57.628  1.00  0.00    -0.348 N 
HETATM    2  C   UNL     1       8.026  28.104  57.324  1.00  0.00     0.255 C 
HETATM    3  O   UNL     1       9.252  28.161  57.303  1.00  0.00    -0.268 OA
HETATM    4  H   UNL     1       6.348  26.979  57.735  1.00  0.00     0.163 HD
ENDROOT
BRANCH   1   5
HETATM    5  C   UNL     1       8.004  25.650  57.718  1.00  0.00     0.226 C 
BRANCH   5   6
HETATM    6  C   UNL     1       7.451  24.564  56.784  1.00  0.00     0.239 C 
HETATM    7  N   UNL     1       8.441  23.782  56.211  1.00  0.00    -0.325 N 
HETATM    8  H   UNL     1       9.379  24.178  56.288  1.00  0.00     0.169 HD
HETATM    9  O   UNL     1       6.257  24.543  56.498  1.00  0.00    -0.271 OA
BRANCH   7  10
HETATM   10  C   UNL     1       8.234  22.860  55.158  1.00  0.00     0.046 A 
HETATM   11  C   UNL     1       8.183  21.486  55.495  1.00  0.00    -0.035 A 
HETATM   12  C   UNL     1       8.383  20.995  56.907  1.00  0.00     0.050 C 
HETATM   13  C   UNL     1       7.977  20.530  54.487  1.00  0.00     0.009 A 
HETATM   14  C   UNL     1       7.829  20.919  53.162  1.00  0.00     0.001 A 
HETATM   15  C   UNL     1       7.859  22.269  52.832  1.00  0.00     0.009 A 
HETATM   16  C   UNL     1       8.033  23.257  53.820  1.00  0.00    -0.035 A 
HETATM   17  C   UNL     1       7.951  24.690  53.367  1.00  0.00     0.050 C 
ENDBRANCH   7  10
ENDBRANCH   5   6
ENDBRANCH   1   5
BRANCH   2  18
HETATM   18  C   UNL     1       7.155  29.228  57.038  1.00  0.00     0.080 A 
HETATM   19  C   UNL     1       6.935  30.456  57.747  1.00  0.00     0.104 A 
HETATM   20  N   UNL     1       6.071  31.234  57.065  1.00  0.00    -0.174 NA
HETATM   21  N   UNL     1       5.756  30.542  55.970  1.00  0.00    -0.288 N 
HETATM   22  H   UNL     1       5.123  30.966  55.300  1.00  0.00     0.188 HD
HETATM   23  C   UNL     1       6.356  29.326  55.910  1.00  0.00     0.128 A 
BRANCH  19  24
HETATM   24  C   UNL     1       7.451  30.930  59.043  1.00  0.00    -0.004 A 
HETATM   25  C   UNL     1       8.579  30.367  59.656  1.00  0.00     0.017 A 
HETATM   26  C   UNL     1       9.009  30.815  60.911  1.00  0.00     0.043 A 
HETATM   27  C   UNL     1       8.306  31.818  61.565  1.00  0.00     0.116 A 
HETATM   28  F   UNL     1       8.712  32.233  62.772  1.00  0.00    -0.206 F 
HETATM   29  C   UNL     1       7.182  32.390  60.988  1.00  0.00     0.043 A 
HETATM   30  C   UNL     1       6.759  31.948  59.732  1.00  0.00     0.017 A 
ENDBRANCH  19  24
ENDBRANCH   2  18
TORSDOF 5
ENDMDL
MODEL 4
REMARK VINA RESULT:      -9.8      3.128      4.449
REMARK  5 active torsions:
REMARK  status: ('A' for Active; 'I' for Inactive)
REMARK    1  A    between atoms: C_3  and  N_4 
REMARK       I    between atoms: N_4  and  C_5 
REMARK    2  A    between atoms: C_5  and  C_6 
REMARK    3  A    between atoms: C_6  and  N_7 
REMARK       I    between atoms: N_7  and  C_8 
REMARK    4  A    between atoms: C_8  and  C_9 
REMARK    5  A    between atoms: C_10  and  C_11 
ROOT
HETATM    1  N   UNL     1       7.068  26.624  57.292  1.00  0.00    -0.348 N 
HETATM    2  C   UNL     1       5.961  26.865  56.512  1.00  0.00     0.255 C 
HETATM    3  O   UNL     1       5.330  25.959  55.975  1.00  0.00    -0.268 OA
HETATM    4  H   UNL     1       7.611  27.410  57.622  1.00  0.00     0.163 HD
ENDROOT
BRANCH   1   5
HETATM    5  C   UNL     1       7.448  25.296  57.739  1.00  0.00     0.226 C 
BRANCH   5   6
HETATM    6  C   UNL     1       8.130  24.412  56.685  1.00  0.00     0.239 C 
HETATM    7  N   UNL     1       7.241  23.605  55.993  1.00  0.00    -0.325 N 
HETATM    8  H   UNL     1       6.323  23.527  56.433  1.00  0.00     0.169 HD
HETATM    9  O   UNL     1       9.355  24.360  56.619  1.00  0.00    -0.271 OA
BRANCH   7  10
HETATM   10  C   UNL     1       7.613  22.549  55.128  1.00  0.00     0.046 A 
HETATM   11  C   UNL     1       7.566  22.800  53.735  1.00  0.00    -0.035 A 
HETATM   12  C   UNL     1       7.098  24.116  53.169  1.00  0.00     0.050 C 
HETATM   13  C   UNL     1       7.927  21.786  52.834  1.00  0.00     0.009 A 
HETATM   14  C   UNL     1       8.326  20.537  53.295  1.00  0.00     0.001 A 
HETATM   15  C   UNL     1       8.392  20.295  54.663  1.00  0.00     0.009 A 
HETATM   16  C   UNL     1       8.066  21.298  55.596  1.00  0.00    -0.035 A 
HETATM   17  C   UNL     1       8.267  20.962  57.049  1.00  0.00     0.050 C 
ENDBRANCH   7  10
ENDBRANCH   5   6
ENDBRANCH   1   5
BRANCH   2  18
HETATM   18  C   UNL     1       5.625  28.271  56.394  1.00  0.00     0.080 A 
HETATM   19  C   UNL     1       6.454  29.442  56.391  1.00  0.00     0.104 A 
HETATM   20  N   UNL     1       5.698  30.541  56.192  1.00  0.00    -0.174 NA
HETATM   21  N   UNL     1       4.448  30.096  56.069  1.00  0.00    -0.288 N 
HETATM   22  H   UNL     1       3.713  30.773  55.889  1.00  0.00     0.188 HD
HETATM   23  C   UNL     1       4.339  28.750  56.202  1.00  0.00     0.128 A 
BRANCH  19  24
HETATM   24  C   UNL     1       7.903  29.602  56.602  1.00  0.00    -0.004 A 
HETATM   25  C   UNL     1       8.848  29.266  55.623  1.00  0.00     0.017 A 
HETATM   26  C   UNL     1      10.219  29.387  55.881  1.00  0.00     0.043 A 
HETATM   27  C   UNL     1      10.652  29.834  57.123  1.00  0.00     0.116 A 
HETATM   28  F   UNL     1      11.964  29.935  57.371  1.00  0.00    -0.206 F 
HETATM   29  C   UNL     1       9.741  30.167  58.114  1.00  0.00     0.043 A 
HETATM   30  C   UNL     1       8.373  30.053  57.853  1.00  0.00     0.017 A 
ENDBRANCH  19  24
ENDBRANCH   2  18
TORSDOF 5
ENDMDL
MODEL 5
REMARK VINA RESULT:      -9.7      3.187      8.934
REMARK  5 active torsions:
REMARK  status: ('A' for Active; 'I' for Inactive)
REMARK    1  A    between atoms: C_3  and  N_4 
REMARK       I    between atoms: N_4  and  C_5 
REMARK    2  A    between atoms: C_5  and  C_6 
REMARK    3  A    between atoms: C_6  and  N_7 
REMARK       I    between atoms: N_7  and  C_8 
REMARK    4  A    between atoms: C_8  and  C_9 
REMARK    5  A    between atoms: C_10  and  C_11 
ROOT
HETATM    1  N   UNL     1       8.352  29.392  56.789  1.00  0.00    -0.348 N 
HETATM    2  C   UNL     1       8.036  28.073  57.013  1.00  0.00     0.255 C 
HETATM    3  O   UNL     1       8.857  27.269  57.447  1.00  0.00    -0.268 OA
HETATM    4  H   UNL     1       7.672  29.984  56.331  1.00  0.00     0.163 HD
ENDROOT
BRANCH   1   5
HETATM    5  C   UNL     1       9.583  30.003  57.256  1.00  0.00     0.226 C 
BRANCH   5   6
HETATM    6  C   UNL     1       9.441  30.940  58.463  1.00  0.00     0.239 C 
HETATM    7  N   UNL     1       8.488  30.513  59.375  1.00  0.00    -0.325 N 
HETATM    8  H   UNL     1       7.859  29.796  59.012  1.00  0.00     0.169 HD
HETATM    9  O   UNL     1      10.028  32.019  58.484  1.00  0.00    -0.271 OA
BRANCH   7  10
HETATM   10  C   UNL     1       8.002  31.284  60.458  1.00  0.00     0.046 A 
HETATM   11  C   UNL     1       6.875  32.107  60.219  1.00  0.00    -0.035 A 
HETATM   12  C   UNL     1       6.227  32.210  58.862  1.00  0.00     0.050 C 
HETATM   13  C   UNL     1       6.354  32.890  61.261  1.00  0.00     0.009 A 
HETATM   14  C   UNL     1       6.935  32.870  62.522  1.00  0.00     0.001 A 
HETATM   15  C   UNL     1       8.030  32.047  62.764  1.00  0.00     0.009 A 
HETATM   16  C   UNL     1       8.560  31.225  61.752  1.00  0.00    -0.035 A 
HETATM   17  C   UNL     1       9.681  30.302  62.148  1.00  0.00     0.050 C 
ENDBRANCH   7  10
ENDBRANCH   5   6
ENDBRANCH   1   5
BRANCH   2  18
HETATM   18  C   UNL     1       6.663  27.737  56.688  1.00  0.00     0.080 A 
HETATM   19  C   UNL     1       6.114  26.673  55.898  1.00  0.00     0.104 A 
HETATM   20  N   UNL     1       4.767  26.725  55.927  1.00  0.00    -0.174 NA
HETATM   21  N   UNL     1       4.467  27.768  56.702  1.00  0.00    -0.288 N 
HETATM   22  H   UNL     1       3.488  27.971  56.874  1.00  0.00     0.188 HD
HETATM   23  C   UNL     1       5.560  28.424  57.167  1.00  0.00     0.128 A 
BRANCH  19  24
HETATM   24  C   UNL     1       6.769  25.634  55.084  1.00  0.00    -0.004 A 
HETATM   25  C   UNL     1       7.263  25.887  53.797  1.00  0.00     0.017 A 
HETATM   26  C   UNL     1       7.836  24.860  53.037  1.00  0.00     0.043 A 
HETATM   27  C   UNL     1       7.905  23.573  53.553  1.00  0.00     0.116 A 
HETATM   28  F   UNL     1       8.440  22.590  52.817  1.00  0.00    -0.206 F 
HETATM   29  C   UNL     1       7.418  23.290  54.820  1.00  0.00     0.043 A 
HETATM   30  C   UNL     1       6.853  24.317  55.582  1.00  0.00     0.017 A 
ENDBRANCH  19  24
ENDBRANCH   2  18
TORSDOF 5
ENDMDL
MODEL 6
REMARK VINA RESULT:      -9.5      3.760      5.562
REMARK  5 active torsions:
REMARK  status: ('A' for Active; 'I' for Inactive)
REMARK    1  A    between atoms: C_3  and  N_4 
REMARK       I    between atoms: N_4  and  C_5 
REMARK    2  A    between atoms: C_5  and  C_6 
REMARK    3  A    between atoms: C_6  and  N_7 
REMARK       I    between atoms: N_7  and  C_8 
REMARK    4  A    between atoms: C_8  and  C_9 
REMARK    5  A    between atoms: C_10  and  C_11 
ROOT
HETATM    1  N   UNL     1       7.349  26.960  57.408  1.00  0.00    -0.348 N 
HETATM    2  C   UNL     1       7.908  28.216  57.384  1.00  0.00     0.255 C 
HETATM    3  O   UNL     1       9.107  28.402  57.570  1.00  0.00    -0.268 OA
HETATM    4  H   UNL     1       6.343  26.873  57.354  1.00  0.00     0.163 HD
ENDROOT
BRANCH   1   5
HETATM    5  C   UNL     1       8.139  25.742  57.418  1.00  0.00     0.226 C 
BRANCH   5   6
HETATM    6  C   UNL     1       7.566  24.574  56.603  1.00  0.00     0.239 C 
HETATM    7  N   UNL     1       8.545  23.770  56.040  1.00  0.00    -0.325 N 
HETATM    8  H   UNL     1       9.475  24.191  56.035  1.00  0.00     0.169 HD
HETATM    9  O   UNL     1       6.360  24.505  56.383  1.00  0.00    -0.271 OA
BRANCH   7  10
HETATM   10  C   UNL     1       8.308  22.764  55.074  1.00  0.00     0.046 A 
HETATM   11  C   UNL     1       8.234  21.426  55.531  1.00  0.00    -0.035 A 
HETATM   12  C   UNL     1       8.442  21.057  56.978  1.00  0.00     0.050 C 
HETATM   13  C   UNL     1       7.998  20.390  54.614  1.00  0.00     0.009 A 
HETATM   14  C   UNL     1       7.841  20.663  53.260  1.00  0.00     0.001 A 
HETATM   15  C   UNL     1       7.893  21.979  52.813  1.00  0.00     0.009 A 
HETATM   16  C   UNL     1       8.097  23.046  53.708  1.00  0.00    -0.035 A 
HETATM   17  C   UNL     1       8.038  24.435  53.132  1.00  0.00     0.050 C 
ENDBRANCH   7  10
ENDBRANCH   5   6
ENDBRANCH   1   5
BRANCH   2  18
HETATM   18  C   UNL     1       6.952  29.276  57.122  1.00  0.00     0.080 A 
HETATM   19  C   UNL     1       5.990  29.439  56.070  1.00  0.00     0.104 A 
HETATM   20  N   UNL     1       5.272  30.562  56.272  1.00  0.00    -0.174 NA
HETATM   21  N   UNL     1       5.746  31.090  57.402  1.00  0.00    -0.288 N 
HETATM   22  H   UNL     1       5.319  31.943  57.748  1.00  0.00     0.188 HD
HETATM   23  C   UNL     1       6.766  30.376  57.942  1.00  0.00     0.128 A 
BRANCH  19  24
HETATM   24  C   UNL     1       5.727  28.633  54.865  1.00  0.00    -0.004 A 
HETATM   25  C   UNL     1       6.746  28.237  53.987  1.00  0.00     0.017 A 
HETATM   26  C   UNL     1       6.447  27.513  52.827  1.00  0.00     0.043 A 
HETATM   27  C   UNL     1       5.129  27.192  52.531  1.00  0.00     0.116 A 
HETATM   28  F   UNL     1       4.846  26.512  51.413  1.00  0.00    -0.206 F 
HETATM   29  C   UNL     1       4.099  27.576  53.377  1.00  0.00     0.043 A 
HETATM   30  C   UNL     1       4.398  28.292  54.539  1.00  0.00     0.017 A 
ENDBRANCH  19  24
ENDBRANCH   2  18
TORSDOF 5
ENDMDL
MODEL 7
REMARK VINA RESULT:      -9.4      5.413      8.529
REMARK  5 active torsions:
REMARK  status: ('A' for Active; 'I' for Inactive)
REMARK    1  A    between atoms: C_3  and  N_4 
REMARK       I    between atoms: N_4  and  C_5 
REMARK    2  A    between atoms: C_5  and  C_6 
REMARK    3  A    between atoms: C_6  and  N_7 
REMARK       I    between atoms: N_7  and  C_8 
REMARK    4  A    between atoms: C_8  and  C_9 
REMARK    5  A    between atoms: C_10  and  C_11 
ROOT
HETATM    1  N   UNL     1       5.616  25.018  54.173  1.00  0.00    -0.348 N 
HETATM    2  C   UNL     1       6.311  25.911  54.954  1.00  0.00     0.255 C 
HETATM    3  O   UNL     1       6.308  27.117  54.729  1.00  0.00    -0.268 OA
HETATM    4  H   UNL     1       5.737  24.028  54.338  1.00  0.00     0.163 HD
ENDROOT
BRANCH   1   5
HETATM    5  C   UNL     1       4.643  25.428  53.175  1.00  0.00     0.226 C 
BRANCH   5   6
HETATM    6  C   UNL     1       5.228  26.015  51.883  1.00  0.00     0.239 C 
HETATM    7  N   UNL     1       4.357  26.876  51.233  1.00  0.00    -0.325 N 
HETATM    8  H   UNL     1       3.391  26.810  51.556  1.00  0.00     0.169 HD
HETATM    9  O   UNL     1       6.300  25.606  51.446  1.00  0.00    -0.271 OA
BRANCH   7  10
HETATM   10  C   UNL     1       4.548  27.385  49.927  1.00  0.00     0.046 A 
HETATM   11  C   UNL     1       5.168  28.652  49.804  1.00  0.00    -0.035 A 
HETATM   12  C   UNL     1       5.576  29.468  51.004  1.00  0.00     0.050 C 
HETATM   13  C   UNL     1       5.382  29.200  48.530  1.00  0.00     0.009 A 
HETATM   14  C   UNL     1       4.988  28.514  47.387  1.00  0.00     0.001 A 
HETATM   15  C   UNL     1       4.398  27.260  47.505  1.00  0.00     0.009 A 
HETATM   16  C   UNL     1       4.195  26.667  48.766  1.00  0.00    -0.035 A 
HETATM   17  C   UNL     1       3.639  25.268  48.773  1.00  0.00     0.050 C 
ENDBRANCH   7  10
ENDBRANCH   5   6
ENDBRANCH   1   5
BRANCH   2  18
HETATM   18  C   UNL     1       7.034  25.290  56.048  1.00  0.00     0.080 A 
HETATM   19  C   UNL     1       7.734  24.040  56.127  1.00  0.00     0.104 A 
HETATM   20  N   UNL     1       8.309  23.909  57.340  1.00  0.00    -0.174 NA
HETATM   21  N   UNL     1       7.998  25.023  58.003  1.00  0.00    -0.288 N 
HETATM   22  H   UNL     1       8.358  25.137  58.946  1.00  0.00     0.188 HD
HETATM   23  C   UNL     1       7.219  25.875  57.290  1.00  0.00     0.128 A 
BRANCH  19  24
HETATM   24  C   UNL     1       7.866  22.941  55.155  1.00  0.00    -0.004 A 
HETATM   25  C   UNL     1       7.704  21.596  55.514  1.00  0.00     0.017 A 
HETATM   26  C   UNL     1       7.886  20.578  54.569  1.00  0.00     0.043 A 
HETATM   27  C   UNL     1       8.242  20.899  53.266  1.00  0.00     0.116 A 
HETATM   28  F   UNL     1       8.429  19.922  52.369  1.00  0.00    -0.206 F 
HETATM   29  C   UNL     1       8.416  22.220  52.883  1.00  0.00     0.043 A 
HETATM   30  C   UNL     1       8.227  23.236  53.824  1.00  0.00     0.017 A 
ENDBRANCH  19  24
ENDBRANCH   2  18
TORSDOF 5
ENDMDL
MODEL 8
REMARK VINA RESULT:      -9.3      3.358      9.052
REMARK  5 active torsions:
REMARK  status: ('A' for Active; 'I' for Inactive)
REMARK    1  A    between atoms: C_3  and  N_4 
REMARK       I    between atoms: N_4  and  C_5 
REMARK    2  A    between atoms: C_5  and  C_6 
REMARK    3  A    between atoms: C_6  and  N_7 
REMARK       I    between atoms: N_7  and  C_8 
REMARK    4  A    between atoms: C_8  and  C_9 
REMARK    5  A    between atoms: C_10  and  C_11 
ROOT
HETATM    1  N   UNL     1       8.818  28.699  57.384  1.00  0.00    -0.348 N 
HETATM    2  C   UNL     1       7.954  28.148  56.468  1.00  0.00     0.255 C 
HETATM    3  O   UNL     1       7.485  28.798  55.539  1.00  0.00    -0.268 OA
HETATM    4  H   UNL     1       9.091  28.150  58.188  1.00  0.00     0.163 HD
ENDROOT
BRANCH   1   5
HETATM    5  C   UNL     1       9.431  30.004  57.210  1.00  0.00     0.226 C 
BRANCH   5   6
HETATM    6  C   UNL     1       9.370  30.932  58.431  1.00  0.00     0.239 C 
HETATM    7  N   UNL     1       8.407  30.555  59.355  1.00  0.00    -0.325 N 
HETATM    8  H   UNL     1       7.727  29.885  58.994  1.00  0.00     0.169 HD
HETATM    9  O   UNL     1      10.025  31.970  58.455  1.00  0.00    -0.271 OA
BRANCH   7  10
HETATM   10  C   UNL     1       7.991  31.341  60.455  1.00  0.00     0.046 A 
HETATM   11  C   UNL     1       6.875  32.191  60.265  1.00  0.00    -0.035 A 
HETATM   12  C   UNL     1       6.168  32.307  58.938  1.00  0.00     0.050 C 
HETATM   13  C   UNL     1       6.421  32.991  61.325  1.00  0.00     0.009 A 
HETATM   14  C   UNL     1       7.059  32.961  62.559  1.00  0.00     0.001 A 
HETATM   15  C   UNL     1       8.142  32.111  62.755  1.00  0.00     0.009 A 
HETATM   16  C   UNL     1       8.606  31.273  61.723  1.00  0.00    -0.035 A 
HETATM   17  C   UNL     1       9.720  30.323  62.071  1.00  0.00     0.050 C 
ENDBRANCH   7  10
ENDBRANCH   5   6
ENDBRANCH   1   5
BRANCH   2  18
HETATM   18  C   UNL     1       7.661  26.748  56.710  1.00  0.00     0.080 A 
HETATM   19  C   UNL     1       7.183  25.719  55.832  1.00  0.00     0.104 A 
HETATM   20  N   UNL     1       7.117  24.544  56.491  1.00  0.00    -0.174 NA
HETATM   21  N   UNL     1       7.539  24.806  57.729  1.00  0.00    -0.288 N 
HETATM   22  H   UNL     1       7.588  24.039  58.391  1.00  0.00     0.188 HD
HETATM   23  C   UNL     1       7.857  26.110  57.925  1.00  0.00     0.128 A 
BRANCH  19  24
HETATM   24  C   UNL     1       6.744  25.772  54.427  1.00  0.00    -0.004 A 
HETATM   25  C   UNL     1       5.441  26.137  54.060  1.00  0.00     0.017 A 
HETATM   26  C   UNL     1       5.050  26.128  52.715  1.00  0.00     0.043 A 
HETATM   27  C   UNL     1       5.953  25.742  51.734  1.00  0.00     0.116 A 
HETATM   28  F   UNL     1       5.570  25.721  50.451  1.00  0.00    -0.206 F 
HETATM   29  C   UNL     1       7.246  25.369  52.067  1.00  0.00     0.043 A 
HETATM   30  C   UNL     1       7.639  25.385  53.408  1.00  0.00     0.017 A 
ENDBRANCH  19  24
ENDBRANCH   2  18
TORSDOF 5
ENDMDL
MODEL 9
REMARK VINA RESULT:      -9.1      4.465      6.072
REMARK  5 active torsions:
REMARK  status: ('A' for Active; 'I' for Inactive)
REMARK    1  A    between atoms: C_3  and  N_4 
REMARK       I    between atoms: N_4  and  C_5 
REMARK    2  A    between atoms: C_5  and  C_6 
REMARK    3  A    between atoms: C_6  and  N_7 
REMARK       I    between atoms: N_7  and  C_8 
REMARK    4  A    between atoms: C_8  and  C_9 
REMARK    5  A    between atoms: C_10  and  C_11 
ROOT
HETATM    1  N   UNL     1       6.850  26.142  51.740  1.00  0.00    -0.348 N 
HETATM    2  C   UNL     1       5.545  26.371  51.373  1.00  0.00     0.255 C 
HETATM    3  O   UNL     1       4.842  25.494  50.878  1.00  0.00    -0.268 OA
HETATM    4  H   UNL     1       7.414  26.924  52.044  1.00  0.00     0.163 HD
ENDROOT
BRANCH   1   5
HETATM    5  C   UNL     1       7.437  24.815  51.797  1.00  0.00     0.226 C 
BRANCH   5   6
HETATM    6  C   UNL     1       7.243  24.062  53.121  1.00  0.00     0.239 C 
HETATM    7  N   UNL     1       8.351  23.316  53.490  1.00  0.00    -0.325 N 
HETATM    8  H   UNL     1       9.025  23.174  52.737  1.00  0.00     0.169 HD
HETATM    9  O   UNL     1       6.143  24.041  53.667  1.00  0.00    -0.271 OA
BRANCH   7  10
HETATM   10  C   UNL     1       8.373  22.365  54.538  1.00  0.00     0.046 A 
HETATM   11  C   UNL     1       8.356  20.996  54.178  1.00  0.00    -0.035 A 
HETATM   12  C   UNL     1       8.272  20.542  52.743  1.00  0.00     0.050 C 
HETATM   13  C   UNL     1       8.377  20.014  55.181  1.00  0.00     0.009 A 
HETATM   14  C   UNL     1       8.410  20.371  56.523  1.00  0.00     0.001 A 
HETATM   15  C   UNL     1       8.448  21.716  56.878  1.00  0.00     0.009 A 
HETATM   16  C   UNL     1       8.458  22.727  55.899  1.00  0.00    -0.035 A 
HETATM   17  C   UNL     1       8.599  24.143  56.390  1.00  0.00     0.050 C 
ENDBRANCH   7  10
ENDBRANCH   5   6
ENDBRANCH   1   5
BRANCH   2  18
HETATM   18  C   UNL     1       5.095  27.726  51.627  1.00  0.00     0.080 A 
HETATM   19  C   UNL     1       5.174  28.541  52.805  1.00  0.00     0.104 A 
HETATM   20  N   UNL     1       4.674  29.768  52.552  1.00  0.00    -0.174 NA
HETATM   21  N   UNL     1       4.299  29.742  51.272  1.00  0.00    -0.288 N 
HETATM   22  H   UNL     1       3.910  30.589  50.870  1.00  0.00     0.188 HD
HETATM   23  C   UNL     1       4.506  28.542  50.674  1.00  0.00     0.128 A 
BRANCH  19  24
HETATM   24  C   UNL     1       5.649  28.233  54.165  1.00  0.00    -0.004 A 
HETATM   25  C   UNL     1       4.773  28.017  55.237  1.00  0.00     0.017 A 
HETATM   26  C   UNL     1       5.266  27.775  56.525  1.00  0.00     0.043 A 
HETATM   27  C   UNL     1       6.637  27.761  56.750  1.00  0.00     0.116 A 
HETATM   28  F   UNL     1       7.104  27.543  57.986  1.00  0.00    -0.206 F 
HETATM   29  C   UNL     1       7.528  27.979  55.711  1.00  0.00     0.043 A 
HETATM   30  C   UNL     1       7.036  28.213  54.424  1.00  0.00     0.017 A 
ENDBRANCH  19  24
ENDBRANCH   2  18
TORSDOF 5
ENDMDL
MODEL 10
REMARK VINA RESULT:      -9.1      2.859      4.007
REMARK  5 active torsions:
REMARK  status: ('A' for Active; 'I' for Inactive)
REMARK    1  A    between atoms: C_3  and  N_4 
REMARK       I    between atoms: N_4  and  C_5 
REMARK    2  A    between atoms: C_5  and  C_6 
REMARK    3  A    between atoms: C_6  and  N_7 
REMARK       I    between atoms: N_7  and  C_8 
REMARK    4  A    between atoms: C_8  and  C_9 
REMARK    5  A    between atoms: C_10  and  C_11 
ROOT
HETATM    1  N   UNL     1       5.590  29.546  55.077  1.00  0.00    -0.348 N 
HETATM    2  C   UNL     1       5.208  29.053  56.303  1.00  0.00     0.255 C 
HETATM    3  O   UNL     1       4.767  27.916  56.441  1.00  0.00    -0.268 OA
HETATM    4  H   UNL     1       5.846  30.521  55.003  1.00  0.00     0.163 HD
ENDROOT
BRANCH   1   5
HETATM    5  C   UNL     1       5.731  28.712  53.897  1.00  0.00     0.226 C 
BRANCH   5   6
HETATM    6  C   UNL     1       6.838  27.651  53.963  1.00  0.00     0.239 C 
HETATM    7  N   UNL     1       6.353  26.370  54.177  1.00  0.00    -0.325 N 
HETATM    8  H   UNL     1       5.385  26.342  54.499  1.00  0.00     0.169 HD
HETATM    9  O   UNL     1       8.019  27.987  53.973  1.00  0.00    -0.271 OA
BRANCH   7  10
HETATM   10  C   UNL     1       7.152  25.245  54.492  1.00  0.00     0.046 A 
HETATM   11  C   UNL     1       7.669  24.489  53.412  1.00  0.00    -0.035 A 
HETATM   12  C   UNL     1       7.357  24.820  51.975  1.00  0.00     0.050 C 
HETATM   13  C   UNL     1       8.469  23.365  53.672  1.00  0.00     0.009 A 
HETATM   14  C   UNL     1       8.755  22.984  54.977  1.00  0.00     0.001 A 
HETATM   15  C   UNL     1       8.265  23.738  56.038  1.00  0.00     0.009 A 
HETATM   16  C   UNL     1       7.485  24.889  55.815  1.00  0.00    -0.035 A 
HETATM   17  C   UNL     1       7.090  25.684  57.030  1.00  0.00     0.050 C 
ENDBRANCH   7  10
ENDBRANCH   5   6
ENDBRANCH   1   5
BRANCH   2  18
HETATM   18  C   UNL     1       5.376  29.998  57.390  1.00  0.00     0.080 A 
HETATM   19  C   UNL     1       6.558  30.563  57.975  1.00  0.00     0.104 A 
HETATM   20  N   UNL     1       6.221  31.451  58.932  1.00  0.00    -0.174 NA
HETATM   21  N   UNL     1       4.887  31.461  58.954  1.00  0.00    -0.288 N 
HETATM   22  H   UNL     1       4.423  32.090  59.601  1.00  0.00     0.188 HD
HETATM   23  C   UNL     1       4.328  30.596  58.070  1.00  0.00     0.128 A 
BRANCH  19  24
HETATM   24  C   UNL     1       7.985  30.294  57.725  1.00  0.00    -0.004 A 
HETATM   25  C   UNL     1       8.429  29.136  57.070  1.00  0.00     0.017 A 
HETATM   26  C   UNL     1       9.797  28.895  56.895  1.00  0.00     0.043 A 
HETATM   27  C   UNL     1      10.728  29.801  57.385  1.00  0.00     0.116 A 
HETATM   28  F   UNL     1      12.036  29.559  57.229  1.00  0.00    -0.206 F 
HETATM   29  C   UNL     1      10.319  30.951  58.044  1.00  0.00     0.043 A 
HETATM   30  C   UNL     1       8.954  31.196  58.212  1.00  0.00     0.017 A 
ENDBRANCH  19  24
ENDBRANCH   2  18
TORSDOF 5
ENDMDL
