MODEL 1
REMARK VINA RESULT:      -9.6      0.000      0.000
REMARK  7 active torsions:
REMARK  status: ('A' for Active; 'I' for Inactive)
REMARK    1  A    between atoms: C_2  and  N_3 
REMARK    2  A    between atoms: C_2  and  C_10 
REMARK    3  A    between atoms: C_10  and  N_11 
REMARK       I    between atoms: N_11  and  C_12 
REMARK       I    between atoms: C_12  and  N_13 
REMARK    4  A    between atoms: N_13  and  C_14 
REMARK    5  A    between atoms: C_14  and  C_15 
REMARK    6  A    between atoms: C_18  and  N_19 
REMARK       I    between atoms: N_19  and  C_20 
REMARK    7  A    between atoms: C_20  and  C_21 
ROOT
HETATM    1  N   UNL     1       7.253  28.042  57.364  1.00  0.00    -0.341 N 
HETATM    2  C   UNL     1       8.277  28.807  57.861  1.00  0.00     0.316 C 
HETATM    3  N   UNL     1       7.909  29.527  58.957  1.00  0.00    -0.339 N 
HETATM    4  O   UNL     1       9.374  28.859  57.323  1.00  0.00    -0.248 OA
HETATM    5  H   UNL     1       6.504  27.822  58.008  1.00  0.00     0.164 HD
HETATM    6  H   UNL     1       7.052  29.318  59.442  1.00  0.00     0.164 HD
ENDROOT
BRANCH   3   7
HETATM    7  C   UNL     1       8.830  30.436  59.611  1.00  0.00     0.162 C 
BRANCH   7   8
HETATM    8  C   UNL     1       8.187  31.390  60.589  1.00  0.00    -0.040 A 
HETATM    9  C   UNL     1       7.101  32.214  60.267  1.00  0.00     0.011 A 
HETATM   10  C   UNL     1       6.512  33.044  61.232  1.00  0.00     0.030 A 
HETATM   11  C   UNL     1       6.985  33.054  62.543  1.00  0.00     0.035 A 
HETATM   12  C   UNL     1       8.068  32.235  62.873  1.00  0.00     0.030 A 
HETATM   13  C   UNL     1       8.661  31.412  61.909  1.00  0.00     0.011 A 
BRANCH  11  14
HETATM   14  N   UNL     1       6.425  33.825  63.577  1.00  0.00    -0.321 N 
HETATM   15  C   UNL     1       5.394  33.496  64.438  1.00  0.00     0.279 C 
HETATM   16  O   UNL     1       4.740  32.458  64.403  1.00  0.00    -0.265 OA
HETATM   17  H   UNL     1       6.833  34.740  63.745  1.00  0.00     0.169 HD
BRANCH  15  18
HETATM   18  C   UNL     1       5.148  34.531  65.428  1.00  0.00     0.142 A 
HETATM   19  O   UNL     1       5.274  34.230  66.762  1.00  0.00    -0.317 OA
HETATM   20  C   UNL     1       4.975  35.359  67.457  1.00  0.00     0.143 A 
HETATM   21  C   UNL     1       4.662  36.386  66.599  1.00  0.00     0.027 A 
HETATM   22  C   UNL     1       4.774  35.855  65.291  1.00  0.00     0.045 A 
ENDBRANCH  15  18
ENDBRANCH  11  14
ENDBRANCH   7   8
ENDBRANCH   3   7
BRANCH   1  23
HETATM   23  C   UNL     1       7.479  27.165  56.227  1.00  0.00     0.162 C 
BRANCH  23  24
HETATM   24  C   UNL     1       7.346  25.622  56.512  1.00  0.00     0.136 C 
HETATM   25  C   UNL     1       5.931  25.203  56.928  1.00  0.00     0.048 C 
HETATM   26  C   UNL     1       8.349  25.249  57.624  1.00  0.00     0.048 C 
BRANCH  24  27
HETATM   27  N   UNL     1       7.760  24.825  55.201  1.00  0.00    -0.061 N 
HETATM   28  H   UNL     1       8.788  24.802  55.216  1.00  0.00     0.280 HD
HETATM   29  C   UNL     1       7.310  23.368  55.166  1.00  0.00     0.236 C 
HETATM   30  C   UNL     1       7.963  22.652  53.991  1.00  0.00     0.028 C 
HETATM   31  C   UNL     1       7.644  23.333  52.668  1.00  0.00     0.003 C 
HETATM   32  C   UNL     1       8.017  24.806  52.719  1.00  0.00     0.028 C 
HETATM   33  C   UNL     1       7.365  25.517  53.899  1.00  0.00     0.236 C 
ENDBRANCH  24  27
ENDBRANCH  23  24
ENDBRANCH   1  23
TORSDOF 7
ENDMDL
MODEL 2
REMARK VINA RESULT:      -9.5      1.420      1.930
REMARK  7 active torsions:
REMARK  status: ('A' for Active; 'I' for Inactive)
REMARK    1  A    between atoms: C_2  and  N_3 
REMARK    2  A    between atoms: C_2  and  C_10 
REMARK    3  A    between atoms: C_10  and  N_11 
REMARK       I    between atoms: N_11  and  C_12 
REMARK       I    between atoms: C_12  and  N_13 
REMARK    4  A    between atoms: N_13  and  C_14 
REMARK    5  A    between atoms: C_14  and  C_15 
REMARK    6  A    between atoms: C_18  and  N_19 
REMARK       I    between atoms: N_19  and  C_20 
REMARK    7  A    between atoms: C_20  and  C_21 
ROOT
HETATM    1  N   UNL     1       7.372  27.193  56.384  1.00  0.00    -0.341 N 
HETATM    2  C   UNL     1       8.140  28.322  56.512  1.00  0.00     0.316 C 
HETATM    3  N   UNL     1       8.187  28.782  57.794  1.00  0.00    -0.339 N 
HETATM    4  O   UNL     1       8.667  28.866  55.552  1.00  0.00    -0.248 OA
HETATM    5  H   UNL     1       7.228  26.651  57.226  1.00  0.00     0.164 HD
HETATM    6  H   UNL     1       7.871  28.204  58.555  1.00  0.00     0.164 HD
ENDROOT
BRANCH   3   7
HETATM    7  C   UNL     1       8.908  29.990  58.139  1.00  0.00     0.162 C 
BRANCH   7   8
HETATM    8  C   UNL     1       8.311  30.776  59.283  1.00  0.00    -0.040 A 
HETATM    9  C   UNL     1       7.200  31.617  59.149  1.00  0.00     0.011 A 
HETATM   10  C   UNL     1       6.658  32.282  60.257  1.00  0.00     0.030 A 
HETATM   11  C   UNL     1       7.205  32.106  61.528  1.00  0.00     0.035 A 
HETATM   12  C   UNL     1       8.313  31.268  61.671  1.00  0.00     0.030 A 
HETATM   13  C   UNL     1       8.859  30.610  60.564  1.00  0.00     0.011 A 
BRANCH  11  14
HETATM   14  N   UNL     1       6.697  32.704  62.695  1.00  0.00    -0.321 N 
HETATM   15  C   UNL     1       5.642  32.288  63.488  1.00  0.00     0.279 C 
HETATM   16  O   UNL     1       4.918  31.324  63.263  1.00  0.00    -0.265 OA
HETATM   17  H   UNL     1       7.167  33.540  63.029  1.00  0.00     0.169 HD
BRANCH  15  18
HETATM   18  C   UNL     1       5.465  33.131  64.658  1.00  0.00     0.142 A 
HETATM   19  O   UNL     1       4.195  33.443  65.077  1.00  0.00    -0.317 OA
HETATM   20  C   UNL     1       4.319  34.246  66.167  1.00  0.00     0.143 A 
HETATM   21  C   UNL     1       5.644  34.456  66.464  1.00  0.00     0.027 A 
HETATM   22  C   UNL     1       6.385  33.738  65.494  1.00  0.00     0.045 A 
ENDBRANCH  15  18
ENDBRANCH  11  14
ENDBRANCH   7   8
ENDBRANCH   3   7
BRANCH   1  23
HETATM   23  C   UNL     1       7.253  26.531  55.095  1.00  0.00     0.162 C 
BRANCH  23  24
HETATM   24  C   UNL     1       6.207  25.355  55.020  1.00  0.00     0.136 C 
HETATM   25  C   UNL     1       5.144  25.560  53.934  1.00  0.00     0.048 C 
HETATM   26  C   UNL     1       5.527  25.228  56.400  1.00  0.00     0.048 C 
BRANCH  24  27
HETATM   27  N   UNL     1       6.986  23.999  54.738  1.00  0.00    -0.061 N 
HETATM   28  H   UNL     1       6.391  23.262  55.139  1.00  0.00     0.280 HD
HETATM   29  C   UNL     1       7.147  23.648  53.262  1.00  0.00     0.236 C 
HETATM   30  C   UNL     1       7.686  22.229  53.123  1.00  0.00     0.028 C 
HETATM   31  C   UNL     1       9.009  22.056  53.854  1.00  0.00     0.003 C 
HETATM   32  C   UNL     1       8.879  22.478  55.308  1.00  0.00     0.028 C 
HETATM   33  C   UNL     1       8.335  23.895  55.442  1.00  0.00     0.236 C 
ENDBRANCH  24  27
ENDBRANCH  23  24
ENDBRANCH   1  23
TORSDOF 7
ENDMDL
MODEL 3
REMARK VINA RESULT:      -9.0      2.106      2.829
REMARK  7 active torsions:
REMARK  status: ('A' for Active; 'I' for Inactive)
REMARK    1  A    between atoms: C_2  and  N_3 
REMARK    2  A    between atoms: C_2  and  C_10 
REMARK    3  A    between atoms: C_10  and  N_11 
REMARK       I    between atoms: N_11  and  C_12 
REMARK       I    between atoms: C_12  and  N_13 
REMARK    4  A    between atoms: N_13  and  C_14 
REMARK    5  A    between atoms: C_14  and  C_15 
REMARK    6  A    between atoms: C_18  and  N_19 
REMARK       I    between atoms: N_19  and  C_20 
REMARK    7  A    between atoms: C_20  and  C_21 
ROOT
HETATM    1  N   UNL     1       6.849  28.275  54.944  1.00  0.00    -0.341 N 
HETATM    2  C   UNL     1       5.811  29.049  55.395  1.00  0.00     0.316 C 
HETATM    3  N   UNL     1       6.203  30.310  55.729  1.00  0.00    -0.339 N 
HETATM    4  O   UNL     1       4.677  28.609  55.526  1.00  0.00    -0.248 OA
HETATM    5  H   UNL     1       7.656  28.770  54.588  1.00  0.00     0.164 HD
HETATM    6  H   UNL     1       7.106  30.655  55.447  1.00  0.00     0.164 HD
ENDROOT
BRANCH   3   7
HETATM    7  C   UNL     1       5.269  31.276  56.270  1.00  0.00     0.162 C 
BRANCH   7   8
HETATM    8  C   UNL     1       5.472  31.601  57.731  1.00  0.00    -0.040 A 
HETATM    9  C   UNL     1       6.676  31.385  58.412  1.00  0.00     0.011 A 
HETATM   10  C   UNL     1       6.823  31.754  59.757  1.00  0.00     0.030 A 
HETATM   11  C   UNL     1       5.774  32.362  60.445  1.00  0.00     0.035 A 
HETATM   12  C   UNL     1       4.569  32.581  59.773  1.00  0.00     0.030 A 
HETATM   13  C   UNL     1       4.419  32.207  58.433  1.00  0.00     0.011 A 
BRANCH  11  14
HETATM   14  N   UNL     1       5.853  32.798  61.779  1.00  0.00    -0.321 N 
HETATM   15  C   UNL     1       5.321  32.210  62.912  1.00  0.00     0.279 C 
HETATM   16  O   UNL     1       4.620  31.202  62.930  1.00  0.00    -0.265 OA
HETATM   17  H   UNL     1       6.387  33.643  61.959  1.00  0.00     0.169 HD
BRANCH  15  18
HETATM   18  C   UNL     1       5.682  32.921  64.126  1.00  0.00     0.142 A 
HETATM   19  O   UNL     1       4.723  33.154  65.081  1.00  0.00    -0.317 OA
HETATM   20  C   UNL     1       5.319  33.842  66.089  1.00  0.00     0.143 A 
HETATM   21  C   UNL     1       6.648  34.056  65.807  1.00  0.00     0.027 A 
HETATM   22  C   UNL     1       6.884  33.463  64.544  1.00  0.00     0.045 A 
ENDBRANCH  15  18
ENDBRANCH  11  14
ENDBRANCH   7   8
ENDBRANCH   3   7
BRANCH   1  23
HETATM   23  C   UNL     1       6.605  26.915  54.491  1.00  0.00     0.162 C 
BRANCH  23  24
HETATM   24  C   UNL     1       6.915  25.777  55.535  1.00  0.00     0.136 C 
HETATM   25  C   UNL     1       5.657  25.217  56.210  1.00  0.00     0.048 C 
HETATM   26  C   UNL     1       7.870  26.351  56.603  1.00  0.00     0.048 C 
BRANCH  24  27
HETATM   27  N   UNL     1       7.675  24.597  54.790  1.00  0.00    -0.061 N 
HETATM   28  H   UNL     1       8.513  25.034  54.383  1.00  0.00     0.280 HD
HETATM   29  C   UNL     1       8.186  23.486  55.702  1.00  0.00     0.236 C 
HETATM   30  C   UNL     1       9.094  22.548  54.918  1.00  0.00     0.028 C 
HETATM   31  C   UNL     1       8.383  21.954  53.711  1.00  0.00     0.003 C 
HETATM   32  C   UNL     1       7.802  23.052  52.836  1.00  0.00     0.028 C 
HETATM   33  C   UNL     1       6.898  23.990  53.625  1.00  0.00     0.236 C 
ENDBRANCH  24  27
ENDBRANCH  23  24
ENDBRANCH   1  23
TORSDOF 7
ENDMDL
MODEL 4
REMARK VINA RESULT:      -8.9      2.739     12.067
REMARK  7 active torsions:
REMARK  status: ('A' for Active; 'I' for Inactive)
REMARK    1  A    between atoms: C_2  and  N_3 
REMARK    2  A    between atoms: C_2  and  C_10 
REMARK    3  A    between atoms: C_10  and  N_11 
REMARK       I    between atoms: N_11  and  C_12 
REMARK       I    between atoms: C_12  and  N_13 
REMARK    4  A    between atoms: N_13  and  C_14 
REMARK    5  A    between atoms: C_14  and  C_15 
REMARK    6  A    between atoms: C_18  and  N_19 
REMARK       I    between atoms: N_19  and  C_20 
REMARK    7  A    between atoms: C_20  and  C_21 
ROOT
HETATM    1  N   UNL     1       5.885  31.776  60.275  1.00  0.00    -0.341 N 
HETATM    2  C   UNL     1       6.657  31.584  59.158  1.00  0.00     0.316 C 
HETATM    3  N   UNL     1       6.311  30.461  58.468  1.00  0.00    -0.339 N 
HETATM    4  O   UNL     1       7.585  32.327  58.869  1.00  0.00    -0.248 OA
HETATM    5  H   UNL     1       4.983  31.317  60.281  1.00  0.00     0.164 HD
HETATM    6  H   UNL     1       5.444  29.988  58.664  1.00  0.00     0.164 HD
ENDROOT
BRANCH   3   7
HETATM    7  C   UNL     1       7.031  30.049  57.280  1.00  0.00     0.162 C 
BRANCH   7   8
HETATM    8  C   UNL     1       7.066  28.557  57.048  1.00  0.00    -0.040 A 
HETATM    9  C   UNL     1       6.012  27.839  56.470  1.00  0.00     0.011 A 
HETATM   10  C   UNL     1       6.121  26.462  56.232  1.00  0.00     0.030 A 
HETATM   11  C   UNL     1       7.292  25.777  56.551  1.00  0.00     0.035 A 
HETATM   12  C   UNL     1       8.349  26.486  57.127  1.00  0.00     0.030 A 
HETATM   13  C   UNL     1       8.238  27.859  57.372  1.00  0.00     0.011 A 
BRANCH  11  14
HETATM   14  N   UNL     1       7.496  24.407  56.307  1.00  0.00    -0.321 N 
HETATM   15  C   UNL     1       7.918  23.791  55.143  1.00  0.00     0.279 C 
HETATM   16  O   UNL     1       8.140  24.357  54.077  1.00  0.00    -0.265 OA
HETATM   17  H   UNL     1       7.339  23.771  57.083  1.00  0.00     0.169 HD
BRANCH  15  18
HETATM   18  C   UNL     1       8.082  22.356  55.304  1.00  0.00     0.142 A 
HETATM   19  O   UNL     1       8.419  21.852  56.536  1.00  0.00    -0.317 OA
HETATM   20  C   UNL     1       8.523  20.504  56.402  1.00  0.00     0.143 A 
HETATM   21  C   UNL     1       8.255  20.125  55.109  1.00  0.00     0.027 A 
HETATM   22  C   UNL     1       7.970  21.316  54.400  1.00  0.00     0.045 A 
ENDBRANCH  15  18
ENDBRANCH  11  14
ENDBRANCH   7   8
ENDBRANCH   3   7
BRANCH   1  23
HETATM   23  C   UNL     1       6.077  32.955  61.103  1.00  0.00     0.162 C 
BRANCH  23  24
HETATM   24  C   UNL     1       4.854  33.368  62.006  1.00  0.00     0.136 C 
HETATM   25  C   UNL     1       3.634  32.455  61.828  1.00  0.00     0.048 C 
HETATM   26  C   UNL     1       4.471  34.823  61.660  1.00  0.00     0.048 C 
BRANCH  24  27
HETATM   27  N   UNL     1       5.311  33.337  63.527  1.00  0.00    -0.061 N 
HETATM   28  H   UNL     1       5.281  32.344  63.794  1.00  0.00     0.280 HD
HETATM   29  C   UNL     1       6.745  33.793  63.776  1.00  0.00     0.236 C 
HETATM   30  C   UNL     1       7.142  33.494  65.216  1.00  0.00     0.028 C 
HETATM   31  C   UNL     1       6.198  34.157  66.209  1.00  0.00     0.003 C 
HETATM   32  C   UNL     1       4.757  33.770  65.921  1.00  0.00     0.028 C 
HETATM   33  C   UNL     1       4.366  34.067  64.478  1.00  0.00     0.236 C 
ENDBRANCH  24  27
ENDBRANCH  23  24
ENDBRANCH   1  23
TORSDOF 7
ENDMDL
MODEL 5
REMARK VINA RESULT:      -8.6      3.464     11.792
REMARK  7 active torsions:
REMARK  status: ('A' for Active; 'I' for Inactive)
REMARK    1  A    between atoms: C_2  and  N_3 
REMARK    2  A    between atoms: C_2  and  C_10 
REMARK    3  A    between atoms: C_10  and  N_11 
REMARK       I    between atoms: N_11  and  C_12 
REMARK       I    between atoms: C_12  and  N_13 
REMARK    4  A    between atoms: N_13  and  C_14 
REMARK    5  A    between atoms: C_14  and  C_15 
REMARK    6  A    between atoms: C_18  and  N_19 
REMARK       I    between atoms: N_19  and  C_20 
REMARK    7  A    between atoms: C_20  and  C_21 
ROOT
HETATM    1  N   UNL     1       3.695  30.992  59.599  1.00  0.00    -0.341 N 
HETATM    2  C   UNL     1       3.687  30.885  58.231  1.00  0.00     0.316 C 
HETATM    3  N   UNL     1       4.142  29.676  57.798  1.00  0.00    -0.339 N 
HETATM    4  O   UNL     1       3.355  31.811  57.505  1.00  0.00    -0.248 OA
HETATM    5  H   UNL     1       3.690  30.124  60.117  1.00  0.00     0.164 HD
HETATM    6  H   UNL     1       4.245  28.908  58.441  1.00  0.00     0.164 HD
ENDROOT
BRANCH   3   7
HETATM    7  C   UNL     1       4.257  29.371  56.386  1.00  0.00     0.162 C 
BRANCH   7   8
HETATM    8  C   UNL     1       4.918  28.049  56.077  1.00  0.00    -0.040 A 
HETATM    9  C   UNL     1       5.597  27.282  57.031  1.00  0.00     0.011 A 
HETATM   10  C   UNL     1       6.148  26.036  56.698  1.00  0.00     0.030 A 
HETATM   11  C   UNL     1       6.015  25.523  55.408  1.00  0.00     0.035 A 
HETATM   12  C   UNL     1       5.338  26.282  54.450  1.00  0.00     0.030 A 
HETATM   13  C   UNL     1       4.795  27.529  54.780  1.00  0.00     0.011 A 
BRANCH  11  14
HETATM   14  N   UNL     1       6.502  24.267  55.005  1.00  0.00    -0.321 N 
HETATM   15  C   UNL     1       7.514  23.981  54.107  1.00  0.00     0.279 C 
HETATM   16  O   UNL     1       8.140  24.808  53.452  1.00  0.00    -0.265 OA
HETATM   17  H   UNL     1       6.082  23.448  55.436  1.00  0.00     0.169 HD
BRANCH  15  18
HETATM   18  C   UNL     1       7.780  22.556  54.009  1.00  0.00     0.142 A 
HETATM   19  O   UNL     1       7.937  21.984  52.770  1.00  0.00    -0.317 OA
HETATM   20  C   UNL     1       8.155  20.657  52.966  1.00  0.00     0.143 A 
HETATM   21  C   UNL     1       8.147  20.360  54.308  1.00  0.00     0.027 A 
HETATM   22  C   UNL     1       7.906  21.581  54.982  1.00  0.00     0.045 A 
ENDBRANCH  15  18
ENDBRANCH  11  14
ENDBRANCH   7   8
ENDBRANCH   3   7
BRANCH   1  23
HETATM   23  C   UNL     1       3.191  32.195  60.241  1.00  0.00     0.162 C 
BRANCH  23  24
HETATM   24  C   UNL     1       4.229  32.994  61.116  1.00  0.00     0.136 C 
HETATM   25  C   UNL     1       3.755  33.227  62.556  1.00  0.00     0.048 C 
HETATM   26  C   UNL     1       4.494  34.350  60.428  1.00  0.00     0.048 C 
BRANCH  24  27
HETATM   27  N   UNL     1       5.599  32.189  61.142  1.00  0.00    -0.061 N 
HETATM   28  H   UNL     1       5.334  31.207  60.987  1.00  0.00     0.280 HD
HETATM   29  C   UNL     1       6.572  32.542  60.021  1.00  0.00     0.236 C 
HETATM   30  C   UNL     1       7.728  31.550  60.007  1.00  0.00     0.028 C 
HETATM   31  C   UNL     1       8.455  31.514  61.343  1.00  0.00     0.003 C 
HETATM   32  C   UNL     1       7.480  31.241  62.478  1.00  0.00     0.028 C 
HETATM   33  C   UNL     1       6.323  32.232  62.485  1.00  0.00     0.236 C 
ENDBRANCH  24  27
ENDBRANCH  23  24
ENDBRANCH   1  23
TORSDOF 7
ENDMDL
MODEL 6
REMARK VINA RESULT:      -8.6      4.690      7.808
REMARK  7 active torsions:
REMARK  status: ('A' for Active; 'I' for Inactive)
REMARK    1  A    between atoms: C_2  and  N_3 
REMARK    2  A    between atoms: C_2  and  C_10 
REMARK    3  A    between atoms: C_10  and  N_11 
REMARK       I    between atoms: N_11  and  C_12 
REMARK       I    between atoms: C_12  and  N_13 
REMARK    4  A    between atoms: N_13  and  C_14 
REMARK    5  A    between atoms: C_14  and  C_15 
REMARK    6  A    between atoms: C_18  and  N_19 
REMARK       I    between atoms: N_19  and  C_20 
REMARK    7  A    between atoms: C_20  and  C_21 
ROOT
HETATM    1  N   UNL     1       4.560  26.022  51.730  1.00  0.00    -0.341 N 
HETATM    2  C   UNL     1       5.525  25.673  52.640  1.00  0.00     0.316 C 
HETATM    3  N   UNL     1       5.000  25.264  53.829  1.00  0.00    -0.339 N 
HETATM    4  O   UNL     1       6.719  25.781  52.401  1.00  0.00    -0.248 OA
HETATM    5  H   UNL     1       3.638  25.633  51.881  1.00  0.00     0.164 HD
HETATM    6  H   UNL     1       4.020  25.044  53.906  1.00  0.00     0.164 HD
ENDROOT
BRANCH   3   7
HETATM    7  C   UNL     1       5.848  24.893  54.944  1.00  0.00     0.162 C 
BRANCH   7   8
HETATM    8  C   UNL     1       6.243  26.039  55.845  1.00  0.00    -0.040 A 
HETATM    9  C   UNL     1       5.370  27.067  56.218  1.00  0.00     0.011 A 
HETATM   10  C   UNL     1       5.778  28.079  57.099  1.00  0.00     0.030 A 
HETATM   11  C   UNL     1       7.063  28.073  57.640  1.00  0.00     0.035 A 
HETATM   12  C   UNL     1       7.941  27.049  57.274  1.00  0.00     0.030 A 
HETATM   13  C   UNL     1       7.536  26.044  56.389  1.00  0.00     0.011 A 
BRANCH  11  14
HETATM   14  N   UNL     1       7.536  29.025  58.560  1.00  0.00    -0.321 N 
HETATM   15  C   UNL     1       8.515  29.986  58.382  1.00  0.00     0.279 C 
HETATM   16  O   UNL     1       9.192  30.134  57.369  1.00  0.00    -0.265 OA
HETATM   17  H   UNL     1       7.098  29.041  59.476  1.00  0.00     0.169 HD
BRANCH  15  18
HETATM   18  C   UNL     1       8.672  30.839  59.547  1.00  0.00     0.142 A 
HETATM   19  O   UNL     1       8.307  32.160  59.468  1.00  0.00    -0.317 OA
HETATM   20  C   UNL     1       8.571  32.722  60.678  1.00  0.00     0.143 A 
HETATM   21  C   UNL     1       9.095  31.788  61.539  1.00  0.00     0.027 A 
HETATM   22  C   UNL     1       9.161  30.574  60.814  1.00  0.00     0.045 A 
ENDBRANCH  15  18
ENDBRANCH  11  14
ENDBRANCH   7   8
ENDBRANCH   3   7
BRANCH   1  23
HETATM   23  C   UNL     1       4.936  26.431  50.386  1.00  0.00     0.162 C 
BRANCH  23  24
HETATM   24  C   UNL     1       4.485  27.878  49.956  1.00  0.00     0.136 C 
HETATM   25  C   UNL     1       5.647  28.758  49.481  1.00  0.00     0.048 C 
HETATM   26  C   UNL     1       3.786  28.541  51.162  1.00  0.00     0.048 C 
BRANCH  24  27
HETATM   27  N   UNL     1       3.416  27.751  48.788  1.00  0.00    -0.061 N 
HETATM   28  H   UNL     1       3.820  28.274  47.999  1.00  0.00     0.280 HD
HETATM   29  C   UNL     1       3.191  26.332  48.275  1.00  0.00     0.236 C 
HETATM   30  C   UNL     1       2.339  26.366  47.012  1.00  0.00     0.028 C 
HETATM   31  C   UNL     1       1.005  27.058  47.251  1.00  0.00     0.003 C 
HETATM   32  C   UNL     1       1.217  28.445  47.836  1.00  0.00     0.028 C 
HETATM   33  C   UNL     1       2.073  28.407  49.096  1.00  0.00     0.236 C 
ENDBRANCH  24  27
ENDBRANCH  23  24
ENDBRANCH   1  23
TORSDOF 7
ENDMDL
MODEL 7
REMARK VINA RESULT:      -8.5      2.185     12.148
REMARK  7 active torsions:
REMARK  status: ('A' for Active; 'I' for Inactive)
REMARK    1  A    between atoms: C_2  and  N_3 
REMARK    2  A    between atoms: C_2  and  C_10 
REMARK    3  A    between atoms: C_10  and  N_11 
REMARK       I    between atoms: N_11  and  C_12 
REMARK       I    between atoms: C_12  and  N_13 
REMARK    4  A    between atoms: N_13  and  C_14 
REMARK    5  A    between atoms: C_14  and  C_15 
REMARK    6  A    between atoms: C_18  and  N_19 
REMARK       I    between atoms: N_19  and  C_20 
REMARK    7  A    between atoms: C_20  and  C_21 
ROOT
HETATM    1  N   UNL     1       5.356  31.911  61.663  1.00  0.00    -0.341 N 
HETATM    2  C   UNL     1       6.572  31.740  61.052  1.00  0.00     0.316 C 
HETATM    3  N   UNL     1       6.459  31.512  59.713  1.00  0.00    -0.339 N 
HETATM    4  O   UNL     1       7.623  31.741  61.677  1.00  0.00    -0.248 OA
HETATM    5  H   UNL     1       4.589  32.191  61.065  1.00  0.00     0.164 HD
HETATM    6  H   UNL     1       5.588  31.684  59.238  1.00  0.00     0.164 HD
ENDROOT
BRANCH   3   7
HETATM    7  C   UNL     1       7.622  31.260  58.887  1.00  0.00     0.162 C 
BRANCH   7   8
HETATM    8  C   UNL     1       7.552  29.993  58.068  1.00  0.00    -0.040 A 
HETATM    9  C   UNL     1       6.371  29.503  57.499  1.00  0.00     0.011 A 
HETATM   10  C   UNL     1       6.375  28.347  56.705  1.00  0.00     0.030 A 
HETATM   11  C   UNL     1       7.565  27.667  56.449  1.00  0.00     0.035 A 
HETATM   12  C   UNL     1       8.749  28.150  57.012  1.00  0.00     0.030 A 
HETATM   13  C   UNL     1       8.744  29.299  57.811  1.00  0.00     0.011 A 
BRANCH  11  14
HETATM   14  N   UNL     1       7.662  26.527  55.632  1.00  0.00    -0.321 N 
HETATM   15  C   UNL     1       7.572  25.195  55.994  1.00  0.00     0.279 C 
HETATM   16  O   UNL     1       7.442  24.775  57.140  1.00  0.00    -0.265 OA
HETATM   17  H   UNL     1       7.792  26.681  54.636  1.00  0.00     0.169 HD
BRANCH  15  18
HETATM   18  C   UNL     1       7.647  24.304  54.849  1.00  0.00     0.142 A 
HETATM   19  O   UNL     1       8.031  24.806  53.630  1.00  0.00    -0.317 OA
HETATM   20  C   UNL     1       7.999  23.775  52.744  1.00  0.00     0.143 A 
HETATM   21  C   UNL     1       7.606  22.615  53.368  1.00  0.00     0.027 A 
HETATM   22  C   UNL     1       7.379  22.953  54.724  1.00  0.00     0.045 A 
ENDBRANCH  15  18
ENDBRANCH  11  14
ENDBRANCH   7   8
ENDBRANCH   3   7
BRANCH   1  23
HETATM   23  C   UNL     1       5.287  32.219  63.082  1.00  0.00     0.162 C 
BRANCH  23  24
HETATM   24  C   UNL     1       4.715  33.640  63.450  1.00  0.00     0.136 C 
HETATM   25  C   UNL     1       3.251  33.830  63.033  1.00  0.00     0.048 C 
HETATM   26  C   UNL     1       5.596  34.705  62.764  1.00  0.00     0.048 C 
BRANCH  24  27
HETATM   27  N   UNL     1       4.840  33.847  65.020  1.00  0.00    -0.061 N 
HETATM   28  H   UNL     1       4.611  32.931  65.429  1.00  0.00     0.280 HD
HETATM   29  C   UNL     1       6.243  34.185  65.513  1.00  0.00     0.236 C 
HETATM   30  C   UNL     1       6.287  34.122  67.035  1.00  0.00     0.028 C 
HETATM   31  C   UNL     1       5.267  35.057  67.667  1.00  0.00     0.003 C 
HETATM   32  C   UNL     1       3.875  34.780  67.123  1.00  0.00     0.028 C 
HETATM   33  C   UNL     1       3.836  34.839  65.601  1.00  0.00     0.236 C 
ENDBRANCH  24  27
ENDBRANCH  23  24
ENDBRANCH   1  23
TORSDOF 7
ENDMDL
MODEL 8
REMARK VINA RESULT:      -8.4      2.209     11.514
REMARK  7 active torsions:
REMARK  status: ('A' for Active; 'I' for Inactive)
REMARK    1  A    between atoms: C_2  and  N_3 
REMARK    2  A    between atoms: C_2  and  C_10 
REMARK    3  A    between atoms: C_10  and  N_11 
REMARK       I    between atoms: N_11  and  C_12 
REMARK       I    between atoms: C_12  and  N_13 
REMARK    4  A    between atoms: N_13  and  C_14 
REMARK    5  A    between atoms: C_14  and  C_15 
REMARK    6  A    between atoms: C_18  and  N_19 
REMARK       I    between atoms: N_19  and  C_20 
REMARK    7  A    between atoms: C_20  and  C_21 
ROOT
HETATM    1  N   UNL     1       5.931  32.520  62.017  1.00  0.00    -0.341 N 
HETATM    2  C   UNL     1       7.185  32.170  61.588  1.00  0.00     0.316 C 
HETATM    3  N   UNL     1       7.366  32.395  60.256  1.00  0.00    -0.339 N 
HETATM    4  O   UNL     1       8.012  31.660  62.332  1.00  0.00    -0.248 OA
HETATM    5  H   UNL     1       5.430  33.187  61.443  1.00  0.00     0.164 HD
HETATM    6  H   UNL     1       6.712  32.960  59.740  1.00  0.00     0.164 HD
ENDROOT
BRANCH   3   7
HETATM    7  C   UNL     1       8.607  32.052  59.591  1.00  0.00     0.162 C 
BRANCH   7   8
HETATM    8  C   UNL     1       8.531  30.834  58.701  1.00  0.00    -0.040 A 
HETATM    9  C   UNL     1       9.648  30.247  58.096  1.00  0.00     0.011 A 
HETATM   10  C   UNL     1       9.524  29.085  57.321  1.00  0.00     0.030 A 
HETATM   11  C   UNL     1       8.281  28.476  57.149  1.00  0.00     0.035 A 
HETATM   12  C   UNL     1       7.161  29.055  57.750  1.00  0.00     0.030 A 
HETATM   13  C   UNL     1       7.284  30.219  58.518  1.00  0.00     0.011 A 
BRANCH  11  14
HETATM   14  N   UNL     1       8.078  27.290  56.422  1.00  0.00    -0.321 N 
HETATM   15  C   UNL     1       8.009  25.991  56.892  1.00  0.00     0.279 C 
HETATM   16  O   UNL     1       8.173  25.645  58.058  1.00  0.00    -0.265 OA
HETATM   17  H   UNL     1       7.939  27.379  55.420  1.00  0.00     0.169 HD
BRANCH  15  18
HETATM   18  C   UNL     1       7.710  25.036  55.838  1.00  0.00     0.142 A 
HETATM   19  O   UNL     1       6.630  25.254  55.019  1.00  0.00    -0.317 OA
HETATM   20  C   UNL     1       6.573  24.214  54.146  1.00  0.00     0.143 A 
HETATM   21  C   UNL     1       7.599  23.331  54.380  1.00  0.00     0.027 A 
HETATM   22  C   UNL     1       8.334  23.858  55.469  1.00  0.00     0.045 A 
ENDBRANCH  15  18
ENDBRANCH  11  14
ENDBRANCH   7   8
ENDBRANCH   3   7
BRANCH   1  23
HETATM   23  C   UNL     1       5.578  32.400  63.421  1.00  0.00     0.162 C 
BRANCH  23  24
HETATM   24  C   UNL     1       5.668  33.724  64.269  1.00  0.00     0.136 C 
HETATM   25  C   UNL     1       7.091  34.045  64.741  1.00  0.00     0.048 C 
HETATM   26  C   UNL     1       4.734  33.579  65.489  1.00  0.00     0.048 C 
BRANCH  24  27
HETATM   27  N   UNL     1       5.127  34.930  63.388  1.00  0.00    -0.061 N 
HETATM   28  H   UNL     1       5.174  34.593  62.417  1.00  0.00     0.280 HD
HETATM   29  C   UNL     1       3.667  35.299  63.631  1.00  0.00     0.236 C 
HETATM   30  C   UNL     1       3.199  36.291  62.573  1.00  0.00     0.028 C 
HETATM   31  C   UNL     1       4.063  37.543  62.556  1.00  0.00     0.003 C 
HETATM   32  C   UNL     1       5.530  37.182  62.393  1.00  0.00     0.028 C 
HETATM   33  C   UNL     1       5.992  36.186  63.449  1.00  0.00     0.236 C 
ENDBRANCH  24  27
ENDBRANCH  23  24
ENDBRANCH   1  23
TORSDOF 7
ENDMDL
MODEL 9
REMARK VINA RESULT:      -8.3      2.156     11.745
REMARK  7 active torsions:
REMARK  status: ('A' for Active; 'I' for Inactive)
REMARK    1  A    between atoms: C_2  and  N_3 
REMARK    2  A    between atoms: C_2  and  C_10 
REMARK    3  A    between atoms: C_10  and  N_11 
REMARK       I    between atoms: N_11  and  C_12 
REMARK       I    between atoms: C_12  and  N_13 
REMARK    4  A    between atoms: N_13  and  C_14 
REMARK    5  A    between atoms: C_14  and  C_15 
REMARK    6  A    between atoms: C_18  and  N_19 
REMARK       I    between atoms: N_19  and  C_20 
REMARK    7  A    between atoms: C_20  and  C_21 
ROOT
HETATM    1  N   UNL     1       6.588  32.752  61.608  1.00  0.00    -0.341 N 
HETATM    2  C   UNL     1       7.778  32.144  61.299  1.00  0.00     0.316 C 
HETATM    3  N   UNL     1       8.162  32.368  60.011  1.00  0.00    -0.339 N 
HETATM    4  O   UNL     1       8.377  31.436  62.096  1.00  0.00    -0.248 OA
HETATM    5  H   UNL     1       6.319  33.534  61.025  1.00  0.00     0.164 HD
HETATM    6  H   UNL     1       7.715  33.083  59.461  1.00  0.00     0.164 HD
ENDROOT
BRANCH   3   7
HETATM    7  C   UNL     1       9.368  31.778  59.466  1.00  0.00     0.162 C 
BRANCH   7   8
HETATM    8  C   UNL     1       9.140  30.569  58.590  1.00  0.00    -0.040 A 
HETATM    9  C   UNL     1      10.069  30.108  57.650  1.00  0.00     0.011 A 
HETATM   10  C   UNL     1       9.824  28.948  56.900  1.00  0.00     0.030 A 
HETATM   11  C   UNL     1       8.652  28.217  57.086  1.00  0.00     0.035 A 
HETATM   12  C   UNL     1       7.720  28.670  58.023  1.00  0.00     0.030 A 
HETATM   13  C   UNL     1       7.960  29.831  58.766  1.00  0.00     0.011 A 
BRANCH  11  14
HETATM   14  N   UNL     1       8.350  27.024  56.405  1.00  0.00    -0.321 N 
HETATM   15  C   UNL     1       8.193  25.751  56.923  1.00  0.00     0.279 C 
HETATM   16  O   UNL     1       8.350  25.435  58.098  1.00  0.00    -0.265 OA
HETATM   17  H   UNL     1       8.202  27.089  55.403  1.00  0.00     0.169 HD
BRANCH  15  18
HETATM   18  C   UNL     1       7.808  24.785  55.907  1.00  0.00     0.142 A 
HETATM   19  O   UNL     1       7.646  23.468  56.259  1.00  0.00    -0.317 OA
HETATM   20  C   UNL     1       7.306  22.791  55.130  1.00  0.00     0.143 A 
HETATM   21  C   UNL     1       7.241  23.646  54.056  1.00  0.00     0.027 A 
HETATM   22  C   UNL     1       7.563  24.931  54.554  1.00  0.00     0.045 A 
ENDBRANCH  15  18
ENDBRANCH  11  14
ENDBRANCH   7   8
ENDBRANCH   3   7
BRANCH   1  23
HETATM   23  C   UNL     1       6.051  32.666  62.956  1.00  0.00     0.162 C 
BRANCH  23  24
HETATM   24  C   UNL     1       6.310  33.915  63.881  1.00  0.00     0.136 C 
HETATM   25  C   UNL     1       6.455  35.227  63.100  1.00  0.00     0.048 C 
HETATM   26  C   UNL     1       7.593  33.650  64.698  1.00  0.00     0.048 C 
BRANCH  24  27
HETATM   27  N   UNL     1       5.103  34.048  64.905  1.00  0.00    -0.061 N 
HETATM   28  H   UNL     1       4.709  33.101  64.978  1.00  0.00     0.280 HD
HETATM   29  C   UNL     1       5.505  34.445  66.322  1.00  0.00     0.236 C 
HETATM   30  C   UNL     1       4.310  34.307  67.257  1.00  0.00     0.028 C 
HETATM   31  C   UNL     1       3.130  35.145  66.790  1.00  0.00     0.003 C 
HETATM   32  C   UNL     1       2.771  34.814  65.351  1.00  0.00     0.028 C 
HETATM   33  C   UNL     1       3.970  34.948  64.420  1.00  0.00     0.236 C 
ENDBRANCH  24  27
ENDBRANCH  23  24
ENDBRANCH   1  23
TORSDOF 7
ENDMDL
MODEL 10
REMARK VINA RESULT:      -8.2      8.350     11.903
REMARK  7 active torsions:
REMARK  status: ('A' for Active; 'I' for Inactive)
REMARK    1  A    between atoms: C_2  and  N_3 
REMARK    2  A    between atoms: C_2  and  C_10 
REMARK    3  A    between atoms: C_10  and  N_11 
REMARK       I    between atoms: N_11  and  C_12 
REMARK       I    between atoms: C_12  and  N_13 
REMARK    4  A    between atoms: N_13  and  C_14 
REMARK    5  A    between atoms: C_14  and  C_15 
REMARK    6  A    between atoms: C_18  and  N_19 
REMARK       I    between atoms: N_19  and  C_20 
REMARK    7  A    between atoms: C_20  and  C_21 
ROOT
HETATM    1  N   UNL     1       2.522  29.953  50.668  1.00  0.00    -0.341 N 
HETATM    2  C   UNL     1       3.412  30.026  51.709  1.00  0.00     0.316 C 
HETATM    3  N   UNL     1       3.105  29.168  52.722  1.00  0.00    -0.339 N 
HETATM    4  O   UNL     1       4.338  30.825  51.723  1.00  0.00    -0.248 OA
HETATM    5  H   UNL     1       1.988  29.098  50.593  1.00  0.00     0.164 HD
HETATM    6  H   UNL     1       2.434  28.431  52.581  1.00  0.00     0.164 HD
ENDROOT
BRANCH   3   7
HETATM    7  C   UNL     1       3.892  29.117  53.937  1.00  0.00     0.162 C 
BRANCH   7   8
HETATM    8  C   UNL     1       4.651  27.828  54.145  1.00  0.00    -0.040 A 
HETATM    9  C   UNL     1       5.382  27.538  55.303  1.00  0.00     0.011 A 
HETATM   10  C   UNL     1       6.024  26.302  55.462  1.00  0.00     0.030 A 
HETATM   11  C   UNL     1       5.935  25.323  54.473  1.00  0.00     0.035 A 
HETATM   12  C   UNL     1       5.207  25.604  53.315  1.00  0.00     0.030 A 
HETATM   13  C   UNL     1       4.571  26.840  53.153  1.00  0.00     0.011 A 
BRANCH  11  14
HETATM   14  N   UNL     1       6.515  24.046  54.573  1.00  0.00    -0.321 N 
HETATM   15  C   UNL     1       7.611  23.541  53.898  1.00  0.00     0.279 C 
HETATM   16  O   UNL     1       8.248  24.130  53.030  1.00  0.00    -0.265 OA
HETATM   17  H   UNL     1       6.102  23.402  55.241  1.00  0.00     0.169 HD
BRANCH  15  18
HETATM   18  C   UNL     1       7.955  22.196  54.329  1.00  0.00     0.142 A 
HETATM   19  O   UNL     1       8.548  21.335  53.439  1.00  0.00    -0.317 OA
HETATM   20  C   UNL     1       8.742  20.158  54.090  1.00  0.00     0.143 A 
HETATM   21  C   UNL     1       8.291  20.242  55.385  1.00  0.00     0.027 A 
HETATM   22  C   UNL     1       7.784  21.554  55.542  1.00  0.00     0.045 A 
ENDBRANCH  15  18
ENDBRANCH  11  14
ENDBRANCH   7   8
ENDBRANCH   3   7
BRANCH   1  23
HETATM   23  C   UNL     1       2.724  30.760  49.476  1.00  0.00     0.162 C 
BRANCH  23  24
HETATM   24  C   UNL     1       3.444  30.041  48.273  1.00  0.00     0.136 C 
HETATM   25  C   UNL     1       4.939  30.372  48.177  1.00  0.00     0.048 C 
HETATM   26  C   UNL     1       2.733  30.459  46.968  1.00  0.00     0.048 C 
BRANCH  24  27
HETATM   27  N   UNL     1       3.267  28.471  48.439  1.00  0.00    -0.061 N 
HETATM   28  H   UNL     1       2.650  28.357  49.254  1.00  0.00     0.280 HD
HETATM   29  C   UNL     1       2.559  27.779  47.279  1.00  0.00     0.236 C 
HETATM   30  C   UNL     1       2.235  26.338  47.654  1.00  0.00     0.028 C 
HETATM   31  C   UNL     1       3.485  25.564  48.045  1.00  0.00     0.003 C 
HETATM   32  C   UNL     1       4.242  26.287  49.148  1.00  0.00     0.028 C 
HETATM   33  C   UNL     1       4.558  27.729  48.770  1.00  0.00     0.236 C 
ENDBRANCH  24  27
ENDBRANCH  23  24
ENDBRANCH   1  23
TORSDOF 7
ENDMDL
