MODEL 1
REMARK VINA RESULT:      -8.5      0.000      0.000
REMARK  3 active torsions:
REMARK  status: ('A' for Active; 'I' for Inactive)
REMARK    1  A    between atoms: C_11  and  N_12 
REMARK       I    between atoms: N_12  and  C_13 
REMARK    2  A    between atoms: C_13  and  C_14 
REMARK    3  A    between atoms: C_15  and  O_16 
ROOT
HETATM    1  N   UNL     1       7.571  25.150  54.670  1.00  0.00    -0.352 N 
HETATM    2  C   UNL     1       8.286  24.464  55.637  1.00  0.00     0.254 C 
HETATM    3  O   UNL     1       8.757  24.992  56.638  1.00  0.00    -0.268 OA
HETATM    4  H   UNL     1       7.368  24.635  53.821  1.00  0.00     0.163 HD
ENDROOT
BRANCH   1   5
HETATM    5  C   UNL     1       7.495  26.605  54.598  1.00  0.00     0.089 C 
HETATM    6  C   UNL     1       6.946  27.335  55.832  1.00  0.00     0.063 C 
HETATM    7  C   UNL     1       5.449  27.145  56.095  1.00  0.00     0.121 C 
HETATM    8  N   UNL     1       4.678  27.436  54.821  1.00  0.00    -0.059 N 
HETATM    9  C   UNL     1       5.061  25.769  56.645  1.00  0.00     0.046 C 
HETATM   10  C   UNL     1       4.982  28.197  57.125  1.00  0.00     0.046 C 
HETATM   11  C   UNL     1       5.164  26.901  53.491  1.00  0.00     0.121 C 
HETATM   12  H   UNL     1       4.624  28.461  54.736  1.00  0.00     0.279 HD
HETATM   13  H   UNL     1       3.698  27.147  54.961  1.00  0.00     0.279 HD
HETATM   14  C   UNL     1       4.675  25.461  53.292  1.00  0.00     0.046 C 
HETATM   15  C   UNL     1       4.484  27.769  52.410  1.00  0.00     0.046 C 
HETATM   16  C   UNL     1       6.692  27.056  53.370  1.00  0.00     0.063 C 
ENDBRANCH   1   5
BRANCH   2  17
HETATM   17  C   UNL     1       8.365  22.987  55.502  1.00  0.00     0.066 A 
HETATM   18  C   UNL     1       8.352  22.201  56.665  1.00  0.00     0.081 A 
HETATM   19  C   UNL     1       8.338  20.811  56.583  1.00  0.00     0.039 A 
HETATM   20  C   UNL     1       8.365  20.191  55.335  1.00  0.00     0.026 A 
HETATM   21  C   UNL     1       8.415  20.968  54.178  1.00  0.00     0.035 A 
HETATM   22 CL   UNL     1       8.461  20.204  52.637  1.00  0.00    -0.084 Cl
HETATM   23  C   UNL     1       8.419  22.362  54.251  1.00  0.00     0.043 A 
BRANCH  18  24
HETATM   24  O   UNL     1       8.337  22.738  57.924  1.00  0.00    -0.360 OA
HETATM   25  H   UNL     1       7.779  22.165  58.493  1.00  0.00     0.217 HD
ENDBRANCH  18  24
ENDBRANCH   2  17
TORSDOF 3
ENDMDL
MODEL 2
REMARK VINA RESULT:      -7.8      1.884      2.515
REMARK  3 active torsions:
REMARK  status: ('A' for Active; 'I' for Inactive)
REMARK    1  A    between atoms: C_11  and  N_12 
REMARK       I    between atoms: N_12  and  C_13 
REMARK    2  A    between atoms: C_13  and  C_14 
REMARK    3  A    between atoms: C_15  and  O_16 
ROOT
HETATM    1  N   UNL     1       7.636  26.292  54.677  1.00  0.00    -0.352 N 
HETATM    2  C   UNL     1       7.578  25.328  53.685  1.00  0.00     0.254 C 
HETATM    3  O   UNL     1       7.516  25.586  52.488  1.00  0.00    -0.268 OA
HETATM    4  H   UNL     1       7.530  25.957  55.628  1.00  0.00     0.163 HD
ENDROOT
BRANCH   1   5
HETATM    5  C   UNL     1       7.393  27.712  54.444  1.00  0.00     0.089 C 
HETATM    6  C   UNL     1       8.156  28.704  55.332  1.00  0.00     0.063 C 
HETATM    7  C   UNL     1       7.718  28.743  56.799  1.00  0.00     0.121 C 
HETATM    8  N   UNL     1       6.211  28.900  56.865  1.00  0.00    -0.059 N 
HETATM    9  C   UNL     1       8.161  27.539  57.636  1.00  0.00     0.046 C 
HETATM   10  C   UNL     1       8.307  30.005  57.466  1.00  0.00     0.046 C 
HETATM   11  C   UNL     1       5.313  28.090  55.955  1.00  0.00     0.121 C 
HETATM   12  H   UNL     1       6.009  29.895  56.685  1.00  0.00     0.279 HD
HETATM   13  H   UNL     1       5.911  28.760  57.842  1.00  0.00     0.279 HD
HETATM   14  C   UNL     1       5.056  26.706  56.564  1.00  0.00     0.046 C 
HETATM   15  C   UNL     1       3.961  28.833  55.919  1.00  0.00     0.046 C 
HETATM   16  C   UNL     1       5.895  28.037  54.528  1.00  0.00     0.063 C 
ENDBRANCH   1   5
BRANCH   2  17
HETATM   17  C   UNL     1       7.730  23.912  54.106  1.00  0.00     0.066 A 
HETATM   18  C   UNL     1       7.546  23.587  55.458  1.00  0.00     0.081 A 
HETATM   19  C   UNL     1       7.594  22.262  55.884  1.00  0.00     0.039 A 
HETATM   20  C   UNL     1       7.857  21.249  54.962  1.00  0.00     0.026 A 
HETATM   21  C   UNL     1       8.077  21.571  53.624  1.00  0.00     0.035 A 
HETATM   22 CL   UNL     1       8.413  20.324  52.489  1.00  0.00    -0.084 Cl
HETATM   23  C   UNL     1       8.019  22.896  53.188  1.00  0.00     0.043 A 
BRANCH  18  24
HETATM   24  O   UNL     1       7.297  24.528  56.421  1.00  0.00    -0.360 OA
HETATM   25  H   UNL     1       7.693  24.214  57.264  1.00  0.00     0.217 HD
ENDBRANCH  18  24
ENDBRANCH   2  17
TORSDOF 3
ENDMDL
MODEL 3
REMARK VINA RESULT:      -7.8      2.098      3.636
REMARK  3 active torsions:
REMARK  status: ('A' for Active; 'I' for Inactive)
REMARK    1  A    between atoms: C_11  and  N_12 
REMARK       I    between atoms: N_12  and  C_13 
REMARK    2  A    between atoms: C_13  and  C_14 
REMARK    3  A    between atoms: C_15  and  O_16 
ROOT
HETATM    1  N   UNL     1       5.561  26.811  55.863  1.00  0.00    -0.352 N 
HETATM    2  C   UNL     1       5.727  25.619  56.546  1.00  0.00     0.254 C 
HETATM    3  O   UNL     1       4.951  25.211  57.402  1.00  0.00    -0.268 OA
HETATM    4  H   UNL     1       6.345  27.110  55.294  1.00  0.00     0.163 HD
ENDROOT
BRANCH   1   5
HETATM    5  C   UNL     1       4.588  27.832  56.238  1.00  0.00     0.089 C 
HETATM    6  C   UNL     1       3.881  28.574  55.095  1.00  0.00     0.063 C 
HETATM    7  C   UNL     1       4.763  29.534  54.291  1.00  0.00     0.121 C 
HETATM    8  N   UNL     1       5.503  30.450  55.248  1.00  0.00    -0.059 N 
HETATM    9  C   UNL     1       5.752  28.855  53.338  1.00  0.00     0.046 C 
HETATM   10  C   UNL     1       3.861  30.450  53.437  1.00  0.00     0.046 C 
HETATM   11  C   UNL     1       6.145  29.895  56.501  1.00  0.00     0.121 C 
HETATM   12  H   UNL     1       4.832  31.173  55.544  1.00  0.00     0.279 HD
HETATM   13  H   UNL     1       6.212  30.975  54.713  1.00  0.00     0.279 HD
HETATM   14  C   UNL     1       7.537  29.338  56.178  1.00  0.00     0.046 C 
HETATM   15  C   UNL     1       6.342  31.099  57.447  1.00  0.00     0.046 C 
HETATM   16  C   UNL     1       5.213  28.872  57.179  1.00  0.00     0.063 C 
ENDBRANCH   1   5
BRANCH   2  17
HETATM   17  C   UNL     1       6.842  24.739  56.112  1.00  0.00     0.066 A 
HETATM   18  C   UNL     1       7.921  24.536  56.986  1.00  0.00     0.081 A 
HETATM   19  C   UNL     1       8.947  23.653  56.657  1.00  0.00     0.039 A 
HETATM   20  C   UNL     1       8.917  22.984  55.435  1.00  0.00     0.026 A 
HETATM   21  C   UNL     1       7.865  23.210  54.547  1.00  0.00     0.035 A 
HETATM   22 CL   UNL     1       7.834  22.393  53.034  1.00  0.00    -0.084 Cl
HETATM   23  C   UNL     1       6.828  24.085  54.875  1.00  0.00     0.043 A 
BRANCH  18  24
HETATM   24  O   UNL     1       8.024  25.168  58.197  1.00  0.00    -0.360 OA
HETATM   25  H   UNL     1       7.160  25.088  58.656  1.00  0.00     0.217 HD
ENDBRANCH  18  24
ENDBRANCH   2  17
TORSDOF 3
ENDMDL
MODEL 4
REMARK VINA RESULT:      -7.7      2.449      4.002
REMARK  3 active torsions:
REMARK  status: ('A' for Active; 'I' for Inactive)
REMARK    1  A    between atoms: C_11  and  N_12 
REMARK       I    between atoms: N_12  and  C_13 
REMARK    2  A    between atoms: C_13  and  C_14 
REMARK    3  A    between atoms: C_15  and  O_16 
ROOT
HETATM    1  N   UNL     1       7.102  26.519  56.254  1.00  0.00    -0.352 N 
HETATM    2  C   UNL     1       6.438  25.351  55.922  1.00  0.00     0.254 C 
HETATM    3  O   UNL     1       5.395  24.986  56.453  1.00  0.00    -0.268 OA
HETATM    4  H   UNL     1       8.027  26.632  55.855  1.00  0.00     0.163 HD
ENDROOT
BRANCH   1   5
HETATM    5  C   UNL     1       6.781  27.330  57.424  1.00  0.00     0.089 C 
HETATM    6  C   UNL     1       5.538  28.226  57.330  1.00  0.00     0.063 C 
HETATM    7  C   UNL     1       5.661  29.421  56.381  1.00  0.00     0.121 C 
HETATM    8  N   UNL     1       6.936  30.180  56.696  1.00  0.00    -0.059 N 
HETATM    9  C   UNL     1       5.610  29.069  54.891  1.00  0.00     0.046 C 
HETATM   10  C   UNL     1       4.502  30.404  56.658  1.00  0.00     0.046 C 
HETATM   11  C   UNL     1       8.229  29.435  56.952  1.00  0.00     0.121 C 
HETATM   12  H   UNL     1       6.743  30.749  57.532  1.00  0.00     0.279 HD
HETATM   13  H   UNL     1       7.093  30.877  55.952  1.00  0.00     0.279 HD
HETATM   14  C   UNL     1       8.919  29.105  55.622  1.00  0.00     0.046 C 
HETATM   15  C   UNL     1       9.144  30.419  57.710  1.00  0.00     0.046 C 
HETATM   16  C   UNL     1       7.976  28.200  57.838  1.00  0.00     0.063 C 
ENDBRANCH   1   5
BRANCH   2  17
HETATM   17  C   UNL     1       6.963  24.577  54.769  1.00  0.00     0.066 A 
HETATM   18  C   UNL     1       7.332  25.268  53.604  1.00  0.00     0.081 A 
HETATM   19  C   UNL     1       7.909  24.595  52.530  1.00  0.00     0.039 A 
HETATM   20  C   UNL     1       8.096  23.215  52.599  1.00  0.00     0.026 A 
HETATM   21  C   UNL     1       7.697  22.519  53.740  1.00  0.00     0.035 A 
HETATM   22 CL   UNL     1       7.917  20.815  53.822  1.00  0.00    -0.084 Cl
HETATM   23  C   UNL     1       7.128  23.189  54.825  1.00  0.00     0.043 A 
BRANCH  18  24
HETATM   24  O   UNL     1       7.167  26.619  53.459  1.00  0.00    -0.360 OA
HETATM   25  H   UNL     1       7.423  27.050  54.304  1.00  0.00     0.217 HD
ENDBRANCH  18  24
ENDBRANCH   2  17
TORSDOF 3
ENDMDL
MODEL 5
REMARK VINA RESULT:      -7.6      3.996      6.576
REMARK  3 active torsions:
REMARK  status: ('A' for Active; 'I' for Inactive)
REMARK    1  A    between atoms: C_11  and  N_12 
REMARK       I    between atoms: N_12  and  C_13 
REMARK    2  A    between atoms: C_13  and  C_14 
REMARK    3  A    between atoms: C_15  and  O_16 
ROOT
HETATM    1  N   UNL     1       6.762  27.374  57.121  1.00  0.00    -0.352 N 
HETATM    2  C   UNL     1       6.485  28.709  57.362  1.00  0.00     0.254 C 
HETATM    3  O   UNL     1       5.353  29.177  57.374  1.00  0.00    -0.268 OA
HETATM    4  H   UNL     1       7.740  27.141  56.987  1.00  0.00     0.163 HD
ENDROOT
BRANCH   1   5
HETATM    5  C   UNL     1       5.778  26.419  56.622  1.00  0.00     0.089 C 
HETATM    6  C   UNL     1       6.133  24.930  56.736  1.00  0.00     0.063 C 
HETATM    7  C   UNL     1       7.253  24.449  55.809  1.00  0.00     0.121 C 
HETATM    8  N   UNL     1       6.954  24.898  54.391  1.00  0.00    -0.059 N 
HETATM    9  C   UNL     1       8.662  24.892  56.217  1.00  0.00     0.046 C 
HETATM   10  C   UNL     1       7.251  22.906  55.776  1.00  0.00     0.046 C 
HETATM   11  C   UNL     1       6.461  26.303  54.118  1.00  0.00     0.121 C 
HETATM   12  H   UNL     1       6.246  24.249  54.018  1.00  0.00     0.279 HD
HETATM   13  H   UNL     1       7.786  24.716  53.809  1.00  0.00     0.279 HD
HETATM   14  C   UNL     1       7.648  27.269  54.024  1.00  0.00     0.046 C 
HETATM   15  C   UNL     1       5.797  26.257  52.725  1.00  0.00     0.046 C 
HETATM   16  C   UNL     1       5.407  26.720  55.163  1.00  0.00     0.063 C 
ENDBRANCH   1   5
BRANCH   2  17
HETATM   17  C   UNL     1       7.624  29.578  57.753  1.00  0.00     0.066 A 
HETATM   18  C   UNL     1       7.386  30.651  58.626  1.00  0.00     0.081 A 
HETATM   19  C   UNL     1       8.437  31.440  59.086  1.00  0.00     0.039 A 
HETATM   20  C   UNL     1       9.737  31.180  58.654  1.00  0.00     0.026 A 
HETATM   21  C   UNL     1       9.973  30.138  57.758  1.00  0.00     0.035 A 
HETATM   22 CL   UNL     1      11.575  29.825  57.215  1.00  0.00    -0.084 Cl
HETATM   23  C   UNL     1       8.926  29.336  57.301  1.00  0.00     0.043 A 
BRANCH  18  24
HETATM   24  O   UNL     1       6.136  30.973  59.082  1.00  0.00    -0.360 OA
HETATM   25  H   UNL     1       6.089  31.950  59.177  1.00  0.00     0.217 HD
ENDBRANCH  18  24
ENDBRANCH   2  17
TORSDOF 3
ENDMDL
MODEL 6
REMARK VINA RESULT:      -7.6      2.689      3.642
REMARK  3 active torsions:
REMARK  status: ('A' for Active; 'I' for Inactive)
REMARK    1  A    between atoms: C_11  and  N_12 
REMARK       I    between atoms: N_12  and  C_13 
REMARK    2  A    between atoms: C_13  and  C_14 
REMARK    3  A    between atoms: C_15  and  O_16 
ROOT
HETATM    1  N   UNL     1       7.636  27.204  54.883  1.00  0.00    -0.352 N 
HETATM    2  C   UNL     1       7.185  26.459  53.806  1.00  0.00     0.254 C 
HETATM    3  O   UNL     1       6.700  26.952  52.794  1.00  0.00    -0.268 OA
HETATM    4  H   UNL     1       7.873  26.678  55.717  1.00  0.00     0.163 HD
ENDROOT
BRANCH   1   5
HETATM    5  C   UNL     1       7.376  28.630  55.048  1.00  0.00     0.089 C 
HETATM    6  C   UNL     1       8.037  29.324  56.247  1.00  0.00     0.063 C 
HETATM    7  C   UNL     1       7.480  28.936  57.620  1.00  0.00     0.121 C 
HETATM    8  N   UNL     1       5.969  29.065  57.599  1.00  0.00    -0.059 N 
HETATM    9  C   UNL     1       7.885  27.542  58.109  1.00  0.00     0.046 C 
HETATM   10  C   UNL     1       7.979  29.952  58.670  1.00  0.00     0.046 C 
HETATM   11  C   UNL     1       5.170  28.551  56.419  1.00  0.00     0.121 C 
HETATM   12  H   UNL     1       5.755  30.068  57.696  1.00  0.00     0.279 HD
HETATM   13  H   UNL     1       5.594  28.647  58.464  1.00  0.00     0.279 HD
HETATM   14  C   UNL     1       4.901  27.049  56.580  1.00  0.00     0.046 C 
HETATM   15  C   UNL     1       3.806  29.270  56.483  1.00  0.00     0.046 C 
HETATM   16  C   UNL     1       5.868  28.914  55.094  1.00  0.00     0.063 C 
ENDBRANCH   1   5
BRANCH   2  17
HETATM   17  C   UNL     1       7.430  24.995  53.844  1.00  0.00     0.066 A 
HETATM   18  C   UNL     1       7.631  24.313  52.634  1.00  0.00     0.081 A 
HETATM   19  C   UNL     1       7.948  22.956  52.626  1.00  0.00     0.039 A 
HETATM   20  C   UNL     1       8.040  22.262  53.831  1.00  0.00     0.026 A 
HETATM   21  C   UNL     1       7.805  22.927  55.034  1.00  0.00     0.035 A 
HETATM   22 CL   UNL     1       7.906  22.068  56.520  1.00  0.00    -0.084 Cl
HETATM   23  C   UNL     1       7.497  24.289  55.050  1.00  0.00     0.043 A 
BRANCH  18  24
HETATM   24  O   UNL     1       7.545  24.926  51.413  1.00  0.00    -0.360 OA
HETATM   25  H   UNL     1       8.398  24.793  50.945  1.00  0.00     0.217 HD
ENDBRANCH  18  24
ENDBRANCH   2  17
TORSDOF 3
ENDMDL
MODEL 7
REMARK VINA RESULT:      -7.6      3.943      7.173
REMARK  3 active torsions:
REMARK  status: ('A' for Active; 'I' for Inactive)
REMARK    1  A    between atoms: C_11  and  N_12 
REMARK       I    between atoms: N_12  and  C_13 
REMARK    2  A    between atoms: C_13  and  C_14 
REMARK    3  A    between atoms: C_15  and  O_16 
ROOT
HETATM    1  N   UNL     1       5.113  26.539  52.298  1.00  0.00    -0.352 N 
HETATM    2  C   UNL     1       4.397  27.704  52.081  1.00  0.00     0.254 C 
HETATM    3  O   UNL     1       3.811  28.318  52.966  1.00  0.00    -0.268 OA
HETATM    4  H   UNL     1       5.421  26.047  51.467  1.00  0.00     0.163 HD
ENDROOT
BRANCH   1   5
HETATM    5  C   UNL     1       5.063  25.776  53.541  1.00  0.00     0.089 C 
HETATM    6  C   UNL     1       5.614  26.460  54.800  1.00  0.00     0.063 C 
HETATM    7  C   UNL     1       7.133  26.650  54.833  1.00  0.00     0.121 C 
HETATM    8  N   UNL     1       7.808  25.329  54.511  1.00  0.00    -0.059 N 
HETATM    9  C   UNL     1       7.664  27.753  53.912  1.00  0.00     0.046 C 
HETATM   10  C   UNL     1       7.564  27.008  56.271  1.00  0.00     0.046 C 
HETATM   11  C   UNL     1       7.299  24.462  53.379  1.00  0.00     0.121 C 
HETATM   12  H   UNL     1       7.770  24.761  55.370  1.00  0.00     0.279 HD
HETATM   13  H   UNL     1       8.815  25.503  54.373  1.00  0.00     0.279 HD
HETATM   14  C   UNL     1       7.895  24.933  52.047  1.00  0.00     0.046 C 
HETATM   15  C   UNL     1       7.844  23.045  53.651  1.00  0.00     0.046 C 
HETATM   16  C   UNL     1       5.758  24.416  53.383  1.00  0.00     0.063 C 
ENDBRANCH   1   5
BRANCH   2  17
HETATM   17  C   UNL     1       4.462  28.296  50.721  1.00  0.00     0.066 A 
HETATM   18  C   UNL     1       5.337  29.369  50.492  1.00  0.00     0.081 A 
HETATM   19  C   UNL     1       5.494  29.900  49.214  1.00  0.00     0.039 A 
HETATM   20  C   UNL     1       4.753  29.379  48.154  1.00  0.00     0.026 A 
HETATM   21  C   UNL     1       3.855  28.337  48.383  1.00  0.00     0.035 A 
HETATM   22 CL   UNL     1       2.932  27.702  47.079  1.00  0.00    -0.084 Cl
HETATM   23  C   UNL     1       3.701  27.793  49.660  1.00  0.00     0.043 A 
BRANCH  18  24
HETATM   24  O   UNL     1       6.087  29.940  51.486  1.00  0.00    -0.360 OA
HETATM   25  H   UNL     1       6.990  30.096  51.134  1.00  0.00     0.217 HD
ENDBRANCH  18  24
ENDBRANCH   2  17
TORSDOF 3
ENDMDL
MODEL 8
REMARK VINA RESULT:      -7.6      4.325      7.426
REMARK  3 active torsions:
REMARK  status: ('A' for Active; 'I' for Inactive)
REMARK    1  A    between atoms: C_11  and  N_12 
REMARK       I    between atoms: N_12  and  C_13 
REMARK    2  A    between atoms: C_13  and  C_14 
REMARK    3  A    between atoms: C_15  and  O_16 
ROOT
HETATM    1  N   UNL     1       5.211  26.715  52.240  1.00  0.00    -0.352 N 
HETATM    2  C   UNL     1       4.454  27.847  51.993  1.00  0.00     0.254 C 
HETATM    3  O   UNL     1       3.700  28.355  52.816  1.00  0.00    -0.268 OA
HETATM    4  H   UNL     1       5.674  26.307  51.436  1.00  0.00     0.163 HD
ENDROOT
BRANCH   1   5
HETATM    5  C   UNL     1       5.032  25.858  53.408  1.00  0.00     0.089 C 
HETATM    6  C   UNL     1       5.535  26.400  54.753  1.00  0.00     0.063 C 
HETATM    7  C   UNL     1       7.058  26.488  54.897  1.00  0.00     0.121 C 
HETATM    8  N   UNL     1       7.673  25.158  54.507  1.00  0.00    -0.059 N 
HETATM    9  C   UNL     1       7.714  27.626  54.109  1.00  0.00     0.046 C 
HETATM   10  C   UNL     1       7.410  26.701  56.385  1.00  0.00     0.046 C 
HETATM   11  C   UNL     1       7.192  24.421  53.276  1.00  0.00     0.121 C 
HETATM   12  H   UNL     1       7.544  24.525  55.310  1.00  0.00     0.279 HD
HETATM   13  H   UNL     1       8.696  25.277  54.447  1.00  0.00     0.279 HD
HETATM   14  C   UNL     1       7.905  24.958  52.028  1.00  0.00     0.046 C 
HETATM   15  C   UNL     1       7.633  22.953  53.459  1.00  0.00     0.046 C 
HETATM   16  C   UNL     1       5.655  24.474  53.179  1.00  0.00     0.063 C 
ENDBRANCH   1   5
BRANCH   2  17
HETATM   17  C   UNL     1       4.677  28.543  50.701  1.00  0.00     0.066 A 
HETATM   18  C   UNL     1       4.161  27.970  49.528  1.00  0.00     0.081 A 
HETATM   19  C   UNL     1       4.272  28.629  48.306  1.00  0.00     0.039 A 
HETATM   20  C   UNL     1       4.927  29.858  48.241  1.00  0.00     0.026 A 
HETATM   21  C   UNL     1       5.473  30.414  49.397  1.00  0.00     0.035 A 
HETATM   22 CL   UNL     1       6.292  31.924  49.315  1.00  0.00    -0.084 Cl
HETATM   23  C   UNL     1       5.357  29.764  50.627  1.00  0.00     0.043 A 
BRANCH  18  24
HETATM   24  O   UNL     1       3.517  26.762  49.513  1.00  0.00    -0.360 OA
HETATM   25  H   UNL     1       3.125  26.615  50.401  1.00  0.00     0.217 HD
ENDBRANCH  18  24
ENDBRANCH   2  17
TORSDOF 3
ENDMDL
MODEL 9
REMARK VINA RESULT:      -7.5      1.970      2.235
REMARK  3 active torsions:
REMARK  status: ('A' for Active; 'I' for Inactive)
REMARK    1  A    between atoms: C_11  and  N_12 
REMARK       I    between atoms: N_12  and  C_13 
REMARK    2  A    between atoms: C_13  and  C_14 
REMARK    3  A    between atoms: C_15  and  O_16 
ROOT
HETATM    1  N   UNL     1       7.589  25.420  55.052  1.00  0.00    -0.352 N 
HETATM    2  C   UNL     1       8.001  24.375  54.242  1.00  0.00     0.254 C 
HETATM    3  O   UNL     1       8.460  24.527  53.116  1.00  0.00    -0.268 OA
HETATM    4  H   UNL     1       7.088  25.159  55.893  1.00  0.00     0.163 HD
ENDROOT
BRANCH   1   5
HETATM    5  C   UNL     1       7.429  26.793  54.584  1.00  0.00     0.089 C 
HETATM    6  C   UNL     1       6.777  27.788  55.555  1.00  0.00     0.063 C 
HETATM    7  C   UNL     1       5.283  27.570  55.813  1.00  0.00     0.121 C 
HETATM    8  N   UNL     1       4.560  27.451  54.485  1.00  0.00    -0.059 N 
HETATM    9  C   UNL     1       4.952  26.369  56.705  1.00  0.00     0.046 C 
HETATM   10  C   UNL     1       4.704  28.824  56.502  1.00  0.00     0.046 C 
HETATM   11  C   UNL     1       5.141  26.613  53.366  1.00  0.00     0.121 C 
HETATM   12  H   UNL     1       4.449  28.409  54.122  1.00  0.00     0.279 HD
HETATM   13  H   UNL     1       3.593  27.142  54.667  1.00  0.00     0.279 HD
HETATM   14  C   UNL     1       4.750  25.142  53.552  1.00  0.00     0.046 C 
HETATM   15  C   UNL     1       4.464  27.107  52.070  1.00  0.00     0.046 C 
HETATM   16  C   UNL     1       6.662  26.838  53.255  1.00  0.00     0.063 C 
ENDBRANCH   1   5
BRANCH   2  17
HETATM   17  C   UNL     1       7.997  23.015  54.838  1.00  0.00     0.066 A 
HETATM   18  C   UNL     1       7.846  21.907  53.989  1.00  0.00     0.081 A 
HETATM   19  C   UNL     1       7.922  20.610  54.492  1.00  0.00     0.039 A 
HETATM   20  C   UNL     1       8.123  20.409  55.857  1.00  0.00     0.026 A 
HETATM   21  C   UNL     1       8.237  21.507  56.709  1.00  0.00     0.035 A 
HETATM   22 CL   UNL     1       8.472  21.260  58.395  1.00  0.00    -0.084 Cl
HETATM   23  C   UNL     1       8.172  22.809  56.211  1.00  0.00     0.043 A 
BRANCH  18  24
HETATM   24  O   UNL     1       7.635  22.027  52.642  1.00  0.00    -0.360 OA
HETATM   25  H   UNL     1       8.488  22.270  52.220  1.00  0.00     0.217 HD
ENDBRANCH  18  24
ENDBRANCH   2  17
TORSDOF 3
ENDMDL
MODEL 10
REMARK VINA RESULT:      -7.3      1.085      2.136
REMARK  3 active torsions:
REMARK  status: ('A' for Active; 'I' for Inactive)
REMARK    1  A    between atoms: C_11  and  N_12 
REMARK       I    between atoms: N_12  and  C_13 
REMARK    2  A    between atoms: C_13  and  C_14 
REMARK    3  A    between atoms: C_15  and  O_16 
ROOT
HETATM    1  N   UNL     1       6.623  24.633  55.862  1.00  0.00    -0.352 N 
HETATM    2  C   UNL     1       7.677  23.950  56.444  1.00  0.00     0.254 C 
HETATM    3  O   UNL     1       8.301  24.362  57.416  1.00  0.00    -0.268 OA
HETATM    4  H   UNL     1       6.291  24.266  54.978  1.00  0.00     0.163 HD
ENDROOT
BRANCH   1   5
HETATM    5  C   UNL     1       6.280  26.016  56.177  1.00  0.00     0.089 C 
HETATM    6  C   UNL     1       4.975  26.563  55.581  1.00  0.00     0.063 C 
HETATM    7  C   UNL     1       4.986  26.780  54.065  1.00  0.00     0.121 C 
HETATM    8  N   UNL     1       6.214  27.585  53.685  1.00  0.00    -0.059 N 
HETATM    9  C   UNL     1       4.915  25.497  53.231  1.00  0.00     0.046 C 
HETATM   10  C   UNL     1       3.770  27.647  53.673  1.00  0.00     0.046 C 
HETATM   11  C   UNL     1       7.563  27.260  54.291  1.00  0.00     0.121 C 
HETATM   12  H   UNL     1       6.006  28.568  53.914  1.00  0.00     0.279 HD
HETATM   13  H   UNL     1       6.299  27.583  52.657  1.00  0.00     0.279 HD
HETATM   14  C   UNL     1       8.234  26.127  53.505  1.00  0.00     0.046 C 
HETATM   15  C   UNL     1       8.429  28.524  54.102  1.00  0.00     0.046 C 
HETATM   16  C   UNL     1       7.424  26.968  55.798  1.00  0.00     0.063 C 
ENDBRANCH   1   5
BRANCH   2  17
HETATM   17  C   UNL     1       7.970  22.589  55.929  1.00  0.00     0.066 A 
HETATM   18  C   UNL     1       8.241  21.563  56.849  1.00  0.00     0.081 A 
HETATM   19  C   UNL     1       8.436  20.254  56.417  1.00  0.00     0.039 A 
HETATM   20  C   UNL     1       8.390  19.962  55.054  1.00  0.00     0.026 A 
HETATM   21  C   UNL     1       8.158  20.983  54.134  1.00  0.00     0.035 A 
HETATM   22 CL   UNL     1       8.113  20.626  52.453  1.00  0.00    -0.084 Cl
HETATM   23  C   UNL     1       7.950  22.297  54.561  1.00  0.00     0.043 A 
BRANCH  18  24
HETATM   24  O   UNL     1       8.314  21.777  58.199  1.00  0.00    -0.360 OA
HETATM   25  H   UNL     1       9.257  21.914  58.435  1.00  0.00     0.217 HD
ENDBRANCH  18  24
ENDBRANCH   2  17
TORSDOF 3
ENDMDL
