MODEL 1
REMARK VINA RESULT:     -11.0      0.000      0.000
REMARK  7 active torsions:
REMARK  status: ('A' for Active; 'I' for Inactive)
REMARK    1  A    between atoms: C_5  and  N_6 
REMARK       I    between atoms: N_6  and  C_7 
REMARK    2  A    between atoms: C_7  and  C_8 
REMARK    3  A    between atoms: C_8  and  N_9 
REMARK    4  A    between atoms: N_12  and  C_13 
REMARK    5  A    between atoms: C_13  and  C_14 
REMARK    6  A    between atoms: C_29  and  C_30 
REMARK       I    between atoms: C_30  and  N_31 
REMARK    7  A    between atoms: N_31  and  C_32 
ROOT
HETATM    1  N   UNL     1       7.326  29.815  57.748  1.00  0.00    -0.290 N 
HETATM    2  C   UNL     1       7.778  28.523  57.536  1.00  0.00     0.332 C 
HETATM    3  O   UNL     1       8.986  28.274  57.559  1.00  0.00    -0.246 OA
HETATM    4  N   UNL     1       6.817  27.552  57.307  1.00  0.00    -0.261 N 
HETATM    5  C   UNL     1       5.482  27.815  57.048  1.00  0.00     0.264 C 
HETATM    6  O   UNL     1       4.640  26.950  56.817  1.00  0.00    -0.267 OA
HETATM    7  C   UNL     1       5.067  29.228  57.077  1.00  0.00     0.059 A 
HETATM    8  C   UNL     1       5.993  30.202  57.454  1.00  0.00     0.056 A 
HETATM    9  C   UNL     1       3.737  29.564  56.777  1.00  0.00     0.020 A 
HETATM   10  C   UNL     1       3.317  30.891  56.857  1.00  0.00     0.018 A 
HETATM   11  C   UNL     1       4.228  31.877  57.240  1.00  0.00     0.034 A 
HETATM   12  C   UNL     1       5.564  31.534  57.518  1.00  0.00     0.048 A 
ENDROOT
BRANCH   1  13
HETATM   13  C   UNL     1       8.245  30.746  58.411  1.00  0.00     0.237 C 
BRANCH  13  14
HETATM   14  C   UNL     1       8.127  30.832  59.932  1.00  0.00     0.240 C 
HETATM   15  N   UNL     1       7.341  31.882  60.374  1.00  0.00    -0.326 N 
HETATM   16  H   UNL     1       6.886  32.439  59.654  1.00  0.00     0.169 HD
HETATM   17  O   UNL     1       8.795  30.076  60.632  1.00  0.00    -0.271 OA
BRANCH  15  18
HETATM   18  C   UNL     1       7.177  32.322  61.704  1.00  0.00     0.034 A 
HETATM   19  C   UNL     1       8.209  32.375  62.641  1.00  0.00     0.030 A 
HETATM   20  C   UNL     1       7.978  32.869  63.931  1.00  0.00     0.009 A 
HETATM   21  C   UNL     1       6.709  33.318  64.305  1.00  0.00    -0.062 A 
HETATM   22  C   UNL     1       6.464  33.823  65.696  1.00  0.00     0.048 C 
HETATM   23  C   UNL     1       5.666  33.237  63.378  1.00  0.00     0.009 A 
HETATM   24  C   UNL     1       5.901  32.753  62.085  1.00  0.00     0.030 A 
ENDBRANCH  15  18
ENDBRANCH  13  14
ENDBRANCH   1  13
BRANCH   4  25
HETATM   25  C   UNL     1       7.227  26.159  57.446  1.00  0.00     0.175 C 
BRANCH  25  26
HETATM   26  C   UNL     1       7.302  25.499  56.079  1.00  0.00    -0.037 A 
HETATM   27  C   UNL     1       7.306  24.098  55.967  1.00  0.00     0.048 A 
HETATM   28  C   UNL     1       7.503  23.546  54.718  1.00  0.00     0.105 A 
HETATM   29  C   UNL     1       7.681  24.326  53.600  1.00  0.00     0.105 A 
HETATM   30  O   UNL     1       7.573  22.217  54.439  1.00  0.00    -0.323 OA
HETATM   31  O   UNL     1       7.885  23.585  52.478  1.00  0.00    -0.323 OA
HETATM   32  C   UNL     1       7.665  25.700  53.665  1.00  0.00     0.040 A 
HETATM   33  C   UNL     1       7.836  22.250  53.021  1.00  0.00     0.352 A 
HETATM   34  C   UNL     1       7.477  26.290  54.918  1.00  0.00     0.012 A 
ENDBRANCH  25  26
ENDBRANCH   4  25
BRANCH  11  35
HETATM   35  C   UNL     1       3.840  33.309  57.347  1.00  0.00     0.252 C 
HETATM   36  N   UNL     1       3.250  33.683  58.532  1.00  0.00    -0.352 N 
HETATM   37  H   UNL     1       3.249  33.005  59.281  1.00  0.00     0.163 HD
HETATM   38  O   UNL     1       4.101  34.056  56.418  1.00  0.00    -0.268 OA
BRANCH  36  39
HETATM   39  C   UNL     1       2.915  35.050  58.934  1.00  0.00     0.084 C 
HETATM   40  C   UNL     1       1.665  35.127  59.818  1.00  0.00     0.025 C 
HETATM   41  C   UNL     1       1.942  35.066  61.315  1.00  0.00     0.002 C 
HETATM   42  C   UNL     1       3.002  36.077  61.731  1.00  0.00     0.000 C 
HETATM   43  C   UNL     1       4.302  35.886  60.962  1.00  0.00     0.002 C 
HETATM   44  C   UNL     1       4.100  35.883  59.449  1.00  0.00     0.025 C 
ENDBRANCH  36  39
ENDBRANCH  11  35
TORSDOF 7
ENDMDL
MODEL 2
REMARK VINA RESULT:     -10.8      2.063      9.061
REMARK  7 active torsions:
REMARK  status: ('A' for Active; 'I' for Inactive)
REMARK    1  A    between atoms: C_5  and  N_6 
REMARK       I    between atoms: N_6  and  C_7 
REMARK    2  A    between atoms: C_7  and  C_8 
REMARK    3  A    between atoms: C_8  and  N_9 
REMARK    4  A    between atoms: N_12  and  C_13 
REMARK    5  A    between atoms: C_13  and  C_14 
REMARK    6  A    between atoms: C_29  and  C_30 
REMARK       I    between atoms: C_30  and  N_31 
REMARK    7  A    between atoms: N_31  and  C_32 
ROOT
HETATM    1  N   UNL     1       7.088  29.801  57.527  1.00  0.00    -0.290 N 
HETATM    2  C   UNL     1       6.213  30.873  57.485  1.00  0.00     0.332 C 
HETATM    3  O   UNL     1       6.511  31.942  58.025  1.00  0.00    -0.246 OA
HETATM    4  N   UNL     1       5.016  30.680  56.816  1.00  0.00    -0.261 N 
HETATM    5  C   UNL     1       4.541  29.448  56.396  1.00  0.00     0.264 C 
HETATM    6  O   UNL     1       3.465  29.280  55.828  1.00  0.00    -0.267 OA
HETATM    7  C   UNL     1       5.411  28.285  56.642  1.00  0.00     0.059 A 
HETATM    8  C   UNL     1       6.683  28.486  57.179  1.00  0.00     0.056 A 
HETATM    9  C   UNL     1       4.966  27.002  56.282  1.00  0.00     0.020 A 
HETATM   10  C   UNL     1       5.802  25.899  56.455  1.00  0.00     0.018 A 
HETATM   11  C   UNL     1       7.081  26.084  56.984  1.00  0.00     0.034 A 
HETATM   12  C   UNL     1       7.510  27.370  57.361  1.00  0.00     0.048 A 
ENDROOT
BRANCH   1  13
HETATM   13  C   UNL     1       8.494  30.094  57.825  1.00  0.00     0.237 C 
BRANCH  13  14
HETATM   14  C   UNL     1       8.748  30.950  59.066  1.00  0.00     0.240 C 
HETATM   15  N   UNL     1       7.870  30.703  60.106  1.00  0.00    -0.326 N 
HETATM   16  H   UNL     1       7.199  29.951  59.962  1.00  0.00     0.169 HD
HETATM   17  O   UNL     1       9.596  31.838  59.022  1.00  0.00    -0.271 OA
BRANCH  15  18
HETATM   18  C   UNL     1       7.741  31.435  61.305  1.00  0.00     0.034 A 
HETATM   19  C   UNL     1       8.514  31.209  62.444  1.00  0.00     0.030 A 
HETATM   20  C   UNL     1       8.359  32.008  63.583  1.00  0.00     0.009 A 
HETATM   21  C   UNL     1       7.427  33.049  63.601  1.00  0.00    -0.062 A 
HETATM   22  C   UNL     1       7.250  33.885  64.833  1.00  0.00     0.048 C 
HETATM   23  C   UNL     1       6.629  33.258  62.472  1.00  0.00     0.009 A 
HETATM   24  C   UNL     1       6.793  32.464  61.331  1.00  0.00     0.030 A 
ENDBRANCH  15  18
ENDBRANCH  13  14
ENDBRANCH   1  13
BRANCH   4  25
HETATM   25  C   UNL     1       4.257  31.869  56.444  1.00  0.00     0.175 C 
BRANCH  25  26
HETATM   26  C   UNL     1       3.740  32.567  57.691  1.00  0.00    -0.037 A 
HETATM   27  C   UNL     1       3.640  33.969  57.730  1.00  0.00     0.048 A 
HETATM   28  C   UNL     1       3.288  34.563  58.924  1.00  0.00     0.105 A 
HETATM   29  C   UNL     1       3.027  33.824  60.053  1.00  0.00     0.105 A 
HETATM   30  O   UNL     1       3.183  35.901  59.145  1.00  0.00    -0.323 OA
HETATM   31  O   UNL     1       2.724  34.604  61.125  1.00  0.00    -0.323 OA
HETATM   32  C   UNL     1       3.096  32.450  60.052  1.00  0.00     0.040 A 
HETATM   33  C   UNL     1       2.846  35.920  60.547  1.00  0.00     0.352 A 
HETATM   34  C   UNL     1       3.459  31.818  58.860  1.00  0.00     0.012 A 
ENDBRANCH  25  26
ENDBRANCH   4  25
BRANCH  11  35
HETATM   35  C   UNL     1       8.020  24.950  57.190  1.00  0.00     0.252 C 
HETATM   36  N   UNL     1       7.966  23.949  56.248  1.00  0.00    -0.352 N 
HETATM   37  H   UNL     1       7.403  24.118  55.426  1.00  0.00     0.163 HD
HETATM   38  O   UNL     1       8.792  24.994  58.134  1.00  0.00    -0.268 OA
BRANCH  36  39
HETATM   39  C   UNL     1       8.879  22.809  56.149  1.00  0.00     0.084 C 
HETATM   40  C   UNL     1       8.365  21.562  56.879  1.00  0.00     0.025 C 
HETATM   41  C   UNL     1       7.549  20.611  56.013  1.00  0.00     0.002 C 
HETATM   42  C   UNL     1       8.280  20.261  54.723  1.00  0.00     0.000 C 
HETATM   43  C   UNL     1       8.641  21.502  53.919  1.00  0.00     0.002 C 
HETATM   44  C   UNL     1       9.418  22.531  54.736  1.00  0.00     0.025 C 
ENDBRANCH  36  39
ENDBRANCH  11  35
TORSDOF 7
ENDMDL
MODEL 3
REMARK VINA RESULT:     -10.8      1.523      2.072
REMARK  7 active torsions:
REMARK  status: ('A' for Active; 'I' for Inactive)
REMARK    1  A    between atoms: C_5  and  N_6 
REMARK       I    between atoms: N_6  and  C_7 
REMARK    2  A    between atoms: C_7  and  C_8 
REMARK    3  A    between atoms: C_8  and  N_9 
REMARK    4  A    between atoms: N_12  and  C_13 
REMARK    5  A    between atoms: C_13  and  C_14 
REMARK    6  A    between atoms: C_29  and  C_30 
REMARK       I    between atoms: C_30  and  N_31 
REMARK    7  A    between atoms: N_31  and  C_32 
ROOT
HETATM    1  N   UNL     1       7.413  31.048  58.938  1.00  0.00    -0.290 N 
HETATM    2  C   UNL     1       7.857  29.830  58.451  1.00  0.00     0.332 C 
HETATM    3  O   UNL     1       9.048  29.519  58.541  1.00  0.00    -0.246 OA
HETATM    4  N   UNL     1       6.908  29.001  57.876  1.00  0.00    -0.261 N 
HETATM    5  C   UNL     1       5.619  29.391  57.550  1.00  0.00     0.264 C 
HETATM    6  O   UNL     1       4.791  28.659  57.014  1.00  0.00    -0.267 OA
HETATM    7  C   UNL     1       5.238  30.771  57.896  1.00  0.00     0.059 A 
HETATM    8  C   UNL     1       6.134  31.567  58.610  1.00  0.00     0.056 A 
HETATM    9  C   UNL     1       3.961  31.242  57.550  1.00  0.00     0.020 A 
HETATM   10  C   UNL     1       3.565  32.526  57.922  1.00  0.00     0.018 A 
HETATM   11  C   UNL     1       4.447  33.334  58.643  1.00  0.00     0.034 A 
HETATM   12  C   UNL     1       5.732  32.861  58.968  1.00  0.00     0.048 A 
ENDROOT
BRANCH   1  13
HETATM   13  C   UNL     1       8.268  31.731  59.914  1.00  0.00     0.237 C 
BRANCH  13  14
HETATM   14  C   UNL     1       7.809  31.660  61.370  1.00  0.00     0.240 C 
HETATM   15  N   UNL     1       7.126  32.784  61.797  1.00  0.00    -0.326 N 
HETATM   16  H   UNL     1       6.952  33.500  61.095  1.00  0.00     0.169 HD
HETATM   17  O   UNL     1       8.158  30.711  62.067  1.00  0.00    -0.271 OA
BRANCH  15  18
HETATM   18  C   UNL     1       6.725  33.090  63.114  1.00  0.00     0.034 A 
HETATM   19  C   UNL     1       7.604  33.480  64.126  1.00  0.00     0.030 A 
HETATM   20  C   UNL     1       7.126  33.812  65.399  1.00  0.00     0.009 A 
HETATM   21  C   UNL     1       5.759  33.760  65.682  1.00  0.00    -0.062 A 
HETATM   22  C   UNL     1       5.257  34.095  67.055  1.00  0.00     0.048 C 
HETATM   23  C   UNL     1       4.879  33.339  64.680  1.00  0.00     0.009 A 
HETATM   24  C   UNL     1       5.358  33.018  63.405  1.00  0.00     0.030 A 
ENDBRANCH  15  18
ENDBRANCH  13  14
ENDBRANCH   1  13
BRANCH   4  25
HETATM   25  C   UNL     1       7.265  27.598  57.696  1.00  0.00     0.175 C 
BRANCH  25  26
HETATM   26  C   UNL     1       7.224  27.236  56.221  1.00  0.00    -0.037 A 
HETATM   27  C   UNL     1       6.742  25.980  55.812  1.00  0.00     0.048 A 
HETATM   28  C   UNL     1       6.842  25.649  54.477  1.00  0.00     0.105 A 
HETATM   29  C   UNL     1       7.384  26.511  53.553  1.00  0.00     0.105 A 
HETATM   30  O   UNL     1       6.461  24.467  53.921  1.00  0.00    -0.323 OA
HETATM   31  O   UNL     1       7.412  25.981  52.302  1.00  0.00    -0.323 OA
HETATM   32  C   UNL     1       7.850  27.756  53.910  1.00  0.00     0.040 A 
HETATM   33  C   UNL     1       6.845  24.677  52.546  1.00  0.00     0.352 A 
HETATM   34  C   UNL     1       7.772  28.118  55.258  1.00  0.00     0.012 A 
ENDBRANCH  25  26
ENDBRANCH   4  25
BRANCH  11  35
HETATM   35  C   UNL     1       4.083  34.710  59.072  1.00  0.00     0.252 C 
HETATM   36  N   UNL     1       4.445  35.053  60.355  1.00  0.00    -0.352 N 
HETATM   37  H   UNL     1       5.042  34.408  60.854  1.00  0.00     0.163 HD
HETATM   38  O   UNL     1       3.538  35.448  58.268  1.00  0.00    -0.268 OA
BRANCH  36  39
HETATM   39  C   UNL     1       4.331  36.383  60.955  1.00  0.00     0.084 C 
HETATM   40  C   UNL     1       3.076  36.545  61.823  1.00  0.00     0.025 C 
HETATM   41  C   UNL     1       3.278  36.215  63.297  1.00  0.00     0.002 C 
HETATM   42  C   UNL     1       4.476  36.954  63.877  1.00  0.00     0.000 C 
HETATM   43  C   UNL     1       5.756  36.656  63.108  1.00  0.00     0.002 C 
HETATM   44  C   UNL     1       5.618  36.912  61.609  1.00  0.00     0.025 C 
ENDBRANCH  36  39
ENDBRANCH  11  35
TORSDOF 7
ENDMDL
MODEL 4
REMARK VINA RESULT:     -10.8      3.519      7.598
REMARK  7 active torsions:
REMARK  status: ('A' for Active; 'I' for Inactive)
REMARK    1  A    between atoms: C_5  and  N_6 
REMARK       I    between atoms: N_6  and  C_7 
REMARK    2  A    between atoms: C_7  and  C_8 
REMARK    3  A    between atoms: C_8  and  N_9 
REMARK    4  A    between atoms: N_12  and  C_13 
REMARK    5  A    between atoms: C_13  and  C_14 
REMARK    6  A    between atoms: C_29  and  C_30 
REMARK       I    between atoms: C_30  and  N_31 
REMARK    7  A    between atoms: N_31  and  C_32 
ROOT
HETATM    1  N   UNL     1       4.843  33.579  61.561  1.00  0.00    -0.290 N 
HETATM    2  C   UNL     1       5.163  33.041  60.326  1.00  0.00     0.332 C 
HETATM    3  O   UNL     1       4.313  32.979  59.433  1.00  0.00    -0.246 OA
HETATM    4  N   UNL     1       6.462  32.591  60.155  1.00  0.00    -0.261 N 
HETATM    5  C   UNL     1       7.378  32.430  61.182  1.00  0.00     0.264 C 
HETATM    6  O   UNL     1       8.519  32.003  61.029  1.00  0.00    -0.267 OA
HETATM    7  C   UNL     1       6.935  32.820  62.532  1.00  0.00     0.059 A 
HETATM    8  C   UNL     1       5.683  33.415  62.693  1.00  0.00     0.056 A 
HETATM    9  C   UNL     1       7.800  32.637  63.622  1.00  0.00     0.020 A 
HETATM   10  C   UNL     1       7.417  33.056  64.896  1.00  0.00     0.018 A 
HETATM   11  C   UNL     1       6.171  33.659  65.074  1.00  0.00     0.034 A 
HETATM   12  C   UNL     1       5.302  33.820  63.979  1.00  0.00     0.048 A 
ENDROOT
BRANCH   1  13
HETATM   13  C   UNL     1       3.657  34.439  61.630  1.00  0.00     0.237 C 
BRANCH  13  14
HETATM   14  C   UNL     1       3.902  35.880  62.075  1.00  0.00     0.240 C 
HETATM   15  N   UNL     1       5.148  36.370  61.725  1.00  0.00    -0.326 N 
HETATM   16  H   UNL     1       5.735  35.753  61.168  1.00  0.00     0.169 HD
HETATM   17  O   UNL     1       3.069  36.444  62.779  1.00  0.00    -0.271 OA
BRANCH  15  18
HETATM   18  C   UNL     1       5.730  37.589  62.131  1.00  0.00     0.034 A 
HETATM   19  C   UNL     1       5.973  37.932  63.462  1.00  0.00     0.030 A 
HETATM   20  C   UNL     1       6.597  39.143  63.785  1.00  0.00     0.009 A 
HETATM   21  C   UNL     1       6.990  40.031  62.781  1.00  0.00    -0.062 A 
HETATM   22  C   UNL     1       7.638  41.336  63.137  1.00  0.00     0.048 C 
HETATM   23  C   UNL     1       6.720  39.705  61.449  1.00  0.00     0.009 A 
HETATM   24  C   UNL     1       6.105  38.489  61.127  1.00  0.00     0.030 A 
ENDBRANCH  15  18
ENDBRANCH  13  14
ENDBRANCH   1  13
BRANCH   4  25
HETATM   25  C   UNL     1       6.919  32.368  58.788  1.00  0.00     0.175 C 
BRANCH  25  26
HETATM   26  C   UNL     1       6.642  30.933  58.374  1.00  0.00    -0.037 A 
HETATM   27  C   UNL     1       7.645  29.954  58.489  1.00  0.00     0.048 A 
HETATM   28  C   UNL     1       7.388  28.697  57.984  1.00  0.00     0.105 A 
HETATM   29  C   UNL     1       6.189  28.384  57.390  1.00  0.00     0.105 A 
HETATM   30  O   UNL     1       8.257  27.651  57.978  1.00  0.00    -0.323 OA
HETATM   31  O   UNL     1       6.152  27.102  56.938  1.00  0.00    -0.323 OA
HETATM   32  C   UNL     1       5.174  29.307  57.275  1.00  0.00     0.040 A 
HETATM   33  C   UNL     1       7.474  26.650  57.295  1.00  0.00     0.352 A 
HETATM   34  C   UNL     1       5.407  30.594  57.769  1.00  0.00     0.012 A 
ENDBRANCH  25  26
ENDBRANCH   4  25
BRANCH  11  35
HETATM   35  C   UNL     1       5.706  34.130  66.405  1.00  0.00     0.252 C 
HETATM   36  N   UNL     1       6.668  34.198  67.387  1.00  0.00    -0.352 N 
HETATM   37  H   UNL     1       7.627  34.058  67.103  1.00  0.00     0.163 HD
HETATM   38  O   UNL     1       4.538  34.461  66.533  1.00  0.00    -0.268 OA
BRANCH  36  39
HETATM   39  C   UNL     1       6.494  34.762  68.726  1.00  0.00     0.084 C 
HETATM   40  C   UNL     1       5.830  33.788  69.707  1.00  0.00     0.025 C 
HETATM   41  C   UNL     1       6.804  32.934  70.510  1.00  0.00     0.002 C 
HETATM   42  C   UNL     1       7.873  33.786  71.182  1.00  0.00     0.000 C 
HETATM   43  C   UNL     1       8.644  34.629  70.175  1.00  0.00     0.002 C 
HETATM   44  C   UNL     1       7.731  35.478  69.293  1.00  0.00     0.025 C 
ENDBRANCH  36  39
ENDBRANCH  11  35
TORSDOF 7
ENDMDL
MODEL 5
REMARK VINA RESULT:     -10.7      2.561      8.438
REMARK  7 active torsions:
REMARK  status: ('A' for Active; 'I' for Inactive)
REMARK    1  A    between atoms: C_5  and  N_6 
REMARK       I    between atoms: N_6  and  C_7 
REMARK    2  A    between atoms: C_7  and  C_8 
REMARK    3  A    between atoms: C_8  and  N_9 
REMARK    4  A    between atoms: N_12  and  C_13 
REMARK    5  A    between atoms: C_13  and  C_14 
REMARK    6  A    between atoms: C_29  and  C_30 
REMARK       I    between atoms: C_30  and  N_31 
REMARK    7  A    between atoms: N_31  and  C_32 
ROOT
HETATM    1  N   UNL     1       6.717  30.152  57.761  1.00  0.00    -0.290 N 
HETATM    2  C   UNL     1       5.800  31.189  57.769  1.00  0.00     0.332 C 
HETATM    3  O   UNL     1       6.054  32.241  58.363  1.00  0.00    -0.246 OA
HETATM    4  N   UNL     1       4.614  30.983  57.084  1.00  0.00    -0.261 N 
HETATM    5  C   UNL     1       4.191  29.756  56.599  1.00  0.00     0.264 C 
HETATM    6  O   UNL     1       3.124  29.575  56.018  1.00  0.00    -0.267 OA
HETATM    7  C   UNL     1       5.105  28.618  56.791  1.00  0.00     0.059 A 
HETATM    8  C   UNL     1       6.366  28.842  57.344  1.00  0.00     0.056 A 
HETATM    9  C   UNL     1       4.713  27.338  56.364  1.00  0.00     0.020 A 
HETATM   10  C   UNL     1       5.591  26.262  56.486  1.00  0.00     0.018 A 
HETATM   11  C   UNL     1       6.860  26.470  57.031  1.00  0.00     0.034 A 
HETATM   12  C   UNL     1       7.236  27.751  57.474  1.00  0.00     0.048 A 
ENDROOT
BRANCH   1  13
HETATM   13  C   UNL     1       8.109  30.485  58.081  1.00  0.00     0.237 C 
BRANCH  13  14
HETATM   14  C   UNL     1       8.321  31.338  59.331  1.00  0.00     0.240 C 
HETATM   15  N   UNL     1       7.553  30.946  60.414  1.00  0.00    -0.326 N 
HETATM   16  H   UNL     1       6.984  30.111  60.284  1.00  0.00     0.169 HD
HETATM   17  O   UNL     1       9.033  32.337  59.267  1.00  0.00    -0.271 OA
BRANCH  15  18
HETATM   18  C   UNL     1       7.399  31.624  61.640  1.00  0.00     0.034 A 
HETATM   19  C   UNL     1       8.457  31.950  62.490  1.00  0.00     0.030 A 
HETATM   20  C   UNL     1       8.231  32.665  63.672  1.00  0.00     0.009 A 
HETATM   21  C   UNL     1       6.940  33.068  64.024  1.00  0.00    -0.062 A 
HETATM   22  C   UNL     1       6.703  33.814  65.303  1.00  0.00     0.048 C 
HETATM   23  C   UNL     1       5.874  32.716  63.191  1.00  0.00     0.009 A 
HETATM   24  C   UNL     1       6.103  32.010  62.004  1.00  0.00     0.030 A 
ENDBRANCH  15  18
ENDBRANCH  13  14
ENDBRANCH   1  13
BRANCH   4  25
HETATM   25  C   UNL     1       3.810  32.159  56.769  1.00  0.00     0.175 C 
BRANCH  25  26
HETATM   26  C   UNL     1       4.360  32.850  55.533  1.00  0.00    -0.037 A 
HETATM   27  C   UNL     1       5.051  34.068  55.650  1.00  0.00     0.048 A 
HETATM   28  C   UNL     1       5.420  34.720  54.492  1.00  0.00     0.105 A 
HETATM   29  C   UNL     1       5.139  34.206  53.248  1.00  0.00     0.105 A 
HETATM   30  O   UNL     1       6.058  35.920  54.424  1.00  0.00    -0.323 OA
HETATM   31  O   UNL     1       5.566  35.016  52.243  1.00  0.00    -0.323 OA
HETATM   32  C   UNL     1       4.481  33.008  53.091  1.00  0.00     0.040 A 
HETATM   33  C   UNL     1       6.128  36.111  52.995  1.00  0.00     0.352 A 
HETATM   34  C   UNL     1       4.086  32.327  54.246  1.00  0.00     0.012 A 
ENDBRANCH  25  26
ENDBRANCH   4  25
BRANCH  11  35
HETATM   35  C   UNL     1       7.843  25.365  57.184  1.00  0.00     0.252 C 
HETATM   36  N   UNL     1       7.778  24.370  56.235  1.00  0.00    -0.352 N 
HETATM   37  H   UNL     1       7.174  24.527  55.442  1.00  0.00     0.163 HD
HETATM   38  O   UNL     1       8.654  25.426  58.093  1.00  0.00    -0.268 OA
BRANCH  36  39
HETATM   39  C   UNL     1       8.722  23.260  56.085  1.00  0.00     0.084 C 
HETATM   40  C   UNL     1       8.339  22.029  56.916  1.00  0.00     0.025 C 
HETATM   41  C   UNL     1       7.475  21.012  56.182  1.00  0.00     0.002 C 
HETATM   42  C   UNL     1       8.079  20.631  54.837  1.00  0.00     0.000 C 
HETATM   43  C   UNL     1       8.302  21.847  53.949  1.00  0.00     0.002 C 
HETATM   44  C   UNL     1       9.118  22.939  54.635  1.00  0.00     0.025 C 
ENDBRANCH  36  39
ENDBRANCH  11  35
TORSDOF 7
ENDMDL
MODEL 6
REMARK VINA RESULT:     -10.6      4.382      9.880
REMARK  7 active torsions:
REMARK  status: ('A' for Active; 'I' for Inactive)
REMARK    1  A    between atoms: C_5  and  N_6 
REMARK       I    between atoms: N_6  and  C_7 
REMARK    2  A    between atoms: C_7  and  C_8 
REMARK    3  A    between atoms: C_8  and  N_9 
REMARK    4  A    between atoms: N_12  and  C_13 
REMARK    5  A    between atoms: C_13  and  C_14 
REMARK    6  A    between atoms: C_29  and  C_30 
REMARK       I    between atoms: C_30  and  N_31 
REMARK    7  A    between atoms: N_31  and  C_32 
ROOT
HETATM    1  N   UNL     1       5.297  27.898  54.022  1.00  0.00    -0.290 N 
HETATM    2  C   UNL     1       5.473  27.715  55.383  1.00  0.00     0.332 C 
HETATM    3  O   UNL     1       5.923  26.650  55.816  1.00  0.00    -0.246 OA
HETATM    4  N   UNL     1       5.126  28.772  56.208  1.00  0.00    -0.261 N 
HETATM    5  C   UNL     1       4.414  29.887  55.797  1.00  0.00     0.264 C 
HETATM    6  O   UNL     1       4.085  30.809  56.539  1.00  0.00    -0.267 OA
HETATM    7  C   UNL     1       4.058  29.956  54.369  1.00  0.00     0.059 A 
HETATM    8  C   UNL     1       4.530  28.972  53.501  1.00  0.00     0.056 A 
HETATM    9  C   UNL     1       3.296  31.038  53.899  1.00  0.00     0.020 A 
HETATM   10  C   UNL     1       3.000  31.146  52.541  1.00  0.00     0.018 A 
HETATM   11  C   UNL     1       3.472  30.174  51.656  1.00  0.00     0.034 A 
HETATM   12  C   UNL     1       4.217  29.083  52.139  1.00  0.00     0.048 A 
ENDROOT
BRANCH   1  13
HETATM   13  C   UNL     1       6.041  27.007  53.125  1.00  0.00     0.237 C 
BRANCH  13  14
HETATM   14  C   UNL     1       6.000  25.521  53.474  1.00  0.00     0.240 C 
HETATM   15  N   UNL     1       7.217  25.009  53.889  1.00  0.00    -0.326 N 
HETATM   16  H   UNL     1       7.981  25.675  53.974  1.00  0.00     0.169 HD
HETATM   17  O   UNL     1       4.973  24.880  53.264  1.00  0.00    -0.271 OA
BRANCH  15  18
HETATM   18  C   UNL     1       7.539  23.655  54.118  1.00  0.00     0.034 A 
HETATM   19  C   UNL     1       7.864  22.749  53.107  1.00  0.00     0.030 A 
HETATM   20  C   UNL     1       8.218  21.430  53.417  1.00  0.00     0.009 A 
HETATM   21  C   UNL     1       8.254  20.995  54.744  1.00  0.00    -0.062 A 
HETATM   22  C   UNL     1       8.612  19.575  55.065  1.00  0.00     0.048 C 
HETATM   23  C   UNL     1       7.899  21.892  55.756  1.00  0.00     0.009 A 
HETATM   24  C   UNL     1       7.555  23.213  55.446  1.00  0.00     0.030 A 
ENDBRANCH  15  18
ENDBRANCH  13  14
ENDBRANCH   1  13
BRANCH   4  25
HETATM   25  C   UNL     1       5.634  28.750  57.575  1.00  0.00     0.175 C 
BRANCH  25  26
HETATM   26  C   UNL     1       6.954  29.499  57.652  1.00  0.00    -0.037 A 
HETATM   27  C   UNL     1       8.109  28.965  57.054  1.00  0.00     0.048 A 
HETATM   28  C   UNL     1       9.307  29.616  57.259  1.00  0.00     0.105 A 
HETATM   29  C   UNL     1       9.391  30.762  58.014  1.00  0.00     0.105 A 
HETATM   30  O   UNL     1      10.519  29.217  56.787  1.00  0.00    -0.323 OA
HETATM   31  O   UNL     1      10.665  31.228  58.111  1.00  0.00    -0.323 OA
HETATM   32  C   UNL     1       8.282  31.327  58.601  1.00  0.00     0.040 A 
HETATM   33  C   UNL     1      11.378  30.231  57.349  1.00  0.00     0.352 A 
HETATM   34  C   UNL     1       7.053  30.685  58.419  1.00  0.00     0.012 A 
ENDBRANCH  25  26
ENDBRANCH   4  25
BRANCH  11  35
HETATM   35  C   UNL     1       3.194  30.235  50.197  1.00  0.00     0.252 C 
HETATM   36  N   UNL     1       3.463  29.088  49.487  1.00  0.00    -0.352 N 
HETATM   37  H   UNL     1       3.694  28.260  50.018  1.00  0.00     0.163 HD
HETATM   38  O   UNL     1       2.717  31.259  49.735  1.00  0.00    -0.268 OA
BRANCH  36  39
HETATM   39  C   UNL     1       3.141  28.850  48.079  1.00  0.00     0.084 C 
HETATM   40  C   UNL     1       4.073  27.830  47.413  1.00  0.00     0.025 C 
HETATM   41  C   UNL     1       3.580  26.390  47.467  1.00  0.00     0.002 C 
HETATM   42  C   UNL     1       2.147  26.270  46.967  1.00  0.00     0.000 C 
HETATM   43  C   UNL     1       1.194  27.166  47.747  1.00  0.00     0.002 C 
HETATM   44  C   UNL     1       1.650  28.623  47.784  1.00  0.00     0.025 C 
ENDBRANCH  36  39
ENDBRANCH  11  35
TORSDOF 7
ENDMDL
MODEL 7
REMARK VINA RESULT:     -10.5      3.320      7.998
REMARK  7 active torsions:
REMARK  status: ('A' for Active; 'I' for Inactive)
REMARK    1  A    between atoms: C_5  and  N_6 
REMARK       I    between atoms: N_6  and  C_7 
REMARK    2  A    between atoms: C_7  and  C_8 
REMARK    3  A    between atoms: C_8  and  N_9 
REMARK    4  A    between atoms: N_12  and  C_13 
REMARK    5  A    between atoms: C_13  and  C_14 
REMARK    6  A    between atoms: C_29  and  C_30 
REMARK       I    between atoms: C_30  and  N_31 
REMARK    7  A    between atoms: N_31  and  C_32 
ROOT
HETATM    1  N   UNL     1       4.342  33.373  61.811  1.00  0.00    -0.290 N 
HETATM    2  C   UNL     1       4.633  32.912  60.538  1.00  0.00     0.332 C 
HETATM    3  O   UNL     1       3.725  32.710  59.726  1.00  0.00    -0.246 OA
HETATM    4  N   UNL     1       5.968  32.701  60.237  1.00  0.00    -0.261 N 
HETATM    5  C   UNL     1       6.991  32.694  61.171  1.00  0.00     0.264 C 
HETATM    6  O   UNL     1       8.170  32.477  60.902  1.00  0.00    -0.267 OA
HETATM    7  C   UNL     1       6.617  32.986  62.565  1.00  0.00     0.059 A 
HETATM    8  C   UNL     1       5.302  33.348  62.856  1.00  0.00     0.056 A 
HETATM    9  C   UNL     1       7.601  32.948  63.567  1.00  0.00     0.020 A 
HETATM   10  C   UNL     1       7.273  33.280  64.881  1.00  0.00     0.018 A 
HETATM   11  C   UNL     1       5.963  33.652  65.189  1.00  0.00     0.034 A 
HETATM   12  C   UNL     1       4.980  33.667  64.182  1.00  0.00     0.048 A 
ENDROOT
BRANCH   1  13
HETATM   13  C   UNL     1       3.036  34.009  62.012  1.00  0.00     0.237 C 
BRANCH  13  14
HETATM   14  C   UNL     1       2.994  35.524  61.817  1.00  0.00     0.240 C 
HETATM   15  N   UNL     1       3.063  35.921  60.494  1.00  0.00    -0.326 N 
HETATM   16  H   UNL     1       3.073  35.176  59.799  1.00  0.00     0.169 HD
HETATM   17  O   UNL     1       3.019  36.259  62.801  1.00  0.00    -0.271 OA
BRANCH  15  18
HETATM   18  C   UNL     1       3.213  37.234  60.004  1.00  0.00     0.034 A 
HETATM   19  C   UNL     1       4.425  37.925  59.984  1.00  0.00     0.030 A 
HETATM   20  C   UNL     1       4.505  39.213  59.439  1.00  0.00     0.009 A 
HETATM   21  C   UNL     1       3.372  39.830  58.903  1.00  0.00    -0.062 A 
HETATM   22  C   UNL     1       3.462  41.219  58.342  1.00  0.00     0.048 C 
HETATM   23  C   UNL     1       2.150  39.153  58.950  1.00  0.00     0.009 A 
HETATM   24  C   UNL     1       2.074  37.862  59.486  1.00  0.00     0.030 A 
ENDBRANCH  15  18
ENDBRANCH  13  14
ENDBRANCH   1  13
BRANCH   4  25
HETATM   25  C   UNL     1       6.325  32.576  58.828  1.00  0.00     0.175 C 
BRANCH  25  26
HETATM   26  C   UNL     1       6.287  31.116  58.410  1.00  0.00    -0.037 A 
HETATM   27  C   UNL     1       7.443  30.320  58.505  1.00  0.00     0.048 A 
HETATM   28  C   UNL     1       7.393  29.039  57.995  1.00  0.00     0.105 A 
HETATM   29  C   UNL     1       6.255  28.531  57.416  1.00  0.00     0.105 A 
HETATM   30  O   UNL     1       8.426  28.154  57.971  1.00  0.00    -0.323 OA
HETATM   31  O   UNL     1       6.428  27.263  56.956  1.00  0.00    -0.323 OA
HETATM   32  C   UNL     1       5.098  29.271  57.320  1.00  0.00     0.040 A 
HETATM   33  C   UNL     1       7.812  27.038  57.293  1.00  0.00     0.352 A 
HETATM   34  C   UNL     1       5.118  30.576  57.819  1.00  0.00     0.012 A 
ENDBRANCH  25  26
ENDBRANCH   4  25
BRANCH  11  35
HETATM   35  C   UNL     1       5.552  34.020  66.569  1.00  0.00     0.252 C 
HETATM   36  N   UNL     1       6.575  34.225  67.465  1.00  0.00    -0.352 N 
HETATM   37  H   UNL     1       7.515  34.246  67.095  1.00  0.00     0.163 HD
HETATM   38  O   UNL     1       4.363  34.156  66.808  1.00  0.00    -0.268 OA
BRANCH  36  39
HETATM   39  C   UNL     1       6.436  34.732  68.831  1.00  0.00     0.084 C 
HETATM   40  C   UNL     1       5.868  33.691  69.804  1.00  0.00     0.025 C 
HETATM   41  C   UNL     1       6.920  32.860  70.530  1.00  0.00     0.002 C 
HETATM   42  C   UNL     1       7.975  33.742  71.184  1.00  0.00     0.000 C 
HETATM   43  C   UNL     1       8.655  34.659  70.177  1.00  0.00     0.002 C 
HETATM   44  C   UNL     1       7.660  35.490  69.369  1.00  0.00     0.025 C 
ENDBRANCH  36  39
ENDBRANCH  11  35
TORSDOF 7
ENDMDL
MODEL 8
REMARK VINA RESULT:     -10.5      1.716      4.478
REMARK  7 active torsions:
REMARK  status: ('A' for Active; 'I' for Inactive)
REMARK    1  A    between atoms: C_5  and  N_6 
REMARK       I    between atoms: N_6  and  C_7 
REMARK    2  A    between atoms: C_7  and  C_8 
REMARK    3  A    between atoms: C_8  and  N_9 
REMARK    4  A    between atoms: N_12  and  C_13 
REMARK    5  A    between atoms: C_13  and  C_14 
REMARK    6  A    between atoms: C_29  and  C_30 
REMARK       I    between atoms: C_30  and  N_31 
REMARK    7  A    between atoms: N_31  and  C_32 
ROOT
HETATM    1  N   UNL     1       6.153  28.843  56.753  1.00  0.00    -0.290 N 
HETATM    2  C   UNL     1       6.051  28.011  55.650  1.00  0.00     0.332 C 
HETATM    3  O   UNL     1       5.063  27.285  55.507  1.00  0.00    -0.246 OA
HETATM    4  N   UNL     1       7.094  28.045  54.741  1.00  0.00    -0.261 N 
HETATM    5  C   UNL     1       8.313  28.663  54.967  1.00  0.00     0.264 C 
HETATM    6  O   UNL     1       9.246  28.665  54.167  1.00  0.00    -0.267 OA
HETATM    7  C   UNL     1       8.468  29.372  56.248  1.00  0.00     0.059 A 
HETATM    8  C   UNL     1       7.374  29.473  57.108  1.00  0.00     0.056 A 
HETATM    9  C   UNL     1       9.696  29.980  56.558  1.00  0.00     0.020 A 
HETATM   10  C   UNL     1       9.839  30.704  57.741  1.00  0.00     0.018 A 
HETATM   11  C   UNL     1       8.752  30.821  58.609  1.00  0.00     0.034 A 
HETATM   12  C   UNL     1       7.532  30.192  58.300  1.00  0.00     0.048 A 
ENDROOT
BRANCH   1  13
HETATM   13  C   UNL     1       4.915  29.153  57.475  1.00  0.00     0.237 C 
BRANCH  13  14
HETATM   14  C   UNL     1       4.506  30.625  57.498  1.00  0.00     0.240 C 
HETATM   15  N   UNL     1       4.601  31.214  58.747  1.00  0.00    -0.326 N 
HETATM   16  H   UNL     1       4.982  30.633  59.491  1.00  0.00     0.169 HD
HETATM   17  O   UNL     1       4.032  31.135  56.486  1.00  0.00    -0.271 OA
BRANCH  15  18
HETATM   18  C   UNL     1       4.143  32.493  59.123  1.00  0.00     0.034 A 
HETATM   19  C   UNL     1       4.640  33.686  58.596  1.00  0.00     0.030 A 
HETATM   20  C   UNL     1       4.103  34.919  58.986  1.00  0.00     0.009 A 
HETATM   21  C   UNL     1       3.058  34.979  59.911  1.00  0.00    -0.062 A 
HETATM   22  C   UNL     1       2.504  36.305  60.342  1.00  0.00     0.048 C 
HETATM   23  C   UNL     1       2.579  33.788  60.465  1.00  0.00     0.009 A 
HETATM   24  C   UNL     1       3.110  32.556  60.066  1.00  0.00     0.030 A 
ENDBRANCH  15  18
ENDBRANCH  13  14
ENDBRANCH   1  13
BRANCH   4  25
HETATM   25  C   UNL     1       6.851  27.474  53.420  1.00  0.00     0.175 C 
BRANCH  25  26
HETATM   26  C   UNL     1       7.252  26.008  53.405  1.00  0.00    -0.037 A 
HETATM   27  C   UNL     1       7.648  25.369  54.593  1.00  0.00     0.048 A 
HETATM   28  C   UNL     1       8.124  24.077  54.508  1.00  0.00     0.105 A 
HETATM   29  C   UNL     1       8.207  23.411  53.309  1.00  0.00     0.105 A 
HETATM   30  O   UNL     1       8.582  23.330  55.548  1.00  0.00    -0.323 OA
HETATM   31  O   UNL     1       8.726  22.161  53.444  1.00  0.00    -0.323 OA
HETATM   32  C   UNL     1       7.812  23.995  52.127  1.00  0.00     0.040 A 
HETATM   33  C   UNL     1       8.981  22.124  54.863  1.00  0.00     0.352 A 
HETATM   34  C   UNL     1       7.333  25.307  52.178  1.00  0.00     0.012 A 
ENDBRANCH  25  26
ENDBRANCH   4  25
BRANCH  11  35
HETATM   35  C   UNL     1       8.839  31.582  59.883  1.00  0.00     0.252 C 
HETATM   36  N   UNL     1       7.717  31.551  60.678  1.00  0.00    -0.352 N 
HETATM   37  H   UNL     1       6.980  30.914  60.411  1.00  0.00     0.163 HD
HETATM   38  O   UNL     1       9.889  32.139  60.160  1.00  0.00    -0.268 OA
BRANCH  36  39
HETATM   39  C   UNL     1       7.605  32.094  62.033  1.00  0.00     0.084 C 
HETATM   40  C   UNL     1       7.392  33.613  62.056  1.00  0.00     0.025 C 
HETATM   41  C   UNL     1       5.932  34.048  62.074  1.00  0.00     0.002 C 
HETATM   42  C   UNL     1       5.151  33.342  63.174  1.00  0.00     0.000 C 
HETATM   43  C   UNL     1       5.231  31.827  63.046  1.00  0.00     0.002 C 
HETATM   44  C   UNL     1       6.667  31.315  62.968  1.00  0.00     0.025 C 
ENDBRANCH  36  39
ENDBRANCH  11  35
TORSDOF 7
ENDMDL
MODEL 9
REMARK VINA RESULT:     -10.5      1.722      2.648
REMARK  7 active torsions:
REMARK  status: ('A' for Active; 'I' for Inactive)
REMARK    1  A    between atoms: C_5  and  N_6 
REMARK       I    between atoms: N_6  and  C_7 
REMARK    2  A    between atoms: C_7  and  C_8 
REMARK    3  A    between atoms: C_8  and  N_9 
REMARK    4  A    between atoms: N_12  and  C_13 
REMARK    5  A    between atoms: C_13  and  C_14 
REMARK    6  A    between atoms: C_29  and  C_30 
REMARK       I    between atoms: C_30  and  N_31 
REMARK    7  A    between atoms: N_31  and  C_32 
ROOT
HETATM    1  N   UNL     1       7.289  29.617  57.523  1.00  0.00    -0.290 N 
HETATM    2  C   UNL     1       7.761  28.321  57.397  1.00  0.00     0.332 C 
HETATM    3  O   UNL     1       8.972  28.091  57.449  1.00  0.00    -0.246 OA
HETATM    4  N   UNL     1       6.816  27.325  57.217  1.00  0.00    -0.261 N 
HETATM    5  C   UNL     1       5.480  27.552  56.927  1.00  0.00     0.264 C 
HETATM    6  O   UNL     1       4.653  26.664  56.740  1.00  0.00    -0.267 OA
HETATM    7  C   UNL     1       5.047  28.959  56.863  1.00  0.00     0.059 A 
HETATM    8  C   UNL     1       5.955  29.967  57.191  1.00  0.00     0.056 A 
HETATM    9  C   UNL     1       3.716  29.257  56.528  1.00  0.00     0.020 A 
HETATM   10  C   UNL     1       3.277  30.580  56.521  1.00  0.00     0.018 A 
HETATM   11  C   UNL     1       4.170  31.601  56.853  1.00  0.00     0.034 A 
HETATM   12  C   UNL     1       5.507  31.294  57.168  1.00  0.00     0.048 A 
ENDROOT
BRANCH   1  13
HETATM   13  C   UNL     1       8.187  30.600  58.138  1.00  0.00     0.237 C 
BRANCH  13  14
HETATM   14  C   UNL     1       8.074  30.752  59.654  1.00  0.00     0.240 C 
HETATM   15  N   UNL     1       7.344  31.857  60.054  1.00  0.00    -0.326 N 
HETATM   16  H   UNL     1       6.917  32.408  59.312  1.00  0.00     0.169 HD
HETATM   17  O   UNL     1       8.703  29.991  60.385  1.00  0.00    -0.271 OA
BRANCH  15  18
HETATM   18  C   UNL     1       7.202  32.358  61.365  1.00  0.00     0.034 A 
HETATM   19  C   UNL     1       6.041  32.963  61.847  1.00  0.00     0.030 A 
HETATM   20  C   UNL     1       5.960  33.394  63.177  1.00  0.00     0.009 A 
HETATM   21  C   UNL     1       7.040  33.227  64.047  1.00  0.00    -0.062 A 
HETATM   22  C   UNL     1       6.954  33.713  65.463  1.00  0.00     0.048 C 
HETATM   23  C   UNL     1       8.216  32.650  63.558  1.00  0.00     0.009 A 
HETATM   24  C   UNL     1       8.291  32.209  62.231  1.00  0.00     0.030 A 
ENDBRANCH  15  18
ENDBRANCH  13  14
ENDBRANCH   1  13
BRANCH   4  25
HETATM   25  C   UNL     1       7.242  25.949  57.447  1.00  0.00     0.175 C 
BRANCH  25  26
HETATM   26  C   UNL     1       7.332  25.205  56.125  1.00  0.00    -0.037 A 
HETATM   27  C   UNL     1       7.326  23.799  56.100  1.00  0.00     0.048 A 
HETATM   28  C   UNL     1       7.537  23.169  54.892  1.00  0.00     0.105 A 
HETATM   29  C   UNL     1       7.741  23.875  53.730  1.00  0.00     0.105 A 
HETATM   30  O   UNL     1       7.599  21.824  54.698  1.00  0.00    -0.323 OA
HETATM   31  O   UNL     1       7.955  23.064  52.660  1.00  0.00    -0.323 OA
HETATM   32  C   UNL     1       7.736  25.251  53.709  1.00  0.00     0.040 A 
HETATM   33  C   UNL     1       7.885  21.766  53.284  1.00  0.00     0.352 A 
HETATM   34  C   UNL     1       7.533  25.920  54.919  1.00  0.00     0.012 A 
ENDBRANCH  25  26
ENDBRANCH   4  25
BRANCH  11  35
HETATM   35  C   UNL     1       3.763  33.031  56.867  1.00  0.00     0.252 C 
HETATM   36  N   UNL     1       4.315  33.821  55.886  1.00  0.00    -0.352 N 
HETATM   37  H   UNL     1       4.838  33.355  55.158  1.00  0.00     0.163 HD
HETATM   38  O   UNL     1       2.951  33.399  57.701  1.00  0.00    -0.268 OA
BRANCH  36  39
HETATM   39  C   UNL     1       3.964  35.214  55.602  1.00  0.00     0.084 C 
HETATM   40  C   UNL     1       5.000  36.215  56.128  1.00  0.00     0.025 C 
HETATM   41  C   UNL     1       6.086  36.589  55.127  1.00  0.00     0.002 C 
HETATM   42  C   UNL     1       5.492  37.025  53.794  1.00  0.00     0.000 C 
HETATM   43  C   UNL     1       4.592  35.953  53.194  1.00  0.00     0.002 C 
HETATM   44  C   UNL     1       3.506  35.485  54.160  1.00  0.00     0.025 C 
ENDBRANCH  36  39
ENDBRANCH  11  35
TORSDOF 7
ENDMDL
MODEL 10
REMARK VINA RESULT:     -10.4      1.882      4.985
REMARK  7 active torsions:
REMARK  status: ('A' for Active; 'I' for Inactive)
REMARK    1  A    between atoms: C_5  and  N_6 
REMARK       I    between atoms: N_6  and  C_7 
REMARK    2  A    between atoms: C_7  and  C_8 
REMARK    3  A    between atoms: C_8  and  N_9 
REMARK    4  A    between atoms: N_12  and  C_13 
REMARK    5  A    between atoms: C_13  and  C_14 
REMARK    6  A    between atoms: C_29  and  C_30 
REMARK       I    between atoms: C_30  and  N_31 
REMARK    7  A    between atoms: N_31  and  C_32 
ROOT
HETATM    1  N   UNL     1       6.122  30.926  58.501  1.00  0.00    -0.290 N 
HETATM    2  C   UNL     1       6.474  30.082  57.461  1.00  0.00     0.332 C 
HETATM    3  O   UNL     1       5.602  29.540  56.776  1.00  0.00    -0.246 OA
HETATM    4  N   UNL     1       7.827  29.891  57.238  1.00  0.00    -0.261 N 
HETATM    5  C   UNL     1       8.830  30.290  58.108  1.00  0.00     0.264 C 
HETATM    6  O   UNL     1      10.027  30.092  57.918  1.00  0.00    -0.267 OA
HETATM    7  C   UNL     1       8.406  31.011  59.320  1.00  0.00     0.059 A 
HETATM    8  C   UNL     1       7.060  31.341  59.482  1.00  0.00     0.056 A 
HETATM    9  C   UNL     1       9.370  31.400  60.265  1.00  0.00     0.020 A 
HETATM   10  C   UNL     1       8.991  32.134  61.388  1.00  0.00     0.018 A 
HETATM   11  C   UNL     1       7.649  32.479  61.562  1.00  0.00     0.034 A 
HETATM   12  C   UNL     1       6.687  32.067  60.621  1.00  0.00     0.048 A 
ENDROOT
BRANCH   1  13
HETATM   13  C   UNL     1       4.765  31.482  58.483  1.00  0.00     0.237 C 
BRANCH  13  14
HETATM   14  C   UNL     1       4.666  32.997  58.312  1.00  0.00     0.240 C 
HETATM   15  N   UNL     1       3.779  33.602  59.185  1.00  0.00    -0.326 N 
HETATM   16  H   UNL     1       3.340  32.996  59.874  1.00  0.00     0.169 HD
HETATM   17  O   UNL     1       5.259  33.539  57.383  1.00  0.00    -0.271 OA
BRANCH  15  18
HETATM   18  C   UNL     1       3.346  34.944  59.166  1.00  0.00     0.034 A 
HETATM   19  C   UNL     1       2.018  35.333  58.991  1.00  0.00     0.030 A 
HETATM   20  C   UNL     1       1.658  36.686  59.030  1.00  0.00     0.009 A 
HETATM   21  C   UNL     1       2.622  37.673  59.246  1.00  0.00    -0.062 A 
HETATM   22  C   UNL     1       2.231  39.121  59.264  1.00  0.00     0.048 C 
HETATM   23  C   UNL     1       3.958  37.289  59.391  1.00  0.00     0.009 A 
HETATM   24  C   UNL     1       4.315  35.936  59.362  1.00  0.00     0.030 A 
ENDBRANCH  15  18
ENDBRANCH  13  14
ENDBRANCH   1  13
BRANCH   4  25
HETATM   25  C   UNL     1       8.221  29.321  55.955  1.00  0.00     0.175 C 
BRANCH  25  26
HETATM   26  C   UNL     1       7.964  27.824  55.950  1.00  0.00    -0.037 A 
HETATM   27  C   UNL     1       8.417  27.023  57.014  1.00  0.00     0.048 A 
HETATM   28  C   UNL     1       8.273  25.655  56.905  1.00  0.00     0.105 A 
HETATM   29  C   UNL     1       7.697  25.071  55.803  1.00  0.00     0.105 A 
HETATM   30  O   UNL     1       8.688  24.738  57.820  1.00  0.00    -0.323 OA
HETATM   31  O   UNL     1       7.676  23.714  55.885  1.00  0.00    -0.323 OA
HETATM   32  C   UNL     1       7.224  25.820  54.749  1.00  0.00     0.040 A 
HETATM   33  C   UNL     1       8.325  23.509  57.157  1.00  0.00     0.352 A 
HETATM   34  C   UNL     1       7.364  27.209  54.825  1.00  0.00     0.012 A 
ENDBRANCH  25  26
ENDBRANCH   4  25
BRANCH  11  35
HETATM   35  C   UNL     1       7.182  33.263  62.735  1.00  0.00     0.252 C 
HETATM   36  N   UNL     1       6.043  34.010  62.543  1.00  0.00    -0.352 N 
HETATM   37  H   UNL     1       5.538  33.868  61.679  1.00  0.00     0.163 HD
HETATM   38  O   UNL     1       7.797  33.166  63.785  1.00  0.00    -0.268 OA
BRANCH  36  39
HETATM   39  C   UNL     1       5.310  34.745  63.575  1.00  0.00     0.084 C 
HETATM   40  C   UNL     1       5.768  36.202  63.716  1.00  0.00     0.025 C 
HETATM   41  C   UNL     1       4.989  37.197  62.865  1.00  0.00     0.002 C 
HETATM   42  C   UNL     1       3.487  37.047  63.062  1.00  0.00     0.000 C 
HETATM   43  C   UNL     1       3.012  35.633  62.757  1.00  0.00     0.002 C 
HETATM   44  C   UNL     1       3.783  34.569  63.534  1.00  0.00     0.025 C 
ENDBRANCH  36  39
ENDBRANCH  11  35
TORSDOF 7
ENDMDL
