MODEL 1
REMARK VINA RESULT:     -10.3      0.000      0.000
REMARK  6 active torsions:
REMARK  status: ('A' for Active; 'I' for Inactive)
REMARK    1  A    between atoms: O_2  and  C_3 
REMARK    2  A    between atoms: C_6  and  C_7 
REMARK    3  A    between atoms: C_9  and  N_10 
REMARK    4  A    between atoms: N_10  and  N_11 
REMARK       I    between atoms: N_10  and  C_21 
REMARK       I    between atoms: N_11  and  C_12 
REMARK       I    between atoms: C_12  and  N_13 
REMARK    5  A    between atoms: N_13  and  C_14 
REMARK       I    between atoms: C_21  and  N_22 
REMARK    6  A    between atoms: N_22  and  C_23 
ROOT
HETATM    1  N   UNL     1       7.533  28.169  56.154  1.00  0.00    -0.176 N 
HETATM    2  C   UNL     1       7.938  26.806  56.222  1.00  0.00     0.348 C 
HETATM    3  N   UNL     1       7.200  25.996  55.364  1.00  0.00    -0.307 N 
HETATM    4  O   UNL     1       8.808  26.364  56.968  1.00  0.00    -0.245 OA
HETATM    5  H   UNL     1       6.286  26.378  55.135  1.00  0.00     0.170 HD
ENDROOT
BRANCH   1   6
HETATM    6  C   UNL     1       8.111  29.084  57.038  1.00  0.00     0.197 A 
HETATM    7  N   UNL     1       7.587  29.619  58.116  1.00  0.00    -0.222 NA
HETATM    8  C   UNL     1       8.527  30.379  58.800  1.00  0.00     0.076 A 
HETATM    9  C   UNL     1       9.737  30.504  58.147  1.00  0.00     0.086 A 
HETATM   10  S   UNL     1       9.734  29.562  56.714  1.00  0.00    -0.060 SA
BRANCH   8  11
HETATM   11  C   UNL     1       8.231  30.912  60.130  1.00  0.00    -0.007 A 
HETATM   12  C   UNL     1       7.279  31.915  60.348  1.00  0.00     0.016 A 
HETATM   13  C   UNL     1       7.098  32.458  61.627  1.00  0.00     0.037 A 
HETATM   14  C   UNL     1       7.861  32.015  62.708  1.00  0.00     0.068 A 
HETATM   15  C   UNL     1       8.790  30.996  62.508  1.00  0.00     0.037 A 
HETATM   16  C   UNL     1       8.969  30.450  61.231  1.00  0.00     0.016 A 
BRANCH  14  17
HETATM   17  O   UNL     1       7.604  32.651  63.890  1.00  0.00    -0.356 OA
HETATM   18  C   UNL     1       6.256  33.037  64.127  1.00  0.00     0.210 C 
ENDBRANCH  14  17
ENDBRANCH   8  11
ENDBRANCH   1   6
BRANCH   1  19
HETATM   19  N   UNL     1       7.129  28.714  54.892  1.00  0.00    -0.239 N 
HETATM   20  C   UNL     1       5.821  28.740  54.485  1.00  0.00     0.335 C 
HETATM   21  N   UNL     1       5.687  29.299  53.240  1.00  0.00    -0.337 N 
HETATM   22  O   UNL     1       4.897  28.257  55.128  1.00  0.00    -0.246 OA
HETATM   23  H   UNL     1       6.512  29.667  52.792  1.00  0.00     0.164 HD
HETATM   24  H   UNL     1       7.856  28.681  54.188  1.00  0.00     0.192 HD
BRANCH  21  25
HETATM   25  C   UNL     1       4.482  29.135  52.435  1.00  0.00     0.086 C 
HETATM   26  C   UNL     1       4.439  30.168  51.302  1.00  0.00     0.025 C 
HETATM   27  C   UNL     1       5.473  29.897  50.209  1.00  0.00     0.002 C 
HETATM   28  C   UNL     1       5.387  28.467  49.682  1.00  0.00     0.000 C 
HETATM   29  C   UNL     1       5.460  27.440  50.808  1.00  0.00     0.002 C 
HETATM   30  C   UNL     1       4.404  27.705  51.881  1.00  0.00     0.025 C 
ENDBRANCH  21  25
ENDBRANCH   1  19
BRANCH   3  31
HETATM   31  C   UNL     1       7.379  24.633  55.069  1.00  0.00     0.036 A 
HETATM   32  C   UNL     1       7.344  23.615  56.023  1.00  0.00     0.031 A 
HETATM   33  C   UNL     1       7.541  22.282  55.641  1.00  0.00     0.026 A 
HETATM   34  C   UNL     1       7.785  21.969  54.306  1.00  0.00     0.034 A 
HETATM   35 CL   UNL     1       8.032  20.331  53.840  1.00  0.00    -0.084 Cl
HETATM   36  C   UNL     1       7.833  22.975  53.347  1.00  0.00     0.026 A 
HETATM   37  C   UNL     1       7.630  24.304  53.728  1.00  0.00     0.031 A 
ENDBRANCH   3  31
TORSDOF 6
ENDMDL
MODEL 2
REMARK VINA RESULT:      -9.6      2.322      3.315
REMARK  6 active torsions:
REMARK  status: ('A' for Active; 'I' for Inactive)
REMARK    1  A    between atoms: O_2  and  C_3 
REMARK    2  A    between atoms: C_6  and  C_7 
REMARK    3  A    between atoms: C_9  and  N_10 
REMARK    4  A    between atoms: N_10  and  N_11 
REMARK       I    between atoms: N_10  and  C_21 
REMARK       I    between atoms: N_11  and  C_12 
REMARK       I    between atoms: C_12  and  N_13 
REMARK    5  A    between atoms: N_13  and  C_14 
REMARK       I    between atoms: C_21  and  N_22 
REMARK    6  A    between atoms: N_22  and  C_23 
ROOT
HETATM    1  N   UNL     1       4.936  27.362  54.680  1.00  0.00    -0.176 N 
HETATM    2  C   UNL     1       5.989  26.425  54.875  1.00  0.00     0.348 C 
HETATM    3  N   UNL     1       5.717  25.198  54.277  1.00  0.00    -0.307 N 
HETATM    4  O   UNL     1       7.011  26.636  55.522  1.00  0.00    -0.245 OA
HETATM    5  H   UNL     1       4.723  25.023  54.151  1.00  0.00     0.170 HD
ENDROOT
BRANCH   1   6
HETATM    6  C   UNL     1       5.019  28.604  55.315  1.00  0.00     0.197 A 
HETATM    7  N   UNL     1       5.544  28.891  56.483  1.00  0.00    -0.222 NA
HETATM    8  C   UNL     1       5.552  30.262  56.702  1.00  0.00     0.076 A 
HETATM    9  C   UNL     1       4.907  30.994  55.725  1.00  0.00     0.086 A 
HETATM   10  S   UNL     1       4.387  29.960  54.460  1.00  0.00    -0.060 SA
BRANCH   8  11
HETATM   11  C   UNL     1       6.264  30.832  57.846  1.00  0.00    -0.007 A 
HETATM   12  C   UNL     1       7.450  30.283  58.348  1.00  0.00     0.016 A 
HETATM   13  C   UNL     1       8.044  30.809  59.502  1.00  0.00     0.037 A 
HETATM   14  C   UNL     1       7.468  31.886  60.178  1.00  0.00     0.068 A 
HETATM   15  C   UNL     1       6.305  32.459  59.670  1.00  0.00     0.037 A 
HETATM   16  C   UNL     1       5.712  31.936  58.514  1.00  0.00     0.016 A 
BRANCH  14  17
HETATM   17  O   UNL     1       8.135  32.277  61.305  1.00  0.00    -0.356 OA
HETATM   18  C   UNL     1       9.241  31.477  61.703  1.00  0.00     0.210 C 
ENDBRANCH  14  17
ENDBRANCH   8  11
ENDBRANCH   1   6
BRANCH   1  19
HETATM   19  N   UNL     1       4.223  27.361  53.437  1.00  0.00    -0.239 N 
HETATM   20  C   UNL     1       4.853  27.466  52.226  1.00  0.00     0.335 C 
HETATM   21  N   UNL     1       3.960  27.452  51.185  1.00  0.00    -0.337 N 
HETATM   22  O   UNL     1       6.061  27.625  52.097  1.00  0.00    -0.246 OA
HETATM   23  H   UNL     1       2.984  27.317  51.398  1.00  0.00     0.164 HD
HETATM   24  H   UNL     1       3.271  27.694  53.520  1.00  0.00     0.192 HD
BRANCH  21  25
HETATM   25  C   UNL     1       4.318  27.894  49.842  1.00  0.00     0.086 C 
HETATM   26  C   UNL     1       4.660  26.697  48.947  1.00  0.00     0.025 C 
HETATM   27  C   UNL     1       3.436  25.854  48.584  1.00  0.00     0.002 C 
HETATM   28  C   UNL     1       2.312  26.704  47.996  1.00  0.00     0.000 C 
HETATM   29  C   UNL     1       1.952  27.877  48.903  1.00  0.00     0.002 C 
HETATM   30  C   UNL     1       3.178  28.728  49.237  1.00  0.00     0.025 C 
ENDBRANCH  21  25
ENDBRANCH   1  19
BRANCH   3  31
HETATM   31  C   UNL     1       6.551  24.074  54.156  1.00  0.00     0.036 A 
HETATM   32  C   UNL     1       7.060  23.604  52.943  1.00  0.00     0.031 A 
HETATM   33  C   UNL     1       7.878  22.468  52.914  1.00  0.00     0.026 A 
HETATM   34  C   UNL     1       8.178  21.794  54.095  1.00  0.00     0.034 A 
HETATM   35 CL   UNL     1       9.179  20.395  54.055  1.00  0.00    -0.084 Cl
HETATM   36  C   UNL     1       7.668  22.244  55.308  1.00  0.00     0.026 A 
HETATM   37  C   UNL     1       6.858  23.382  55.337  1.00  0.00     0.031 A 
ENDBRANCH   3  31
TORSDOF 6
ENDMDL
MODEL 3
REMARK VINA RESULT:      -9.3      3.486      9.467
REMARK  6 active torsions:
REMARK  status: ('A' for Active; 'I' for Inactive)
REMARK    1  A    between atoms: O_2  and  C_3 
REMARK    2  A    between atoms: C_6  and  C_7 
REMARK    3  A    between atoms: C_9  and  N_10 
REMARK    4  A    between atoms: N_10  and  N_11 
REMARK       I    between atoms: N_10  and  C_21 
REMARK       I    between atoms: N_11  and  C_12 
REMARK       I    between atoms: C_12  and  N_13 
REMARK    5  A    between atoms: N_13  and  C_14 
REMARK       I    between atoms: C_21  and  N_22 
REMARK    6  A    between atoms: N_22  and  C_23 
ROOT
HETATM    1  N   UNL     1       5.998  27.302  52.598  1.00  0.00    -0.176 N 
HETATM    2  C   UNL     1       6.029  25.882  52.684  1.00  0.00     0.348 C 
HETATM    3  N   UNL     1       7.127  25.424  53.406  1.00  0.00    -0.307 N 
HETATM    4  O   UNL     1       5.217  25.125  52.160  1.00  0.00    -0.245 OA
HETATM    5  H   UNL     1       7.904  26.081  53.418  1.00  0.00     0.170 HD
ENDROOT
BRANCH   1   6
HETATM    6  C   UNL     1       5.012  27.904  51.812  1.00  0.00     0.197 A 
HETATM    7  N   UNL     1       4.588  27.550  50.622  1.00  0.00    -0.222 NA
HETATM    8  C   UNL     1       3.502  28.322  50.231  1.00  0.00     0.076 A 
HETATM    9  C   UNL     1       3.194  29.348  51.103  1.00  0.00     0.086 A 
HETATM   10  S   UNL     1       4.206  29.271  52.484  1.00  0.00    -0.060 SA
BRANCH   8  11
HETATM   11  C   UNL     1       2.738  27.983  49.029  1.00  0.00    -0.007 A 
HETATM   12  C   UNL     1       1.612  28.706  48.621  1.00  0.00     0.016 A 
HETATM   13  C   UNL     1       0.860  28.286  47.516  1.00  0.00     0.037 A 
HETATM   14  C   UNL     1       1.213  27.141  46.802  1.00  0.00     0.068 A 
HETATM   15  C   UNL     1       2.350  26.431  47.181  1.00  0.00     0.037 A 
HETATM   16  C   UNL     1       3.105  26.852  48.283  1.00  0.00     0.016 A 
BRANCH  14  17
HETATM   17  O   UNL     1       0.376  26.829  45.767  1.00  0.00    -0.356 OA
HETATM   18  C   UNL     1      -0.568  27.823  45.389  1.00  0.00     0.210 C 
ENDBRANCH  14  17
ENDBRANCH   8  11
ENDBRANCH   1   6
BRANCH   1  19
HETATM   19  N   UNL     1       6.440  28.078  53.719  1.00  0.00    -0.239 N 
HETATM   20  C   UNL     1       6.158  27.730  55.014  1.00  0.00     0.335 C 
HETATM   21  N   UNL     1       6.678  28.631  55.907  1.00  0.00    -0.337 N 
HETATM   22  O   UNL     1       5.465  26.770  55.326  1.00  0.00    -0.246 OA
HETATM   23  H   UNL     1       7.234  29.392  55.547  1.00  0.00     0.164 HD
HETATM   24  H   UNL     1       6.585  29.055  53.499  1.00  0.00     0.192 HD
BRANCH  21  25
HETATM   25  C   UNL     1       6.238  28.698  57.296  1.00  0.00     0.086 C 
HETATM   26  C   UNL     1       7.406  29.062  58.220  1.00  0.00     0.025 C 
HETATM   27  C   UNL     1       7.862  30.513  58.064  1.00  0.00     0.002 C 
HETATM   28  C   UNL     1       6.700  31.494  58.199  1.00  0.00     0.000 C 
HETATM   29  C   UNL     1       5.550  31.148  57.256  1.00  0.00     0.002 C 
HETATM   30  C   UNL     1       5.086  29.703  57.441  1.00  0.00     0.025 C 
ENDBRANCH  21  25
ENDBRANCH   1  19
BRANCH   3  31
HETATM   31  C   UNL     1       7.438  24.110  53.798  1.00  0.00     0.036 A 
HETATM   32  C   UNL     1       7.271  23.621  55.095  1.00  0.00     0.031 A 
HETATM   33  C   UNL     1       7.615  22.299  55.400  1.00  0.00     0.026 A 
HETATM   34  C   UNL     1       8.138  21.468  54.412  1.00  0.00     0.034 A 
HETATM   35 CL   UNL     1       8.566  19.846  54.791  1.00  0.00    -0.084 Cl
HETATM   36  C   UNL     1       8.320  21.947  53.118  1.00  0.00     0.026 A 
HETATM   37  C   UNL     1       7.970  23.265  52.813  1.00  0.00     0.031 A 
ENDBRANCH   3  31
TORSDOF 6
ENDMDL
MODEL 4
REMARK VINA RESULT:      -9.2      3.990      8.717
REMARK  6 active torsions:
REMARK  status: ('A' for Active; 'I' for Inactive)
REMARK    1  A    between atoms: O_2  and  C_3 
REMARK    2  A    between atoms: C_6  and  C_7 
REMARK    3  A    between atoms: C_9  and  N_10 
REMARK    4  A    between atoms: N_10  and  N_11 
REMARK       I    between atoms: N_10  and  C_21 
REMARK       I    between atoms: N_11  and  C_12 
REMARK       I    between atoms: C_12  and  N_13 
REMARK    5  A    between atoms: N_13  and  C_14 
REMARK       I    between atoms: C_21  and  N_22 
REMARK    6  A    between atoms: N_22  and  C_23 
ROOT
HETATM    1  N   UNL     1       6.737  29.467  56.040  1.00  0.00    -0.176 N 
HETATM    2  C   UNL     1       7.050  29.429  57.427  1.00  0.00     0.348 C 
HETATM    3  N   UNL     1       7.387  30.685  57.924  1.00  0.00    -0.307 N 
HETATM    4  O   UNL     1       7.066  28.416  58.120  1.00  0.00    -0.245 OA
HETATM    5  H   UNL     1       7.733  31.321  57.209  1.00  0.00     0.170 HD
ENDROOT
BRANCH   1   6
HETATM    6  C   UNL     1       6.484  28.263  55.377  1.00  0.00     0.197 A 
HETATM    7  N   UNL     1       7.326  27.300  55.085  1.00  0.00    -0.222 NA
HETATM    8  C   UNL     1       6.663  26.207  54.541  1.00  0.00     0.076 A 
HETATM    9  C   UNL     1       5.316  26.418  54.317  1.00  0.00     0.086 A 
HETATM   10  S   UNL     1       4.856  27.962  54.901  1.00  0.00    -0.060 SA
BRANCH   8  11
HETATM   11  C   UNL     1       7.364  24.942  54.319  1.00  0.00    -0.007 A 
HETATM   12  C   UNL     1       7.363  24.284  53.083  1.00  0.00     0.016 A 
HETATM   13  C   UNL     1       7.970  23.029  52.945  1.00  0.00     0.037 A 
HETATM   14  C   UNL     1       8.586  22.408  54.032  1.00  0.00     0.068 A 
HETATM   15  C   UNL     1       8.620  23.067  55.258  1.00  0.00     0.037 A 
HETATM   16  C   UNL     1       8.016  24.324  55.397  1.00  0.00     0.016 A 
BRANCH  14  17
HETATM   17  O   UNL     1       9.110  21.174  53.766  1.00  0.00    -0.356 OA
HETATM   18  C   UNL     1       8.412  20.375  52.818  1.00  0.00     0.210 C 
ENDBRANCH  14  17
ENDBRANCH   8  11
ENDBRANCH   1   6
BRANCH   1  19
HETATM   19  N   UNL     1       6.050  30.608  55.511  1.00  0.00    -0.239 N 
HETATM   20  C   UNL     1       4.987  31.190  56.150  1.00  0.00     0.335 C 
HETATM   21  N   UNL     1       4.493  32.257  55.445  1.00  0.00    -0.337 N 
HETATM   22  O   UNL     1       4.498  30.762  57.188  1.00  0.00    -0.246 OA
HETATM   23  H   UNL     1       4.967  32.529  54.598  1.00  0.00     0.164 HD
HETATM   24  H   UNL     1       6.111  30.682  54.503  1.00  0.00     0.192 HD
BRANCH  21  25
HETATM   25  C   UNL     1       3.176  32.826  55.710  1.00  0.00     0.086 C 
HETATM   26  C   UNL     1       3.217  34.357  55.628  1.00  0.00     0.025 C 
HETATM   27  C   UNL     1       3.399  34.874  54.201  1.00  0.00     0.002 C 
HETATM   28  C   UNL     1       2.370  34.279  53.243  1.00  0.00     0.000 C 
HETATM   29  C   UNL     1       2.351  32.755  53.302  1.00  0.00     0.002 C 
HETATM   30  C   UNL     1       2.142  32.249  54.730  1.00  0.00     0.025 C 
ENDBRANCH  21  25
ENDBRANCH   1  19
BRANCH   3  31
HETATM   31  C   UNL     1       7.644  31.067  59.251  1.00  0.00     0.036 A 
HETATM   32  C   UNL     1       8.698  30.568  60.019  1.00  0.00     0.031 A 
HETATM   33  C   UNL     1       8.875  30.998  61.340  1.00  0.00     0.026 A 
HETATM   34  C   UNL     1       7.991  31.919  61.897  1.00  0.00     0.034 A 
HETATM   35 CL   UNL     1       8.207  32.442  63.522  1.00  0.00    -0.084 Cl
HETATM   36  C   UNL     1       6.930  32.415  61.147  1.00  0.00     0.026 A 
HETATM   37  C   UNL     1       6.759  31.990  59.827  1.00  0.00     0.031 A 
ENDBRANCH   3  31
TORSDOF 6
ENDMDL
MODEL 5
REMARK VINA RESULT:      -9.2      1.887      2.364
REMARK  6 active torsions:
REMARK  status: ('A' for Active; 'I' for Inactive)
REMARK    1  A    between atoms: O_2  and  C_3 
REMARK    2  A    between atoms: C_6  and  C_7 
REMARK    3  A    between atoms: C_9  and  N_10 
REMARK    4  A    between atoms: N_10  and  N_11 
REMARK       I    between atoms: N_10  and  C_21 
REMARK       I    between atoms: N_11  and  C_12 
REMARK       I    between atoms: C_12  and  N_13 
REMARK    5  A    between atoms: N_13  and  C_14 
REMARK       I    between atoms: C_21  and  N_22 
REMARK    6  A    between atoms: N_22  and  C_23 
ROOT
HETATM    1  N   UNL     1       5.510  28.782  55.012  1.00  0.00    -0.176 N 
HETATM    2  C   UNL     1       6.249  27.595  55.280  1.00  0.00     0.348 C 
HETATM    3  N   UNL     1       6.028  26.611  54.321  1.00  0.00    -0.307 N 
HETATM    4  O   UNL     1       6.974  27.420  56.256  1.00  0.00    -0.245 OA
HETATM    5  H   UNL     1       5.140  26.713  53.836  1.00  0.00     0.170 HD
ENDROOT
BRANCH   1   6
HETATM    6  C   UNL     1       5.547  29.819  55.947  1.00  0.00     0.197 A 
HETATM    7  N   UNL     1       6.090  29.823  57.141  1.00  0.00    -0.222 NA
HETATM    8  C   UNL     1       6.033  31.088  57.710  1.00  0.00     0.076 A 
HETATM    9  C   UNL     1       5.323  32.011  56.967  1.00  0.00     0.086 A 
HETATM   10  S   UNL     1       4.821  31.312  55.485  1.00  0.00    -0.060 SA
BRANCH   8  11
HETATM   11  C   UNL     1       6.747  31.382  58.953  1.00  0.00    -0.007 A 
HETATM   12  C   UNL     1       7.905  30.697  59.339  1.00  0.00     0.016 A 
HETATM   13  C   UNL     1       8.500  30.950  60.582  1.00  0.00     0.037 A 
HETATM   14  C   UNL     1       7.953  31.885  61.461  1.00  0.00     0.068 A 
HETATM   15  C   UNL     1       6.819  32.595  61.074  1.00  0.00     0.037 A 
HETATM   16  C   UNL     1       6.225  32.345  59.830  1.00  0.00     0.016 A 
BRANCH  14  17
HETATM   17  O   UNL     1       8.616  32.010  62.650  1.00  0.00    -0.356 OA
HETATM   18  C   UNL     1       7.943  32.720  63.684  1.00  0.00     0.210 C 
ENDBRANCH  14  17
ENDBRANCH   8  11
ENDBRANCH   1   6
BRANCH   1  19
HETATM   19  N   UNL     1       5.324  29.195  53.652  1.00  0.00    -0.239 N 
HETATM   20  C   UNL     1       4.254  28.789  52.899  1.00  0.00     0.335 C 
HETATM   21  N   UNL     1       4.301  29.306  51.630  1.00  0.00    -0.337 N 
HETATM   22  O   UNL     1       3.400  28.005  53.294  1.00  0.00    -0.246 OA
HETATM   23  H   UNL     1       5.049  29.944  51.403  1.00  0.00     0.164 HD
HETATM   24  H   UNL     1       6.188  29.429  53.181  1.00  0.00     0.192 HD
BRANCH  21  25
HETATM   25  C   UNL     1       3.499  28.768  50.537  1.00  0.00     0.086 C 
HETATM   26  C   UNL     1       2.926  29.899  49.674  1.00  0.00     0.025 C 
HETATM   27  C   UNL     1       3.990  30.611  48.838  1.00  0.00     0.002 C 
HETATM   28  C   UNL     1       4.820  29.629  48.014  1.00  0.00     0.000 C 
HETATM   29  C   UNL     1       5.415  28.522  48.879  1.00  0.00     0.002 C 
HETATM   30  C   UNL     1       4.338  27.800  49.690  1.00  0.00     0.025 C 
ENDBRANCH  21  25
ENDBRANCH   1  19
BRANCH   3  31
HETATM   31  C   UNL     1       6.655  25.362  54.181  1.00  0.00     0.036 A 
HETATM   32  C   UNL     1       6.659  24.373  55.167  1.00  0.00     0.031 A 
HETATM   33  C   UNL     1       7.318  23.158  54.946  1.00  0.00     0.026 A 
HETATM   34  C   UNL     1       7.984  22.935  53.743  1.00  0.00     0.034 A 
HETATM   35 CL   UNL     1       8.798  21.442  53.476  1.00  0.00    -0.084 Cl
HETATM   36  C   UNL     1       7.998  23.916  52.757  1.00  0.00     0.026 A 
HETATM   37  C   UNL     1       7.334  25.126  52.976  1.00  0.00     0.031 A 
ENDBRANCH   3  31
TORSDOF 6
ENDMDL
MODEL 6
REMARK VINA RESULT:      -9.1      4.008      6.808
REMARK  6 active torsions:
REMARK  status: ('A' for Active; 'I' for Inactive)
REMARK    1  A    between atoms: O_2  and  C_3 
REMARK    2  A    between atoms: C_6  and  C_7 
REMARK    3  A    between atoms: C_9  and  N_10 
REMARK    4  A    between atoms: N_10  and  N_11 
REMARK       I    between atoms: N_10  and  C_21 
REMARK       I    between atoms: N_11  and  C_12 
REMARK       I    between atoms: C_12  and  N_13 
REMARK    5  A    between atoms: N_13  and  C_14 
REMARK       I    between atoms: C_21  and  N_22 
REMARK    6  A    between atoms: N_22  and  C_23 
ROOT
HETATM    1  N   UNL     1       6.721  31.434  58.576  1.00  0.00    -0.176 N 
HETATM    2  C   UNL     1       5.809  32.256  57.856  1.00  0.00     0.348 C 
HETATM    3  N   UNL     1       5.509  31.734  56.602  1.00  0.00    -0.307 N 
HETATM    4  O   UNL     1       5.354  33.324  58.256  1.00  0.00    -0.245 OA
HETATM    5  H   UNL     1       6.230  31.113  56.240  1.00  0.00     0.170 HD
ENDROOT
BRANCH   1   6
HETATM    6  C   UNL     1       7.200  31.885  59.809  1.00  0.00     0.197 A 
HETATM    7  N   UNL     1       6.519  32.361  60.824  1.00  0.00    -0.222 NA
HETATM    8  C   UNL     1       7.343  32.575  61.920  1.00  0.00     0.076 A 
HETATM    9  C   UNL     1       8.685  32.363  61.669  1.00  0.00     0.086 A 
HETATM   10  S   UNL     1       8.900  31.780  60.071  1.00  0.00    -0.060 SA
BRANCH   8  11
HETATM   11  C   UNL     1       6.778  32.917  63.226  1.00  0.00    -0.007 A 
HETATM   12  C   UNL     1       5.399  32.970  63.461  1.00  0.00     0.016 A 
HETATM   13  C   UNL     1       4.905  33.394  64.702  1.00  0.00     0.037 A 
HETATM   14  C   UNL     1       5.773  33.773  65.727  1.00  0.00     0.068 A 
HETATM   15  C   UNL     1       7.147  33.694  65.514  1.00  0.00     0.037 A 
HETATM   16  C   UNL     1       7.642  33.268  64.274  1.00  0.00     0.016 A 
BRANCH  14  17
HETATM   17  O   UNL     1       5.158  34.194  66.873  1.00  0.00    -0.356 OA
HETATM   18  C   UNL     1       6.006  34.586  67.945  1.00  0.00     0.210 C 
ENDBRANCH  14  17
ENDBRANCH   8  11
ENDBRANCH   1   6
BRANCH   1  19
HETATM   19  N   UNL     1       6.632  30.010  58.442  1.00  0.00    -0.239 N 
HETATM   20  C   UNL     1       7.576  29.271  57.778  1.00  0.00     0.335 C 
HETATM   21  N   UNL     1       7.266  27.936  57.775  1.00  0.00    -0.337 N 
HETATM   22  O   UNL     1       8.540  29.758  57.200  1.00  0.00    -0.246 OA
HETATM   23  H   UNL     1       6.447  27.636  58.281  1.00  0.00     0.164 HD
HETATM   24  H   UNL     1       5.683  29.661  58.482  1.00  0.00     0.192 HD
BRANCH  21  25
HETATM   25  C   UNL     1       7.895  26.989  56.861  1.00  0.00     0.086 C 
HETATM   26  C   UNL     1       7.652  25.546  57.318  1.00  0.00     0.025 C 
HETATM   27  C   UNL     1       6.201  25.098  57.135  1.00  0.00     0.002 C 
HETATM   28  C   UNL     1       5.705  25.337  55.712  1.00  0.00     0.000 C 
HETATM   29  C   UNL     1       5.920  26.782  55.269  1.00  0.00     0.002 C 
HETATM   30  C   UNL     1       7.379  27.210  55.431  1.00  0.00     0.025 C 
ENDBRANCH  21  25
ENDBRANCH   1  19
BRANCH   3  31
HETATM   31  C   UNL     1       4.575  32.192  55.657  1.00  0.00     0.036 A 
HETATM   32  C   UNL     1       4.836  33.193  54.720  1.00  0.00     0.031 A 
HETATM   33  C   UNL     1       3.842  33.595  53.820  1.00  0.00     0.026 A 
HETATM   34  C   UNL     1       2.581  33.005  53.865  1.00  0.00     0.034 A 
HETATM   35 CL   UNL     1       1.359  33.505  52.762  1.00  0.00    -0.084 Cl
HETATM   36  C   UNL     1       2.303  32.015  54.802  1.00  0.00     0.026 A 
HETATM   37  C   UNL     1       3.299  31.609  55.695  1.00  0.00     0.031 A 
ENDBRANCH   3  31
TORSDOF 6
ENDMDL
MODEL 7
REMARK VINA RESULT:      -8.9      4.057      9.688
REMARK  6 active torsions:
REMARK  status: ('A' for Active; 'I' for Inactive)
REMARK    1  A    between atoms: O_2  and  C_3 
REMARK    2  A    between atoms: C_6  and  C_7 
REMARK    3  A    between atoms: C_9  and  N_10 
REMARK    4  A    between atoms: N_10  and  N_11 
REMARK       I    between atoms: N_10  and  C_21 
REMARK       I    between atoms: N_11  and  C_12 
REMARK       I    between atoms: C_12  and  N_13 
REMARK    5  A    between atoms: N_13  and  C_14 
REMARK       I    between atoms: C_21  and  N_22 
REMARK    6  A    between atoms: N_22  and  C_23 
ROOT
HETATM    1  N   UNL     1       5.991  28.069  51.612  1.00  0.00    -0.176 N 
HETATM    2  C   UNL     1       6.098  26.653  51.714  1.00  0.00     0.348 C 
HETATM    3  N   UNL     1       6.922  26.263  52.766  1.00  0.00    -0.307 N 
HETATM    4  O   UNL     1       5.566  25.848  50.955  1.00  0.00    -0.245 OA
HETATM    5  H   UNL     1       7.598  26.975  53.033  1.00  0.00     0.170 HD
ENDROOT
BRANCH   1   6
HETATM    6  C   UNL     1       5.284  28.611  50.536  1.00  0.00     0.197 A 
HETATM    7  N   UNL     1       4.373  28.038  49.786  1.00  0.00    -0.222 NA
HETATM    8  C   UNL     1       3.807  28.950  48.905  1.00  0.00     0.076 A 
HETATM    9  C   UNL     1       4.400  30.197  48.925  1.00  0.00     0.086 A 
HETATM   10  S   UNL     1       5.605  30.258  50.143  1.00  0.00    -0.060 SA
BRANCH   8  11
HETATM   11  C   UNL     1       2.635  28.590  48.107  1.00  0.00    -0.007 A 
HETATM   12  C   UNL     1       2.054  29.464  47.180  1.00  0.00     0.016 A 
HETATM   13  C   UNL     1       0.878  29.108  46.508  1.00  0.00     0.037 A 
HETATM   14  C   UNL     1       0.259  27.880  46.747  1.00  0.00     0.068 A 
HETATM   15  C   UNL     1       0.846  26.990  47.643  1.00  0.00     0.037 A 
HETATM   16  C   UNL     1       2.024  27.344  48.314  1.00  0.00     0.016 A 
BRANCH  14  17
HETATM   17  O   UNL     1      -0.897  27.675  46.047  1.00  0.00    -0.356 OA
HETATM   18  C   UNL     1      -1.275  28.692  45.127  1.00  0.00     0.210 C 
ENDBRANCH  14  17
ENDBRANCH   8  11
ENDBRANCH   1   6
BRANCH   1  19
HETATM   19  N   UNL     1       5.974  28.855  52.810  1.00  0.00    -0.239 N 
HETATM   20  C   UNL     1       4.892  28.894  53.650  1.00  0.00     0.335 C 
HETATM   21  N   UNL     1       5.110  29.723  54.721  1.00  0.00    -0.337 N 
HETATM   22  O   UNL     1       3.837  28.313  53.430  1.00  0.00    -0.246 OA
HETATM   23  H   UNL     1       6.016  30.157  54.810  1.00  0.00     0.164 HD
HETATM   24  H   UNL     1       6.589  29.658  52.773  1.00  0.00     0.192 HD
BRANCH  21  25
HETATM   25  C   UNL     1       4.025  30.214  55.562  1.00  0.00     0.086 C 
HETATM   26  C   UNL     1       4.432  30.199  57.041  1.00  0.00     0.025 C 
HETATM   27  C   UNL     1       5.476  31.262  57.384  1.00  0.00     0.002 C 
HETATM   28  C   UNL     1       5.047  32.653  56.924  1.00  0.00     0.000 C 
HETATM   29  C   UNL     1       4.672  32.674  55.445  1.00  0.00     0.002 C 
HETATM   30  C   UNL     1       3.608  31.625  55.120  1.00  0.00     0.025 C 
ENDBRANCH  21  25
ENDBRANCH   1  19
BRANCH   3  31
HETATM   31  C   UNL     1       7.179  24.970  53.250  1.00  0.00     0.036 A 
HETATM   32  C   UNL     1       7.743  23.946  52.486  1.00  0.00     0.031 A 
HETATM   33  C   UNL     1       7.957  22.681  53.047  1.00  0.00     0.026 A 
HETATM   34  C   UNL     1       7.596  22.436  54.370  1.00  0.00     0.034 A 
HETATM   35 CL   UNL     1       7.855  20.879  55.055  1.00  0.00    -0.084 Cl
HETATM   36  C   UNL     1       7.023  23.443  55.139  1.00  0.00     0.026 A 
HETATM   37  C   UNL     1       6.816  24.707  54.579  1.00  0.00     0.031 A 
ENDBRANCH   3  31
TORSDOF 6
ENDMDL
MODEL 8
REMARK VINA RESULT:      -8.9      3.887      9.773
REMARK  6 active torsions:
REMARK  status: ('A' for Active; 'I' for Inactive)
REMARK    1  A    between atoms: O_2  and  C_3 
REMARK    2  A    between atoms: C_6  and  C_7 
REMARK    3  A    between atoms: C_9  and  N_10 
REMARK    4  A    between atoms: N_10  and  N_11 
REMARK       I    between atoms: N_10  and  C_21 
REMARK       I    between atoms: N_11  and  C_12 
REMARK       I    between atoms: C_12  and  N_13 
REMARK    5  A    between atoms: N_13  and  C_14 
REMARK       I    between atoms: C_21  and  N_22 
REMARK    6  A    between atoms: N_22  and  C_23 
ROOT
HETATM    1  N   UNL     1       5.276  26.699  53.948  1.00  0.00    -0.176 N 
HETATM    2  C   UNL     1       5.713  27.905  54.562  1.00  0.00     0.348 C 
HETATM    3  N   UNL     1       5.819  27.783  55.944  1.00  0.00    -0.307 N 
HETATM    4  O   UNL     1       5.943  28.956  53.969  1.00  0.00    -0.245 OA
HETATM    5  H   UNL     1       5.229  27.049  56.330  1.00  0.00     0.170 HD
ENDROOT
BRANCH   1   6
HETATM    6  C   UNL     1       5.019  26.700  52.574  1.00  0.00     0.197 A 
HETATM    7  N   UNL     1       4.687  27.712  51.807  1.00  0.00    -0.222 NA
HETATM    8  C   UNL     1       4.651  27.333  50.472  1.00  0.00     0.076 A 
HETATM    9  C   UNL     1       4.845  25.981  50.262  1.00  0.00     0.086 A 
HETATM   10  S   UNL     1       5.190  25.198  51.747  1.00  0.00    -0.060 SA
BRANCH   8  11
HETATM   11  C   UNL     1       4.495  28.333  49.415  1.00  0.00    -0.007 A 
HETATM   12  C   UNL     1       5.211  29.536  49.403  1.00  0.00     0.016 A 
HETATM   13  C   UNL     1       4.959  30.503  48.420  1.00  0.00     0.037 A 
HETATM   14  C   UNL     1       3.992  30.290  47.437  1.00  0.00     0.068 A 
HETATM   15  C   UNL     1       3.297  29.084  47.422  1.00  0.00     0.037 A 
HETATM   16  C   UNL     1       3.550  28.115  48.401  1.00  0.00     0.016 A 
BRANCH  14  17
HETATM   17  O   UNL     1       3.827  31.327  46.561  1.00  0.00    -0.356 OA
HETATM   18  C   UNL     1       5.002  32.034  46.183  1.00  0.00     0.210 C 
ENDBRANCH  14  17
ENDBRANCH   8  11
ENDBRANCH   1   6
BRANCH   1  19
HETATM   19  N   UNL     1       5.717  25.444  54.483  1.00  0.00    -0.239 N 
HETATM   20  C   UNL     1       7.041  25.150  54.675  1.00  0.00     0.335 C 
HETATM   21  N   UNL     1       7.213  23.890  55.186  1.00  0.00    -0.337 N 
HETATM   22  O   UNL     1       7.959  25.898  54.361  1.00  0.00    -0.246 OA
HETATM   23  H   UNL     1       6.390  23.350  55.410  1.00  0.00     0.164 HD
HETATM   24  H   UNL     1       5.071  24.685  54.311  1.00  0.00     0.192 HD
BRANCH  21  25
HETATM   25  C   UNL     1       8.499  23.202  55.156  1.00  0.00     0.086 C 
HETATM   26  C   UNL     1       8.539  22.077  56.197  1.00  0.00     0.025 C 
HETATM   27  C   UNL     1       7.647  20.891  55.830  1.00  0.00     0.002 C 
HETATM   28  C   UNL     1       7.933  20.376  54.422  1.00  0.00     0.000 C 
HETATM   29  C   UNL     1       7.862  21.491  53.382  1.00  0.00     0.002 C 
HETATM   30  C   UNL     1       8.778  22.660  53.746  1.00  0.00     0.025 C 
ENDBRANCH  21  25
ENDBRANCH   1  19
BRANCH   3  31
HETATM   31  C   UNL     1       6.320  28.709  56.874  1.00  0.00     0.036 A 
HETATM   32  C   UNL     1       5.621  29.835  57.313  1.00  0.00     0.031 A 
HETATM   33  C   UNL     1       6.202  30.712  58.237  1.00  0.00     0.026 A 
HETATM   34  C   UNL     1       7.488  30.469  58.715  1.00  0.00     0.034 A 
HETATM   35 CL   UNL     1       8.202  31.551  59.846  1.00  0.00    -0.084 Cl
HETATM   36  C   UNL     1       8.200  29.358  58.277  1.00  0.00     0.026 A 
HETATM   37  C   UNL     1       7.616  28.480  57.359  1.00  0.00     0.031 A 
ENDBRANCH   3  31
TORSDOF 6
ENDMDL
MODEL 9
REMARK VINA RESULT:      -8.7      4.494      8.414
REMARK  6 active torsions:
REMARK  status: ('A' for Active; 'I' for Inactive)
REMARK    1  A    between atoms: O_2  and  C_3 
REMARK    2  A    between atoms: C_6  and  C_7 
REMARK    3  A    between atoms: C_9  and  N_10 
REMARK    4  A    between atoms: N_10  and  N_11 
REMARK       I    between atoms: N_10  and  C_21 
REMARK       I    between atoms: N_11  and  C_12 
REMARK       I    between atoms: C_12  and  N_13 
REMARK    5  A    between atoms: N_13  and  C_14 
REMARK       I    between atoms: C_21  and  N_22 
REMARK    6  A    between atoms: N_22  and  C_23 
ROOT
HETATM    1  N   UNL     1       6.560  28.915  55.307  1.00  0.00    -0.176 N 
HETATM    2  C   UNL     1       5.706  29.731  56.100  1.00  0.00     0.348 C 
HETATM    3  N   UNL     1       5.423  30.947  55.486  1.00  0.00    -0.307 N 
HETATM    4  O   UNL     1       5.283  29.437  57.215  1.00  0.00    -0.245 OA
HETATM    5  H   UNL     1       6.128  31.231  54.810  1.00  0.00     0.170 HD
ENDROOT
BRANCH   1   6
HETATM    6  C   UNL     1       7.018  27.708  55.841  1.00  0.00     0.197 A 
HETATM    7  N   UNL     1       6.947  26.506  55.321  1.00  0.00    -0.222 NA
HETATM    8  C   UNL     1       7.637  25.585  56.098  1.00  0.00     0.076 A 
HETATM    9  C   UNL     1       8.127  26.099  57.283  1.00  0.00     0.086 A 
HETATM   10  S   UNL     1       7.817  27.783  57.367  1.00  0.00    -0.060 SA
BRANCH   8  11
HETATM   11  C   UNL     1       7.863  24.221  55.618  1.00  0.00    -0.007 A 
HETATM   12  C   UNL     1       7.798  23.877  54.263  1.00  0.00     0.016 A 
HETATM   13  C   UNL     1       7.928  22.541  53.861  1.00  0.00     0.037 A 
HETATM   14  C   UNL     1       8.124  21.526  54.800  1.00  0.00     0.068 A 
HETATM   15  C   UNL     1       8.221  21.862  56.148  1.00  0.00     0.037 A 
HETATM   16  C   UNL     1       8.094  23.198  56.550  1.00  0.00     0.016 A 
BRANCH  14  17
HETATM   17  O   UNL     1       8.204  20.267  54.274  1.00  0.00    -0.356 OA
HETATM   18  C   UNL     1       8.474  20.173  52.881  1.00  0.00     0.210 C 
ENDBRANCH  14  17
ENDBRANCH   8  11
ENDBRANCH   1   6
BRANCH   1  19
HETATM   19  N   UNL     1       6.415  28.933  53.881  1.00  0.00    -0.239 N 
HETATM   20  C   UNL     1       5.224  28.665  53.258  1.00  0.00     0.335 C 
HETATM   21  N   UNL     1       5.339  28.734  51.894  1.00  0.00    -0.337 N 
HETATM   22  O   UNL     1       4.204  28.337  53.850  1.00  0.00    -0.246 OA
HETATM   23  H   UNL     1       6.226  29.012  51.503  1.00  0.00     0.164 HD
HETATM   24  H   UNL     1       7.276  28.738  53.388  1.00  0.00     0.192 HD
BRANCH  21  25
HETATM   25  C   UNL     1       4.341  28.162  50.996  1.00  0.00     0.086 C 
HETATM   26  C   UNL     1       3.307  29.218  50.587  1.00  0.00     0.025 C 
HETATM   27  C   UNL     1       3.876  30.275  49.640  1.00  0.00     0.002 C 
HETATM   28  C   UNL     1       4.561  29.648  48.429  1.00  0.00     0.000 C 
HETATM   29  C   UNL     1       5.611  28.620  48.838  1.00  0.00     0.002 C 
HETATM   30  C   UNL     1       5.025  27.553  49.763  1.00  0.00     0.025 C 
ENDBRANCH  21  25
ENDBRANCH   1  19
BRANCH   3  31
HETATM   31  C   UNL     1       4.538  31.958  55.899  1.00  0.00     0.036 A 
HETATM   32  C   UNL     1       3.249  32.125  55.390  1.00  0.00     0.031 A 
HETATM   33  C   UNL     1       2.437  33.167  55.854  1.00  0.00     0.026 A 
HETATM   34  C   UNL     1       2.917  34.050  56.818  1.00  0.00     0.034 A 
HETATM   35 CL   UNL     1       1.919  35.334  57.381  1.00  0.00    -0.084 Cl
HETATM   36  C   UNL     1       4.204  33.902  57.325  1.00  0.00     0.026 A 
HETATM   37  C   UNL     1       5.011  32.857  56.866  1.00  0.00     0.031 A 
ENDBRANCH   3  31
TORSDOF 6
ENDMDL
MODEL 10
REMARK VINA RESULT:      -8.5      5.299      8.911
REMARK  6 active torsions:
REMARK  status: ('A' for Active; 'I' for Inactive)
REMARK    1  A    between atoms: O_2  and  C_3 
REMARK    2  A    between atoms: C_6  and  C_7 
REMARK    3  A    between atoms: C_9  and  N_10 
REMARK    4  A    between atoms: N_10  and  N_11 
REMARK       I    between atoms: N_10  and  C_21 
REMARK       I    between atoms: N_11  and  C_12 
REMARK       I    between atoms: C_12  and  N_13 
REMARK    5  A    between atoms: N_13  and  C_14 
REMARK       I    between atoms: C_21  and  N_22 
REMARK    6  A    between atoms: N_22  and  C_23 
ROOT
HETATM    1  N   UNL     1       5.095  29.046  53.768  1.00  0.00    -0.176 N 
HETATM    2  C   UNL     1       4.602  30.132  54.545  1.00  0.00     0.348 C 
HETATM    3  N   UNL     1       3.929  31.071  53.767  1.00  0.00    -0.307 N 
HETATM    4  O   UNL     1       4.769  30.270  55.753  1.00  0.00    -0.245 OA
HETATM    5  H   UNL     1       4.213  31.062  52.790  1.00  0.00     0.170 HD
ENDROOT
BRANCH   1   6
HETATM    6  C   UNL     1       5.885  28.079  54.395  1.00  0.00     0.197 A 
HETATM    7  N   UNL     1       5.890  26.781  54.205  1.00  0.00    -0.222 NA
HETATM    8  C   UNL     1       6.915  26.177  54.922  1.00  0.00     0.076 A 
HETATM    9  C   UNL     1       7.606  27.037  55.754  1.00  0.00     0.086 A 
HETATM   10  S   UNL     1       7.037  28.641  55.547  1.00  0.00    -0.060 SA
BRANCH   8  11
HETATM   11  C   UNL     1       7.240  24.766  54.716  1.00  0.00    -0.007 A 
HETATM   12  C   UNL     1       7.392  24.203  53.443  1.00  0.00     0.016 A 
HETATM   13  C   UNL     1       7.611  22.827  53.296  1.00  0.00     0.037 A 
HETATM   14  C   UNL     1       7.680  21.989  54.409  1.00  0.00     0.068 A 
HETATM   15  C   UNL     1       7.562  22.543  55.681  1.00  0.00     0.037 A 
HETATM   16  C   UNL     1       7.346  23.919  55.831  1.00  0.00     0.016 A 
BRANCH  14  17
HETATM   17  O   UNL     1       7.867  20.666  54.120  1.00  0.00    -0.356 OA
HETATM   18  C   UNL     1       8.400  20.363  52.837  1.00  0.00     0.210 C 
ENDBRANCH  14  17
ENDBRANCH   8  11
ENDBRANCH   1   6
BRANCH   1  19
HETATM   19  N   UNL     1       4.319  28.573  52.660  1.00  0.00    -0.239 N 
HETATM   20  C   UNL     1       4.768  28.633  51.367  1.00  0.00     0.335 C 
HETATM   21  N   UNL     1       3.846  28.130  50.485  1.00  0.00    -0.337 N 
HETATM   22  O   UNL     1       5.834  29.139  51.038  1.00  0.00    -0.246 OA
HETATM   23  H   UNL     1       2.996  27.736  50.858  1.00  0.00     0.164 HD
HETATM   24  H   UNL     1       3.322  28.595  52.829  1.00  0.00     0.192 HD
BRANCH  21  25
HETATM   25  C   UNL     1       3.913  28.390  49.052  1.00  0.00     0.086 C 
HETATM   26  C   UNL     1       4.447  27.164  48.301  1.00  0.00     0.025 C 
HETATM   27  C   UNL     1       3.452  26.003  48.268  1.00  0.00     0.002 C 
HETATM   28  C   UNL     1       2.084  26.438  47.751  1.00  0.00     0.000 C 
HETATM   29  C   UNL     1       1.540  27.639  48.519  1.00  0.00     0.002 C 
HETATM   30  C   UNL     1       2.532  28.803  48.522  1.00  0.00     0.025 C 
ENDBRANCH  21  25
ENDBRANCH   1  19
BRANCH   3  31
HETATM   31  C   UNL     1       3.215  32.208  54.181  1.00  0.00     0.036 A 
HETATM   32  C   UNL     1       1.994  32.161  54.857  1.00  0.00     0.031 A 
HETATM   33  C   UNL     1       1.344  33.346  55.225  1.00  0.00     0.026 A 
HETATM   34  C   UNL     1       1.910  34.578  54.906  1.00  0.00     0.034 A 
HETATM   35 CL   UNL     1       1.107  36.033  55.354  1.00  0.00    -0.084 Cl
HETATM   36  C   UNL     1       3.120  34.639  54.223  1.00  0.00     0.026 A 
HETATM   37  C   UNL     1       3.770  33.455  53.862  1.00  0.00     0.031 A 
ENDBRANCH   3  31
TORSDOF 6
ENDMDL
