MODEL 1
REMARK VINA RESULT:      -8.0      0.000      0.000
REMARK  2 active torsions:
REMARK  status: ('A' for Active; 'I' for Inactive)
REMARK    1  A    between atoms: C_2  and  C_3 
REMARK    2  A    between atoms: C_6  and  C_7 
ROOT
HETATM    1  C   UNL     1       7.058  27.591  53.607  1.00  0.00     0.119 C 
HETATM    2  S   UNL     1       7.806  28.235  55.123  1.00  0.00    -0.141 SA
HETATM    3  C   UNL     1       6.425  28.866  56.114  1.00  0.00     0.136 C 
HETATM    4  C   UNL     1       5.849  30.188  55.624  1.00  0.00     0.031 C 
HETATM    5  C   UNL     1       5.386  27.815  56.442  1.00  0.00     0.236 C 
HETATM    6  O   UNL     1       5.220  27.349  57.561  1.00  0.00    -0.272 OA
HETATM    7  N   UNL     1       4.439  27.358  55.480  1.00  0.00    -0.311 N 
HETATM    8  C   UNL     1       4.493  27.622  54.134  1.00  0.00     0.134 C 
HETATM    9  C   UNL     1       5.605  27.797  53.335  1.00  0.00     0.032 C 
HETATM   10  N   UNL     1       3.403  27.708  53.312  1.00  0.00    -0.262 N 
HETATM   11  H   UNL     1       2.424  27.579  53.544  1.00  0.00     0.191 HD
HETATM   12  N   UNL     1       3.703  28.115  52.076  1.00  0.00    -0.178 NA
HETATM   13  C   UNL     1       5.040  28.150  52.061  1.00  0.00     0.062 C 
HETATM   14  C   UNL     1       5.744  28.502  50.799  1.00  0.00     0.073 C 
HETATM   15  H   UNL     1       3.648  26.856  55.871  1.00  0.00     0.170 HD
ENDROOT
BRANCH   1  16
HETATM   16  C   UNL     1       7.286  26.093  53.423  1.00  0.00    -0.040 A 
HETATM   17  C   UNL     1       7.500  25.501  52.165  1.00  0.00     0.009 A 
HETATM   18  C   UNL     1       7.763  24.133  52.046  1.00  0.00     0.007 A 
HETATM   19  C   UNL     1       7.808  23.316  53.179  1.00  0.00    -0.059 A 
HETATM   20  C   UNL     1       7.576  23.887  54.433  1.00  0.00     0.007 A 
HETATM   21  C   UNL     1       7.314  25.254  54.552  1.00  0.00     0.009 A 
BRANCH  19  22
HETATM   22  C   UNL     1       8.138  21.850  53.052  1.00  0.00     0.034 C 
HETATM   23  C   UNL     1       7.823  21.095  54.335  1.00  0.00     0.010 C 
ENDBRANCH  19  22
ENDBRANCH   1  16
TORSDOF 2
ENDMDL
MODEL 2
REMARK VINA RESULT:      -8.0      2.535      3.837
REMARK  2 active torsions:
REMARK  status: ('A' for Active; 'I' for Inactive)
REMARK    1  A    between atoms: C_2  and  C_3 
REMARK    2  A    between atoms: C_6  and  C_7 
ROOT
HETATM    1  C   UNL     1       5.947  26.122  55.054  1.00  0.00     0.119 C 
HETATM    2  S   UNL     1       4.417  26.226  54.094  1.00  0.00    -0.141 SA
HETATM    3  C   UNL     1       4.497  27.817  53.227  1.00  0.00     0.136 C 
HETATM    4  C   UNL     1       4.234  29.030  54.111  1.00  0.00     0.031 C 
HETATM    5  C   UNL     1       5.701  27.953  52.321  1.00  0.00     0.236 C 
HETATM    6  O   UNL     1       5.636  27.947  51.099  1.00  0.00    -0.272 OA
HETATM    7  N   UNL     1       7.008  28.206  52.828  1.00  0.00    -0.311 N 
HETATM    8  C   UNL     1       7.369  28.127  54.151  1.00  0.00     0.134 C 
HETATM    9  C   UNL     1       6.871  27.292  55.131  1.00  0.00     0.032 C 
HETATM   10  N   UNL     1       8.365  28.862  54.732  1.00  0.00    -0.262 N 
HETATM   11  H   UNL     1       8.984  29.541  54.302  1.00  0.00     0.191 HD
HETATM   12  N   UNL     1       8.429  28.712  56.058  1.00  0.00    -0.178 NA
HETATM   13  C   UNL     1       7.546  27.741  56.317  1.00  0.00     0.062 C 
HETATM   14  C   UNL     1       7.395  27.251  57.714  1.00  0.00     0.073 C 
HETATM   15  H   UNL     1       7.676  28.526  52.135  1.00  0.00     0.170 HD
ENDROOT
BRANCH   1  16
HETATM   16  C   UNL     1       6.829  24.947  54.641  1.00  0.00    -0.040 A 
HETATM   17  C   UNL     1       7.587  24.200  55.561  1.00  0.00     0.009 A 
HETATM   18  C   UNL     1       8.337  23.095  55.149  1.00  0.00     0.007 A 
HETATM   19  C   UNL     1       8.359  22.710  53.805  1.00  0.00    -0.059 A 
HETATM   20  C   UNL     1       7.627  23.457  52.877  1.00  0.00     0.007 A 
HETATM   21  C   UNL     1       6.877  24.561  53.289  1.00  0.00     0.009 A 
BRANCH  19  22
HETATM   22  C   UNL     1       9.131  21.490  53.371  1.00  0.00     0.034 C 
HETATM   23  C   UNL     1       8.203  20.392  52.871  1.00  0.00     0.010 C 
ENDBRANCH  19  22
ENDBRANCH   1  16
TORSDOF 2
ENDMDL
MODEL 3
REMARK VINA RESULT:      -7.7      2.688      3.912
REMARK  2 active torsions:
REMARK  status: ('A' for Active; 'I' for Inactive)
REMARK    1  A    between atoms: C_2  and  C_3 
REMARK    2  A    between atoms: C_6  and  C_7 
ROOT
HETATM    1  C   UNL     1       6.599  27.240  56.794  1.00  0.00     0.119 C 
HETATM    2  S   UNL     1       4.794  27.344  56.728  1.00  0.00    -0.141 SA
HETATM    3  C   UNL     1       4.421  28.354  55.269  1.00  0.00     0.136 C 
HETATM    4  C   UNL     1       4.678  29.845  55.452  1.00  0.00     0.031 C 
HETATM    5  C   UNL     1       4.966  27.779  53.979  1.00  0.00     0.236 C 
HETATM    6  O   UNL     1       4.264  27.290  53.104  1.00  0.00    -0.272 OA
HETATM    7  N   UNL     1       6.347  27.860  53.636  1.00  0.00    -0.311 N 
HETATM    8  C   UNL     1       7.351  28.238  54.493  1.00  0.00     0.134 C 
HETATM    9  C   UNL     1       7.438  28.044  55.856  1.00  0.00     0.032 C 
HETATM   10  N   UNL     1       8.512  28.852  54.110  1.00  0.00    -0.262 N 
HETATM   11  H   UNL     1       8.817  29.101  53.176  1.00  0.00     0.191 HD
HETATM   12  N   UNL     1       9.265  29.248  55.139  1.00  0.00    -0.178 NA
HETATM   13  C   UNL     1       8.642  28.743  56.210  1.00  0.00     0.062 C 
HETATM   14  C   UNL     1       9.247  28.929  57.557  1.00  0.00     0.073 C 
HETATM   15  H   UNL     1       6.550  27.676  52.659  1.00  0.00     0.170 HD
ENDROOT
BRANCH   1  16
HETATM   16  C   UNL     1       7.117  25.810  56.659  1.00  0.00    -0.040 A 
HETATM   17  C   UNL     1       6.557  24.875  55.770  1.00  0.00     0.009 A 
HETATM   18  C   UNL     1       7.098  23.593  55.635  1.00  0.00     0.007 A 
HETATM   19  C   UNL     1       8.206  23.205  56.394  1.00  0.00    -0.059 A 
HETATM   20  C   UNL     1       8.759  24.117  57.297  1.00  0.00     0.007 A 
HETATM   21  C   UNL     1       8.219  25.399  57.431  1.00  0.00     0.009 A 
BRANCH  19  22
HETATM   22  C   UNL     1       8.816  21.838  56.214  1.00  0.00     0.034 C 
HETATM   23  C   UNL     1       7.753  20.785  55.939  1.00  0.00     0.010 C 
ENDBRANCH  19  22
ENDBRANCH   1  16
TORSDOF 2
ENDMDL
MODEL 4
REMARK VINA RESULT:      -7.4     10.990     13.737
REMARK  2 active torsions:
REMARK  status: ('A' for Active; 'I' for Inactive)
REMARK    1  A    between atoms: C_2  and  C_3 
REMARK    2  A    between atoms: C_6  and  C_7 
ROOT
HETATM    1  C   UNL     1       6.022  34.682  63.522  1.00  0.00     0.119 C 
HETATM    2  S   UNL     1       5.053  36.023  62.790  1.00  0.00    -0.141 SA
HETATM    3  C   UNL     1       3.798  35.208  61.765  1.00  0.00     0.136 C 
HETATM    4  C   UNL     1       4.326  34.636  60.456  1.00  0.00     0.031 C 
HETATM    5  C   UNL     1       2.900  34.269  62.541  1.00  0.00     0.236 C 
HETATM    6  O   UNL     1       1.722  34.498  62.782  1.00  0.00    -0.272 OA
HETATM    7  N   UNL     1       3.336  32.980  62.965  1.00  0.00    -0.311 N 
HETATM    8  C   UNL     1       4.636  32.539  62.936  1.00  0.00     0.134 C 
HETATM    9  C   UNL     1       5.796  33.268  63.099  1.00  0.00     0.032 C 
HETATM   10  N   UNL     1       5.012  31.232  62.785  1.00  0.00    -0.262 N 
HETATM   11  H   UNL     1       4.424  30.412  62.693  1.00  0.00     0.191 HD
HETATM   12  N   UNL     1       6.331  31.075  62.644  1.00  0.00    -0.178 NA
HETATM   13  C   UNL     1       6.829  32.297  62.858  1.00  0.00     0.062 C 
HETATM   14  C   UNL     1       8.304  32.493  62.850  1.00  0.00     0.073 C 
HETATM   15  H   UNL     1       2.589  32.352  63.244  1.00  0.00     0.170 HD
ENDROOT
BRANCH   1  16
HETATM   16  C   UNL     1       5.943  34.656  65.046  1.00  0.00    -0.040 A 
HETATM   17  C   UNL     1       6.912  34.031  65.851  1.00  0.00     0.009 A 
HETATM   18  C   UNL     1       6.834  34.080  67.246  1.00  0.00     0.007 A 
HETATM   19  C   UNL     1       5.779  34.746  67.876  1.00  0.00    -0.059 A 
HETATM   20  C   UNL     1       4.797  35.353  67.088  1.00  0.00     0.007 A 
HETATM   21  C   UNL     1       4.876  35.305  65.694  1.00  0.00     0.009 A 
BRANCH  19  22
HETATM   22  C   UNL     1       5.721  34.838  69.379  1.00  0.00     0.034 C 
HETATM   23  C   UNL     1       6.631  33.811  70.037  1.00  0.00     0.010 C 
ENDBRANCH  19  22
ENDBRANCH   1  16
TORSDOF 2
ENDMDL
MODEL 5
REMARK VINA RESULT:      -7.1      2.775      6.049
REMARK  2 active torsions:
REMARK  status: ('A' for Active; 'I' for Inactive)
REMARK    1  A    between atoms: C_2  and  C_3 
REMARK    2  A    between atoms: C_6  and  C_7 
ROOT
HETATM    1  C   UNL     1       7.424  27.467  55.446  1.00  0.00     0.119 C 
HETATM    2  S   UNL     1       7.230  28.158  53.785  1.00  0.00    -0.141 SA
HETATM    3  C   UNL     1       5.484  27.913  53.361  1.00  0.00     0.136 C 
HETATM    4  C   UNL     1       5.117  26.479  53.000  1.00  0.00     0.031 C 
HETATM    5  C   UNL     1       4.527  28.579  54.327  1.00  0.00     0.236 C 
HETATM    6  O   UNL     1       3.858  29.565  54.050  1.00  0.00    -0.272 OA
HETATM    7  N   UNL     1       4.251  28.037  55.616  1.00  0.00    -0.311 N 
HETATM    8  C   UNL     1       4.960  27.024  56.213  1.00  0.00     0.134 C 
HETATM    9  C   UNL     1       6.302  26.724  56.091  1.00  0.00     0.032 C 
HETATM   10  N   UNL     1       4.440  26.133  57.111  1.00  0.00    -0.262 N 
HETATM   11  H   UNL     1       3.496  26.086  57.481  1.00  0.00     0.191 HD
HETATM   12  N   UNL     1       5.288  25.156  57.440  1.00  0.00    -0.178 NA
HETATM   13  C   UNL     1       6.435  25.511  56.851  1.00  0.00     0.062 C 
HETATM   14  C   UNL     1       7.649  24.676  57.060  1.00  0.00     0.073 C 
HETATM   15  H   UNL     1       3.423  28.414  56.064  1.00  0.00     0.170 HD
ENDROOT
BRANCH   1  16
HETATM   16  C   UNL     1       7.853  28.508  56.476  1.00  0.00    -0.040 A 
HETATM   17  C   UNL     1       6.938  29.202  57.289  1.00  0.00     0.009 A 
HETATM   18  C   UNL     1       7.377  30.105  58.261  1.00  0.00     0.007 A 
HETATM   19  C   UNL     1       8.741  30.350  58.441  1.00  0.00    -0.059 A 
HETATM   20  C   UNL     1       9.660  29.684  57.625  1.00  0.00     0.007 A 
HETATM   21  C   UNL     1       9.222  28.780  56.655  1.00  0.00     0.009 A 
BRANCH  19  22
HETATM   22  C   UNL     1       9.214  31.290  59.521  1.00  0.00     0.034 C 
HETATM   23  C   UNL     1       9.075  30.667  60.902  1.00  0.00     0.010 C 
ENDBRANCH  19  22
ENDBRANCH   1  16
TORSDOF 2
ENDMDL
MODEL 6
REMARK VINA RESULT:      -7.0      1.688      2.551
REMARK  2 active torsions:
REMARK  status: ('A' for Active; 'I' for Inactive)
REMARK    1  A    between atoms: C_2  and  C_3 
REMARK    2  A    between atoms: C_6  and  C_7 
ROOT
HETATM    1  C   UNL     1       7.661  26.183  54.385  1.00  0.00     0.119 C 
HETATM    2  S   UNL     1       8.037  27.629  55.405  1.00  0.00    -0.141 SA
HETATM    3  C   UNL     1       6.456  28.492  55.620  1.00  0.00     0.136 C 
HETATM    4  C   UNL     1       5.984  29.259  54.392  1.00  0.00     0.031 C 
HETATM    5  C   UNL     1       5.388  27.643  56.277  1.00  0.00     0.236 C 
HETATM    6  O   UNL     1       4.982  27.825  57.417  1.00  0.00    -0.272 OA
HETATM    7  N   UNL     1       4.691  26.621  55.571  1.00  0.00    -0.311 N 
HETATM    8  C   UNL     1       5.044  26.135  54.336  1.00  0.00     0.134 C 
HETATM    9  C   UNL     1       6.304  26.011  53.787  1.00  0.00     0.032 C 
HETATM   10  N   UNL     1       4.166  25.620  53.421  1.00  0.00    -0.262 N 
HETATM   11  H   UNL     1       3.163  25.502  53.505  1.00  0.00     0.191 HD
HETATM   12  N   UNL     1       4.731  25.347  52.242  1.00  0.00    -0.178 NA
HETATM   13  C   UNL     1       6.036  25.552  52.452  1.00  0.00     0.062 C 
HETATM   14  C   UNL     1       7.001  25.274  51.354  1.00  0.00     0.073 C 
HETATM   15  H   UNL     1       3.841  26.300  56.023  1.00  0.00     0.170 HD
ENDROOT
BRANCH   1  16
HETATM   16  C   UNL     1       7.951  24.864  55.096  1.00  0.00    -0.040 A 
HETATM   17  C   UNL     1       7.993  24.744  56.497  1.00  0.00     0.009 A 
HETATM   18  C   UNL     1       8.203  23.505  57.110  1.00  0.00     0.007 A 
HETATM   19  C   UNL     1       8.390  22.353  56.340  1.00  0.00    -0.059 A 
HETATM   20  C   UNL     1       8.372  22.461  54.947  1.00  0.00     0.007 A 
HETATM   21  C   UNL     1       8.160  23.699  54.335  1.00  0.00     0.009 A 
BRANCH  19  22
HETATM   22  C   UNL     1       8.570  21.011  57.003  1.00  0.00     0.034 C 
HETATM   23  C   UNL     1       8.520  19.877  55.989  1.00  0.00     0.010 C 
ENDBRANCH  19  22
ENDBRANCH   1  16
TORSDOF 2
ENDMDL
MODEL 7
REMARK VINA RESULT:      -6.9      8.199     11.066
REMARK  2 active torsions:
REMARK  status: ('A' for Active; 'I' for Inactive)
REMARK    1  A    between atoms: C_2  and  C_3 
REMARK    2  A    between atoms: C_6  and  C_7 
ROOT
HETATM    1  C   UNL     1       5.490  32.706  62.534  1.00  0.00     0.119 C 
HETATM    2  S   UNL     1       3.951  32.052  61.844  1.00  0.00    -0.141 SA
HETATM    3  C   UNL     1       2.864  33.490  61.639  1.00  0.00     0.136 C 
HETATM    4  C   UNL     1       2.267  34.019  62.937  1.00  0.00     0.031 C 
HETATM    5  C   UNL     1       3.439  34.558  60.734  1.00  0.00     0.236 C 
HETATM    6  O   UNL     1       3.010  34.802  59.614  1.00  0.00    -0.272 OA
HETATM    7  N   UNL     1       4.468  35.445  61.164  1.00  0.00    -0.311 N 
HETATM    8  C   UNL     1       5.203  35.299  62.315  1.00  0.00     0.134 C 
HETATM    9  C   UNL     1       5.584  34.135  62.952  1.00  0.00     0.032 C 
HETATM   10  N   UNL     1       5.749  36.332  63.027  1.00  0.00    -0.262 N 
HETATM   11  H   UNL     1       5.719  37.325  62.824  1.00  0.00     0.191 HD
HETATM   12  N   UNL     1       6.294  35.947  64.184  1.00  0.00    -0.178 NA
HETATM   13  C   UNL     1       6.228  34.612  64.145  1.00  0.00     0.062 C 
HETATM   14  C   UNL     1       6.817  33.823  65.261  1.00  0.00     0.073 C 
HETATM   15  H   UNL     1       4.592  36.264  60.579  1.00  0.00     0.170 HD
ENDROOT
BRANCH   1  16
HETATM   16  C   UNL     1       6.692  32.481  61.620  1.00  0.00    -0.040 A 
HETATM   17  C   UNL     1       8.004  32.326  62.106  1.00  0.00     0.009 A 
HETATM   18  C   UNL     1       9.069  32.064  61.240  1.00  0.00     0.007 A 
HETATM   19  C   UNL     1       8.856  31.960  59.862  1.00  0.00    -0.059 A 
HETATM   20  C   UNL     1       7.562  32.133  59.363  1.00  0.00     0.007 A 
HETATM   21  C   UNL     1       6.497  32.394  60.230  1.00  0.00     0.009 A 
BRANCH  19  22
HETATM   22  C   UNL     1       9.998  31.631  58.934  1.00  0.00     0.034 C 
HETATM   23  C   UNL     1       9.730  30.355  58.150  1.00  0.00     0.010 C 
ENDBRANCH  19  22
ENDBRANCH   1  16
TORSDOF 2
ENDMDL
MODEL 8
REMARK VINA RESULT:      -6.9      8.071      9.834
REMARK  2 active torsions:
REMARK  status: ('A' for Active; 'I' for Inactive)
REMARK    1  A    between atoms: C_2  and  C_3 
REMARK    2  A    between atoms: C_6  and  C_7 
ROOT
HETATM    1  C   UNL     1       4.728  33.755  60.084  1.00  0.00     0.119 C 
HETATM    2  S   UNL     1       4.240  35.251  60.977  1.00  0.00    -0.141 SA
HETATM    3  C   UNL     1       2.727  34.807  61.873  1.00  0.00     0.136 C 
HETATM    4  C   UNL     1       1.482  34.707  61.000  1.00  0.00     0.031 C 
HETATM    5  C   UNL     1       2.910  33.652  62.835  1.00  0.00     0.236 C 
HETATM    6  O   UNL     1       2.905  33.775  64.052  1.00  0.00    -0.272 OA
HETATM    7  N   UNL     1       2.998  32.301  62.391  1.00  0.00    -0.311 N 
HETATM    8  C   UNL     1       3.161  31.910  61.084  1.00  0.00     0.134 C 
HETATM    9  C   UNL     1       3.835  32.558  60.069  1.00  0.00     0.032 C 
HETATM   10  N   UNL     1       2.704  30.732  60.561  1.00  0.00    -0.262 N 
HETATM   11  H   UNL     1       2.209  29.982  61.030  1.00  0.00     0.191 HD
HETATM   12  N   UNL     1       2.858  30.646  59.237  1.00  0.00    -0.178 NA
HETATM   13  C   UNL     1       3.568  31.735  58.922  1.00  0.00     0.062 C 
HETATM   14  C   UNL     1       3.997  31.940  57.512  1.00  0.00     0.073 C 
HETATM   15  H   UNL     1       2.865  31.608  63.119  1.00  0.00     0.170 HD
ENDROOT
BRANCH   1  16
HETATM   16  C   UNL     1       6.092  33.225  60.516  1.00  0.00    -0.040 A 
HETATM   17  C   UNL     1       6.563  33.312  61.839  1.00  0.00     0.009 A 
HETATM   18  C   UNL     1       7.795  32.762  62.205  1.00  0.00     0.007 A 
HETATM   19  C   UNL     1       8.597  32.119  61.258  1.00  0.00    -0.059 A 
HETATM   20  C   UNL     1       8.151  32.044  59.936  1.00  0.00     0.007 A 
HETATM   21  C   UNL     1       6.919  32.593  59.570  1.00  0.00     0.009 A 
BRANCH  19  22
HETATM   22  C   UNL     1       9.903  31.486  61.665  1.00  0.00     0.034 C 
HETATM   23  C   UNL     1       9.694  30.086  62.224  1.00  0.00     0.010 C 
ENDBRANCH  19  22
ENDBRANCH   1  16
TORSDOF 2
ENDMDL
MODEL 9
REMARK VINA RESULT:      -6.8      2.751      5.533
REMARK  2 active torsions:
REMARK  status: ('A' for Active; 'I' for Inactive)
REMARK    1  A    between atoms: C_2  and  C_3 
REMARK    2  A    between atoms: C_6  and  C_7 
ROOT
HETATM    1  C   UNL     1       5.459  27.451  55.682  1.00  0.00     0.119 C 
HETATM    2  S   UNL     1       5.571  25.657  55.893  1.00  0.00    -0.141 SA
HETATM    3  C   UNL     1       5.895  24.995  54.236  1.00  0.00     0.136 C 
HETATM    4  C   UNL     1       4.683  24.989  53.312  1.00  0.00     0.031 C 
HETATM    5  C   UNL     1       7.160  25.534  53.605  1.00  0.00     0.236 C 
HETATM    6  O   UNL     1       8.173  24.868  53.439  1.00  0.00    -0.272 OA
HETATM    7  N   UNL     1       7.234  26.846  53.054  1.00  0.00    -0.311 N 
HETATM    8  C   UNL     1       6.290  27.828  53.227  1.00  0.00     0.134 C 
HETATM    9  C   UNL     1       5.471  28.053  54.316  1.00  0.00     0.032 C 
HETATM   10  N   UNL     1       6.027  28.824  52.328  1.00  0.00    -0.262 N 
HETATM   11  H   UNL     1       6.476  29.005  51.436  1.00  0.00     0.191 HD
HETATM   12  N   UNL     1       4.969  29.570  52.657  1.00  0.00    -0.178 NA
HETATM   13  C   UNL     1       4.633  29.134  53.876  1.00  0.00     0.062 C 
HETATM   14  C   UNL     1       3.515  29.797  54.602  1.00  0.00     0.073 C 
HETATM   15  H   UNL     1       8.029  27.004  52.444  1.00  0.00     0.170 HD
ENDROOT
BRANCH   1  16
HETATM   16  C   UNL     1       6.532  28.208  56.458  1.00  0.00    -0.040 A 
HETATM   17  C   UNL     1       6.260  29.370  57.204  1.00  0.00     0.009 A 
HETATM   18  C   UNL     1       7.260  30.001  57.949  1.00  0.00     0.007 A 
HETATM   19  C   UNL     1       8.564  29.497  57.961  1.00  0.00    -0.059 A 
HETATM   20  C   UNL     1       8.853  28.356  57.207  1.00  0.00     0.007 A 
HETATM   21  C   UNL     1       7.853  27.725  56.463  1.00  0.00     0.009 A 
BRANCH  19  22
HETATM   22  C   UNL     1       9.630  30.152  58.801  1.00  0.00     0.034 C 
HETATM   23  C   UNL     1       9.505  31.668  58.779  1.00  0.00     0.010 C 
ENDBRANCH  19  22
ENDBRANCH   1  16
TORSDOF 2
ENDMDL
MODEL 10
REMARK VINA RESULT:      -6.8      3.371      4.904
REMARK  2 active torsions:
REMARK  status: ('A' for Active; 'I' for Inactive)
REMARK    1  A    between atoms: C_2  and  C_3 
REMARK    2  A    between atoms: C_6  and  C_7 
ROOT
HETATM    1  C   UNL     1       4.919  28.264  49.927  1.00  0.00     0.119 C 
HETATM    2  S   UNL     1       5.508  29.949  50.220  1.00  0.00    -0.141 SA
HETATM    3  C   UNL     1       4.056  31.013  50.004  1.00  0.00     0.136 C 
HETATM    4  C   UNL     1       3.637  31.222  48.554  1.00  0.00     0.031 C 
HETATM    5  C   UNL     1       2.916  30.680  50.943  1.00  0.00     0.236 C 
HETATM    6  O   UNL     1       2.578  31.390  51.880  1.00  0.00    -0.272 OA
HETATM    7  N   UNL     1       2.072  29.550  50.740  1.00  0.00    -0.311 N 
HETATM    8  C   UNL     1       2.316  28.534  49.848  1.00  0.00     0.134 C 
HETATM    9  C   UNL     1       3.530  28.023  49.436  1.00  0.00     0.032 C 
HETATM   10  N   UNL     1       1.348  27.789  49.232  1.00  0.00    -0.262 N 
HETATM   11  H   UNL     1       0.341  27.848  49.339  1.00  0.00     0.191 HD
HETATM   12  N   UNL     1       1.830  26.960  48.303  1.00  0.00    -0.178 NA
HETATM   13  C   UNL     1       3.157  27.068  48.429  1.00  0.00     0.062 C 
HETATM   14  C   UNL     1       4.039  26.218  47.584  1.00  0.00     0.073 C 
HETATM   15  H   UNL     1       1.206  29.569  51.268  1.00  0.00     0.170 HD
ENDROOT
BRANCH   1  16
HETATM   16  C   UNL     1       5.069  27.361  51.148  1.00  0.00    -0.040 A 
HETATM   17  C   UNL     1       5.384  25.994  51.054  1.00  0.00     0.009 A 
HETATM   18  C   UNL     1       5.570  25.215  52.200  1.00  0.00     0.007 A 
HETATM   19  C   UNL     1       5.434  25.778  53.473  1.00  0.00    -0.059 A 
HETATM   20  C   UNL     1       5.099  27.130  53.581  1.00  0.00     0.007 A 
HETATM   21  C   UNL     1       4.915  27.909  52.435  1.00  0.00     0.009 A 
BRANCH  19  22
HETATM   22  C   UNL     1       5.680  24.948  54.707  1.00  0.00     0.034 C 
HETATM   23  C   UNL     1       6.861  24.007  54.520  1.00  0.00     0.010 C 
ENDBRANCH  19  22
ENDBRANCH   1  16
TORSDOF 2
ENDMDL
