MODEL 1
REMARK VINA RESULT:     -10.0      0.000      0.000
REMARK  3 active torsions:
REMARK  status: ('A' for Active; 'I' for Inactive)
REMARK    1  A    between atoms: C_6  and  C_7 
REMARK    2  A    between atoms: C_13  and  C_14 
REMARK    3  A    between atoms: C_14  and  C_15 
ROOT
HETATM    1  C   UNL     1       8.734  20.964  56.794  1.00  0.00     0.070 C 
HETATM    2  C   UNL     1       8.343  22.299  56.229  1.00  0.00     0.033 A 
HETATM    3  N   UNL     1       8.184  23.305  57.106  1.00  0.00    -0.246 NA
HETATM    4  C   UNL     1       7.842  24.490  56.564  1.00  0.00     0.112 A 
HETATM    5  C   UNL     1       7.633  24.767  55.217  1.00  0.00     0.043 A 
HETATM    6  C   UNL     1       7.803  23.685  54.312  1.00  0.00     0.065 A 
HETATM    7  C   UNL     1       8.173  22.440  54.859  1.00  0.00     0.044 A 
HETATM    8  S   UNL     1       7.625  25.844  57.569  1.00  0.00    -0.063 SA
HETATM    9  C   UNL     1       7.289  26.868  56.242  1.00  0.00     0.085 A 
HETATM   10  C   UNL     1       7.280  26.154  55.056  1.00  0.00     0.061 A 
HETATM   11  N   UNL     1       6.981  26.731  53.866  1.00  0.00    -0.397 N 
HETATM   12  H   UNL     1       6.555  27.665  53.878  1.00  0.00     0.156 HD
HETATM   13  H   UNL     1       6.614  26.186  53.087  1.00  0.00     0.156 HD
ENDROOT
BRANCH   9  14
HETATM   14  C   UNL     1       6.959  28.276  56.425  1.00  0.00     0.201 C 
HETATM   15  O   UNL     1       5.929  28.779  55.968  1.00  0.00    -0.286 OA
BRANCH  14  16
HETATM   16  C   UNL     1       7.872  29.195  57.154  1.00  0.00     0.018 A 
HETATM   17  C   UNL     1       7.338  29.985  58.183  1.00  0.00     0.055 A 
HETATM   18  C   UNL     1       8.187  30.863  58.822  1.00  0.00     0.106 A 
HETATM   19  C   UNL     1       9.511  30.980  58.467  1.00  0.00     0.105 A 
HETATM   20  O   UNL     1       7.847  31.699  59.837  1.00  0.00    -0.323 OA
HETATM   21  O   UNL     1      10.168  31.905  59.217  1.00  0.00    -0.323 OA
HETATM   22  C   UNL     1      10.063  30.230  57.450  1.00  0.00     0.040 A 
HETATM   23  C   UNL     1       9.104  32.367  60.075  1.00  0.00     0.352 A 
HETATM   24  C   UNL     1       9.228  29.331  56.777  1.00  0.00     0.018 A 
ENDBRANCH  14  16
ENDBRANCH   9  14
BRANCH   6  25
HETATM   25  C   UNL     1       7.666  23.816  52.818  1.00  0.00     0.418 C 
HETATM   26  F   UNL     1       8.465  24.782  52.280  1.00  0.00    -0.166 F 
HETATM   27  F   UNL     1       7.969  22.664  52.160  1.00  0.00    -0.166 F 
HETATM   28  F   UNL     1       6.400  24.139  52.426  1.00  0.00    -0.166 F 
ENDBRANCH   6  25
TORSDOF 3
ENDMDL
MODEL 2
REMARK VINA RESULT:      -8.9      4.380      7.860
REMARK  3 active torsions:
REMARK  status: ('A' for Active; 'I' for Inactive)
REMARK    1  A    between atoms: C_6  and  C_7 
REMARK    2  A    between atoms: C_13  and  C_14 
REMARK    3  A    between atoms: C_14  and  C_15 
ROOT
HETATM    1  C   UNL     1       9.596  31.363  58.853  1.00  0.00     0.070 C 
HETATM    2  C   UNL     1       8.441  30.531  58.377  1.00  0.00     0.033 A 
HETATM    3  N   UNL     1       8.682  29.227  58.157  1.00  0.00    -0.246 NA
HETATM    4  C   UNL     1       7.621  28.509  57.740  1.00  0.00     0.112 A 
HETATM    5  C   UNL     1       6.331  28.976  57.510  1.00  0.00     0.043 A 
HETATM    6  C   UNL     1       6.104  30.359  57.745  1.00  0.00     0.065 A 
HETATM    7  C   UNL     1       7.199  31.123  58.194  1.00  0.00     0.044 A 
HETATM    8  S   UNL     1       7.796  26.845  57.441  1.00  0.00    -0.063 SA
HETATM    9  C   UNL     1       6.144  26.668  57.037  1.00  0.00     0.085 A 
HETATM   10  C   UNL     1       5.494  27.890  57.070  1.00  0.00     0.061 A 
HETATM   11  N   UNL     1       4.188  28.024  56.732  1.00  0.00    -0.397 N 
HETATM   12  H   UNL     1       3.734  27.241  56.248  1.00  0.00     0.156 HD
HETATM   13  H   UNL     1       3.812  28.910  56.397  1.00  0.00     0.156 HD
ENDROOT
BRANCH   9  14
HETATM   14  C   UNL     1       5.591  25.387  56.619  1.00  0.00     0.201 C 
HETATM   15  O   UNL     1       4.601  24.885  57.158  1.00  0.00    -0.286 OA
BRANCH  14  16
HETATM   16  C   UNL     1       6.219  24.592  55.530  1.00  0.00     0.018 A 
HETATM   17  C   UNL     1       7.128  23.584  55.881  1.00  0.00     0.055 A 
HETATM   18  C   UNL     1       7.733  22.883  54.860  1.00  0.00     0.106 A 
HETATM   19  C   UNL     1       7.473  23.159  53.537  1.00  0.00     0.105 A 
HETATM   20  O   UNL     1       8.633  21.877  55.012  1.00  0.00    -0.323 OA
HETATM   21  O   UNL     1       8.178  22.359  52.694  1.00  0.00    -0.323 OA
HETATM   22  C   UNL     1       6.598  24.154  53.159  1.00  0.00     0.040 A 
HETATM   23  C   UNL     1       8.921  21.557  53.635  1.00  0.00     0.352 A 
HETATM   24  C   UNL     1       5.968  24.888  54.170  1.00  0.00     0.018 A 
ENDBRANCH  14  16
ENDBRANCH   9  14
BRANCH   6  25
HETATM   25  C   UNL     1       4.761  31.022  57.596  1.00  0.00     0.418 C 
HETATM   26  F   UNL     1       4.257  30.952  56.331  1.00  0.00    -0.166 F 
HETATM   27  F   UNL     1       3.815  30.482  58.411  1.00  0.00    -0.166 F 
HETATM   28  F   UNL     1       4.787  32.352  57.897  1.00  0.00    -0.166 F 
ENDBRANCH   6  25
TORSDOF 3
ENDMDL
MODEL 3
REMARK VINA RESULT:      -8.8      4.261      7.593
REMARK  3 active torsions:
REMARK  status: ('A' for Active; 'I' for Inactive)
REMARK    1  A    between atoms: C_6  and  C_7 
REMARK    2  A    between atoms: C_13  and  C_14 
REMARK    3  A    between atoms: C_14  and  C_15 
ROOT
HETATM    1  C   UNL     1       8.496  30.093  59.250  1.00  0.00     0.070 C 
HETATM    2  C   UNL     1       7.654  29.420  58.205  1.00  0.00     0.033 A 
HETATM    3  N   UNL     1       8.072  28.218  57.772  1.00  0.00    -0.246 NA
HETATM    4  C   UNL     1       7.289  27.639  56.841  1.00  0.00     0.112 A 
HETATM    5  C   UNL     1       6.120  28.155  56.290  1.00  0.00     0.043 A 
HETATM    6  C   UNL     1       5.703  29.429  56.763  1.00  0.00     0.065 A 
HETATM    7  C   UNL     1       6.504  30.044  57.744  1.00  0.00     0.044 A 
HETATM    8  S   UNL     1       7.704  26.110  56.224  1.00  0.00    -0.063 SA
HETATM    9  C   UNL     1       6.315  26.052  55.229  1.00  0.00     0.085 A 
HETATM   10  C   UNL     1       5.586  27.225  55.329  1.00  0.00     0.061 A 
HETATM   11  N   UNL     1       4.470  27.448  54.592  1.00  0.00    -0.397 N 
HETATM   12  H   UNL     1       4.282  26.821  53.802  1.00  0.00     0.156 HD
HETATM   13  H   UNL     1       4.154  28.392  54.375  1.00  0.00     0.156 HD
ENDROOT
BRANCH   9  14
HETATM   14  C   UNL     1       6.056  24.927  54.340  1.00  0.00     0.201 C 
HETATM   15  O   UNL     1       5.124  24.922  53.532  1.00  0.00    -0.286 OA
BRANCH  14  16
HETATM   16  C   UNL     1       6.893  23.698  54.385  1.00  0.00     0.018 A 
HETATM   17  C   UNL     1       7.174  23.130  55.635  1.00  0.00     0.055 A 
HETATM   18  C   UNL     1       7.985  22.016  55.664  1.00  0.00     0.106 A 
HETATM   19  C   UNL     1       8.517  21.475  54.516  1.00  0.00     0.105 A 
HETATM   20  O   UNL     1       8.359  21.336  56.779  1.00  0.00    -0.323 OA
HETATM   21  O   UNL     1       9.291  20.386  54.767  1.00  0.00    -0.323 OA
HETATM   22  C   UNL     1       8.273  22.019  53.273  1.00  0.00     0.040 A 
HETATM   23  C   UNL     1       9.198  20.311  56.205  1.00  0.00     0.352 A 
HETATM   24  C   UNL     1       7.457  23.154  53.208  1.00  0.00     0.018 A 
ENDBRANCH  14  16
ENDBRANCH   9  14
BRANCH   6  25
HETATM   25  C   UNL     1       4.440  30.113  56.314  1.00  0.00     0.418 C 
HETATM   26  F   UNL     1       4.219  31.309  56.930  1.00  0.00    -0.166 F 
HETATM   27  F   UNL     1       4.427  30.367  54.977  1.00  0.00    -0.166 F 
HETATM   28  F   UNL     1       3.318  29.374  56.556  1.00  0.00    -0.166 F 
ENDBRANCH   6  25
TORSDOF 3
ENDMDL
MODEL 4
REMARK VINA RESULT:      -8.7      4.484      6.276
REMARK  3 active torsions:
REMARK  status: ('A' for Active; 'I' for Inactive)
REMARK    1  A    between atoms: C_6  and  C_7 
REMARK    2  A    between atoms: C_13  and  C_14 
REMARK    3  A    between atoms: C_14  and  C_15 
ROOT
HETATM    1  C   UNL     1       8.448  20.332  52.907  1.00  0.00     0.070 C 
HETATM    2  C   UNL     1       8.226  21.708  53.465  1.00  0.00     0.033 A 
HETATM    3  N   UNL     1       7.897  22.671  52.588  1.00  0.00    -0.246 NA
HETATM    4  C   UNL     1       7.696  23.891  53.123  1.00  0.00     0.112 A 
HETATM    5  C   UNL     1       7.802  24.245  54.465  1.00  0.00     0.043 A 
HETATM    6  C   UNL     1       8.156  23.209  55.370  1.00  0.00     0.065 A 
HETATM    7  C   UNL     1       8.358  21.924  54.829  1.00  0.00     0.044 A 
HETATM    8  S   UNL     1       7.261  25.191  52.119  1.00  0.00    -0.063 SA
HETATM    9  C   UNL     1       7.150  26.272  53.439  1.00  0.00     0.085 A 
HETATM   10  C   UNL     1       7.510  25.647  54.620  1.00  0.00     0.061 A 
HETATM   11  N   UNL     1       7.559  26.309  55.802  1.00  0.00    -0.397 N 
HETATM   12  H   UNL     1       7.528  27.335  55.781  1.00  0.00     0.156 HD
HETATM   13  H   UNL     1       8.153  25.991  56.567  1.00  0.00     0.156 HD
ENDROOT
BRANCH   9  14
HETATM   14  C   UNL     1       6.818  27.678  53.251  1.00  0.00     0.201 C 
HETATM   15  O   UNL     1       7.563  28.590  53.622  1.00  0.00    -0.286 OA
BRANCH  14  16
HETATM   16  C   UNL     1       5.535  28.093  52.624  1.00  0.00     0.018 A 
HETATM   17  C   UNL     1       5.549  28.491  51.280  1.00  0.00     0.055 A 
HETATM   18  C   UNL     1       4.360  28.912  50.724  1.00  0.00     0.106 A 
HETATM   19  C   UNL     1       3.194  28.957  51.453  1.00  0.00     0.105 A 
HETATM   20  O   UNL     1       4.187  29.330  49.443  1.00  0.00    -0.323 OA
HETATM   21  O   UNL     1       2.142  29.407  50.719  1.00  0.00    -0.323 OA
HETATM   22  C   UNL     1       3.150  28.587  52.780  1.00  0.00     0.040 A 
HETATM   23  C   UNL     1       2.780  29.654  49.449  1.00  0.00     0.352 A 
HETATM   24  C   UNL     1       4.340  28.158  53.377  1.00  0.00     0.018 A 
ENDBRANCH  14  16
ENDBRANCH   9  14
BRANCH   6  25
HETATM   25  C   UNL     1       8.266  23.402  56.859  1.00  0.00     0.418 C 
HETATM   26  F   UNL     1       9.354  24.134  57.234  1.00  0.00    -0.166 F 
HETATM   27  F   UNL     1       7.184  24.033  57.388  1.00  0.00    -0.166 F 
HETATM   28  F   UNL     1       8.374  22.226  57.542  1.00  0.00    -0.166 F 
ENDBRANCH   6  25
TORSDOF 3
ENDMDL
MODEL 5
REMARK VINA RESULT:      -8.6      4.512      8.001
REMARK  3 active torsions:
REMARK  status: ('A' for Active; 'I' for Inactive)
REMARK    1  A    between atoms: C_6  and  C_7 
REMARK    2  A    between atoms: C_13  and  C_14 
REMARK    3  A    between atoms: C_14  and  C_15 
ROOT
HETATM    1  C   UNL     1       9.204  31.112  61.152  1.00  0.00     0.070 C 
HETATM    2  C   UNL     1       8.473  30.816  59.874  1.00  0.00     0.033 A 
HETATM    3  N   UNL     1       8.933  29.792  59.136  1.00  0.00    -0.246 NA
HETATM    4  C   UNL     1       8.249  29.549  58.002  1.00  0.00     0.112 A 
HETATM    5  C   UNL     1       7.142  30.244  57.525  1.00  0.00     0.043 A 
HETATM    6  C   UNL     1       6.679  31.325  58.323  1.00  0.00     0.065 A 
HETATM    7  C   UNL     1       7.375  31.586  59.519  1.00  0.00     0.044 A 
HETATM    8  S   UNL     1       8.726  28.270  56.988  1.00  0.00    -0.063 SA
HETATM    9  C   UNL     1       7.445  28.561  55.894  1.00  0.00     0.085 A 
HETATM   10  C   UNL     1       6.710  29.669  56.277  1.00  0.00     0.061 A 
HETATM   11  N   UNL     1       5.674  30.140  55.540  1.00  0.00    -0.397 N 
HETATM   12  H   UNL     1       5.568  29.791  54.581  1.00  0.00     0.156 HD
HETATM   13  H   UNL     1       5.381  31.115  55.594  1.00  0.00     0.156 HD
ENDROOT
BRANCH   9  14
HETATM   14  C   UNL     1       7.279  27.769  54.682  1.00  0.00     0.201 C 
HETATM   15  O   UNL     1       7.064  28.282  53.580  1.00  0.00    -0.286 OA
BRANCH  14  16
HETATM   16  C   UNL     1       7.329  26.283  54.716  1.00  0.00     0.018 A 
HETATM   17  C   UNL     1       7.718  25.604  53.552  1.00  0.00     0.055 A 
HETATM   18  C   UNL     1       7.719  24.226  53.586  1.00  0.00     0.106 A 
HETATM   19  C   UNL     1       7.344  23.527  54.710  1.00  0.00     0.105 A 
HETATM   20  O   UNL     1       8.067  23.407  52.559  1.00  0.00    -0.323 OA
HETATM   21  O   UNL     1       7.411  22.181  54.530  1.00  0.00    -0.323 OA
HETATM   22  C   UNL     1       6.942  24.165  55.864  1.00  0.00     0.040 A 
HETATM   23  C   UNL     1       7.858  22.111  53.159  1.00  0.00     0.352 A 
HETATM   24  C   UNL     1       6.925  25.564  55.864  1.00  0.00     0.018 A 
ENDBRANCH  14  16
ENDBRANCH   9  14
BRANCH   6  25
HETATM   25  C   UNL     1       5.467  32.152  57.985  1.00  0.00     0.418 C 
HETATM   26  F   UNL     1       5.532  32.735  56.754  1.00  0.00    -0.166 F 
HETATM   27  F   UNL     1       4.316  31.428  58.002  1.00  0.00    -0.166 F 
HETATM   28  F   UNL     1       5.265  33.181  58.857  1.00  0.00    -0.166 F 
ENDBRANCH   6  25
TORSDOF 3
ENDMDL
MODEL 6
REMARK VINA RESULT:      -8.6      5.665      9.124
REMARK  3 active torsions:
REMARK  status: ('A' for Active; 'I' for Inactive)
REMARK    1  A    between atoms: C_6  and  C_7 
REMARK    2  A    between atoms: C_13  and  C_14 
REMARK    3  A    between atoms: C_14  and  C_15 
ROOT
HETATM    1  C   UNL     1       3.859  34.208  61.137  1.00  0.00     0.070 C 
HETATM    2  C   UNL     1       5.066  33.344  60.909  1.00  0.00     0.033 A 
HETATM    3  N   UNL     1       5.165  32.746  59.710  1.00  0.00    -0.246 NA
HETATM    4  C   UNL     1       6.263  31.986  59.535  1.00  0.00     0.112 A 
HETATM    5  C   UNL     1       7.280  31.759  60.458  1.00  0.00     0.043 A 
HETATM    6  C   UNL     1       7.149  32.400  61.719  1.00  0.00     0.065 A 
HETATM    7  C   UNL     1       6.011  33.208  61.915  1.00  0.00     0.044 A 
HETATM    8  S   UNL     1       6.510  31.187  58.055  1.00  0.00    -0.063 SA
HETATM    9  C   UNL     1       8.007  30.542  58.567  1.00  0.00     0.085 A 
HETATM   10  C   UNL     1       8.271  30.887  59.882  1.00  0.00     0.061 A 
HETATM   11  N   UNL     1       9.373  30.448  60.538  1.00  0.00    -0.397 N 
HETATM   12  H   UNL     1       9.911  29.682  60.116  1.00  0.00     0.156 HD
HETATM   13  H   UNL     1       9.395  30.374  61.554  1.00  0.00     0.156 HD
ENDROOT
BRANCH   9  14
HETATM   14  C   UNL     1       8.795  29.664  57.712  1.00  0.00     0.201 C 
HETATM   15  O   UNL     1      10.017  29.779  57.591  1.00  0.00    -0.286 OA
BRANCH  14  16
HETATM   16  C   UNL     1       8.154  28.590  56.906  1.00  0.00     0.018 A 
HETATM   17  C   UNL     1       7.793  27.399  57.552  1.00  0.00     0.055 A 
HETATM   18  C   UNL     1       7.238  26.398  56.784  1.00  0.00     0.106 A 
HETATM   19  C   UNL     1       7.048  26.543  55.429  1.00  0.00     0.105 A 
HETATM   20  O   UNL     1       6.829  25.185  57.238  1.00  0.00    -0.323 OA
HETATM   21  O   UNL     1       6.495  25.438  54.863  1.00  0.00    -0.323 OA
HETATM   22  C   UNL     1       7.407  27.695  54.762  1.00  0.00     0.040 A 
HETATM   23  C   UNL     1       6.370  24.575  56.013  1.00  0.00     0.352 A 
HETATM   24  C   UNL     1       7.977  28.730  55.510  1.00  0.00     0.018 A 
ENDBRANCH  14  16
ENDBRANCH   9  14
BRANCH   6  25
HETATM   25  C   UNL     1       8.176  32.305  62.815  1.00  0.00     0.418 C 
HETATM   26  F   UNL     1       7.913  33.113  63.881  1.00  0.00    -0.166 F 
HETATM   27  F   UNL     1       8.296  31.045  63.315  1.00  0.00    -0.166 F 
HETATM   28  F   UNL     1       9.429  32.655  62.403  1.00  0.00    -0.166 F 
ENDBRANCH   6  25
TORSDOF 3
ENDMDL
MODEL 7
REMARK VINA RESULT:      -8.5      1.710      2.108
REMARK  3 active torsions:
REMARK  status: ('A' for Active; 'I' for Inactive)
REMARK    1  A    between atoms: C_6  and  C_7 
REMARK    2  A    between atoms: C_13  and  C_14 
REMARK    3  A    between atoms: C_14  and  C_15 
ROOT
HETATM    1  C   UNL     1       8.323  21.738  53.350  1.00  0.00     0.070 C 
HETATM    2  C   UNL     1       7.688  23.057  53.686  1.00  0.00     0.033 A 
HETATM    3  N   UNL     1       8.027  23.610  54.864  1.00  0.00    -0.246 NA
HETATM    4  C   UNL     1       7.447  24.796  55.129  1.00  0.00     0.112 A 
HETATM    5  C   UNL     1       6.544  25.487  54.326  1.00  0.00     0.043 A 
HETATM    6  C   UNL     1       6.200  24.878  53.088  1.00  0.00     0.065 A 
HETATM    7  C   UNL     1       6.807  23.643  52.789  1.00  0.00     0.044 A 
HETATM    8  S   UNL     1       7.805  25.603  56.582  1.00  0.00    -0.063 SA
HETATM    9  C   UNL     1       6.806  26.930  56.178  1.00  0.00     0.085 A 
HETATM   10  C   UNL     1       6.160  26.714  54.973  1.00  0.00     0.061 A 
HETATM   11  N   UNL     1       5.267  27.598  54.463  1.00  0.00    -0.397 N 
HETATM   12  H   UNL     1       4.914  28.337  55.081  1.00  0.00     0.156 HD
HETATM   13  H   UNL     1       4.538  27.304  53.814  1.00  0.00     0.156 HD
ENDROOT
BRANCH   9  14
HETATM   14  C   UNL     1       6.627  28.057  57.085  1.00  0.00     0.201 C 
HETATM   15  O   UNL     1       5.543  28.313  57.616  1.00  0.00    -0.286 OA
BRANCH  14  16
HETATM   16  C   UNL     1       7.746  28.985  57.396  1.00  0.00     0.018 A 
HETATM   17  C   UNL     1       7.618  29.834  58.505  1.00  0.00     0.055 A 
HETATM   18  C   UNL     1       8.645  30.718  58.756  1.00  0.00     0.106 A 
HETATM   19  C   UNL     1       9.758  30.786  57.950  1.00  0.00     0.105 A 
HETATM   20  O   UNL     1       8.693  31.609  59.781  1.00  0.00    -0.323 OA
HETATM   21  O   UNL     1      10.645  31.727  58.370  1.00  0.00    -0.323 OA
HETATM   22  C   UNL     1       9.907  29.976  56.844  1.00  0.00     0.040 A 
HETATM   23  C   UNL     1       9.958  32.254  59.524  1.00  0.00     0.352 A 
HETATM   24  C   UNL     1       8.881  29.070  56.557  1.00  0.00     0.018 A 
ENDBRANCH  14  16
ENDBRANCH   9  14
BRANCH   6  25
HETATM   25  C   UNL     1       5.280  25.507  52.077  1.00  0.00     0.418 C 
HETATM   26  F   UNL     1       4.726  24.609  51.213  1.00  0.00    -0.166 F 
HETATM   27  F   UNL     1       4.241  26.171  52.653  1.00  0.00    -0.166 F 
HETATM   28  F   UNL     1       5.906  26.425  51.285  1.00  0.00    -0.166 F 
ENDBRANCH   6  25
TORSDOF 3
ENDMDL
MODEL 8
REMARK VINA RESULT:      -8.5      5.075      8.651
REMARK  3 active torsions:
REMARK  status: ('A' for Active; 'I' for Inactive)
REMARK    1  A    between atoms: C_6  and  C_7 
REMARK    2  A    between atoms: C_13  and  C_14 
REMARK    3  A    between atoms: C_14  and  C_15 
ROOT
HETATM    1  C   UNL     1       4.335  33.397  61.017  1.00  0.00     0.070 C 
HETATM    2  C   UNL     1       5.496  32.625  60.458  1.00  0.00     0.033 A 
HETATM    3  N   UNL     1       5.317  32.045  59.259  1.00  0.00    -0.246 NA
HETATM    4  C   UNL     1       6.381  31.369  58.784  1.00  0.00     0.112 A 
HETATM    5  C   UNL     1       7.616  31.207  59.403  1.00  0.00     0.043 A 
HETATM    6  C   UNL     1       7.777  31.827  60.672  1.00  0.00     0.065 A 
HETATM    7  C   UNL     1       6.679  32.548  61.179  1.00  0.00     0.044 A 
HETATM    8  S   UNL     1       6.284  30.602  57.269  1.00  0.00    -0.063 SA
HETATM    9  C   UNL     1       7.903  30.062  57.355  1.00  0.00     0.085 A 
HETATM   10  C   UNL     1       8.478  30.415  58.565  1.00  0.00     0.061 A 
HETATM   11  N   UNL     1       9.740  30.050  58.898  1.00  0.00    -0.397 N 
HETATM   12  H   UNL     1      10.200  29.329  58.330  1.00  0.00     0.156 HD
HETATM   13  H   UNL     1      10.033  29.970  59.872  1.00  0.00     0.156 HD
ENDROOT
BRANCH   9  14
HETATM   14  C   UNL     1       8.497  29.251  56.301  1.00  0.00     0.201 C 
HETATM   15  O   UNL     1       9.385  29.677  55.558  1.00  0.00    -0.286 OA
BRANCH  14  16
HETATM   16  C   UNL     1       8.034  27.861  56.041  1.00  0.00     0.018 A 
HETATM   17  C   UNL     1       7.486  27.566  54.785  1.00  0.00     0.055 A 
HETATM   18  C   UNL     1       7.024  26.286  54.573  1.00  0.00     0.106 A 
HETATM   19  C   UNL     1       7.079  25.322  55.554  1.00  0.00     0.105 A 
HETATM   20  O   UNL     1       6.467  25.823  53.423  1.00  0.00    -0.323 OA
HETATM   21  O   UNL     1       6.566  24.133  55.141  1.00  0.00    -0.323 OA
HETATM   22  C   UNL     1       7.597  25.584  56.804  1.00  0.00     0.040 A 
HETATM   23  C   UNL     1       6.167  24.460  53.793  1.00  0.00     0.352 A 
HETATM   24  C   UNL     1       8.072  26.876  57.055  1.00  0.00     0.018 A 
ENDBRANCH  14  16
ENDBRANCH   9  14
BRANCH   6  25
HETATM   25  C   UNL     1       9.060  31.796  61.458  1.00  0.00     0.418 C 
HETATM   26  F   UNL     1       9.470  30.537  61.784  1.00  0.00    -0.166 F 
HETATM   27  F   UNL     1      10.098  32.374  60.794  1.00  0.00    -0.166 F 
HETATM   28  F   UNL     1       8.972  32.461  62.647  1.00  0.00    -0.166 F 
ENDBRANCH   6  25
TORSDOF 3
ENDMDL
MODEL 9
REMARK VINA RESULT:      -8.4      5.453      8.117
REMARK  3 active torsions:
REMARK  status: ('A' for Active; 'I' for Inactive)
REMARK    1  A    between atoms: C_6  and  C_7 
REMARK    2  A    between atoms: C_13  and  C_14 
REMARK    3  A    between atoms: C_14  and  C_15 
ROOT
HETATM    1  C   UNL     1       5.728  31.723  48.800  1.00  0.00     0.070 C 
HETATM    2  C   UNL     1       5.495  30.353  49.368  1.00  0.00     0.033 A 
HETATM    3  N   UNL     1       5.879  30.150  50.640  1.00  0.00    -0.246 NA
HETATM    4  C   UNL     1       5.646  28.913  51.119  1.00  0.00     0.112 A 
HETATM    5  C   UNL     1       5.067  27.845  50.440  1.00  0.00     0.043 A 
HETATM    6  C   UNL     1       4.674  28.086  49.096  1.00  0.00     0.065 A 
HETATM    7  C   UNL     1       4.899  29.377  48.581  1.00  0.00     0.044 A 
HETATM    8  S   UNL     1       6.076  28.535  52.720  1.00  0.00    -0.063 SA
HETATM    9  C   UNL     1       5.464  26.945  52.589  1.00  0.00     0.085 A 
HETATM   10  C   UNL     1       5.000  26.698  51.308  1.00  0.00     0.061 A 
HETATM   11  N   UNL     1       4.518  25.488  50.934  1.00  0.00    -0.397 N 
HETATM   12  H   UNL     1       4.691  24.688  51.554  1.00  0.00     0.156 HD
HETATM   13  H   UNL     1       4.529  25.186  49.960  1.00  0.00     0.156 HD
ENDROOT
BRANCH   9  14
HETATM   14  C   UNL     1       5.552  25.997  53.692  1.00  0.00     0.201 C 
HETATM   15  O   UNL     1       4.885  26.116  54.723  1.00  0.00    -0.286 OA
BRANCH  14  16
HETATM   16  C   UNL     1       6.486  24.841  53.645  1.00  0.00     0.018 A 
HETATM   17  C   UNL     1       6.536  23.980  54.751  1.00  0.00     0.055 A 
HETATM   18  C   UNL     1       7.436  22.938  54.711  1.00  0.00     0.106 A 
HETATM   19  C   UNL     1       8.271  22.741  53.636  1.00  0.00     0.105 A 
HETATM   20  O   UNL     1       7.620  22.009  55.686  1.00  0.00    -0.323 OA
HETATM   21  O   UNL     1       9.083  21.662  53.801  1.00  0.00    -0.323 OA
HETATM   22  C   UNL     1       8.259  23.577  52.540  1.00  0.00     0.040 A 
HETATM   23  C   UNL     1       8.674  21.211  55.109  1.00  0.00     0.352 A 
HETATM   24  C   UNL     1       7.359  24.649  52.549  1.00  0.00     0.018 A 
ENDBRANCH  14  16
ENDBRANCH   9  14
BRANCH   6  25
HETATM   25  C   UNL     1       3.989  27.062  48.231  1.00  0.00     0.418 C 
HETATM   26  F   UNL     1       2.853  26.551  48.786  1.00  0.00    -0.166 F 
HETATM   27  F   UNL     1       3.628  27.557  47.016  1.00  0.00    -0.166 F 
HETATM   28  F   UNL     1       4.774  25.978  47.965  1.00  0.00    -0.166 F 
ENDBRANCH   6  25
TORSDOF 3
ENDMDL
MODEL 10
REMARK VINA RESULT:      -8.2      3.955      7.458
REMARK  3 active torsions:
REMARK  status: ('A' for Active; 'I' for Inactive)
REMARK    1  A    between atoms: C_6  and  C_7 
REMARK    2  A    between atoms: C_13  and  C_14 
REMARK    3  A    between atoms: C_14  and  C_15 
ROOT
HETATM    1  C   UNL     1       7.150  31.904  60.067  1.00  0.00     0.070 C 
HETATM    2  C   UNL     1       7.370  31.051  58.850  1.00  0.00     0.033 A 
HETATM    3  N   UNL     1       6.275  30.540  58.262  1.00  0.00    -0.246 NA
HETATM    4  C   UNL     1       6.507  29.788  57.169  1.00  0.00     0.112 A 
HETATM    5  C   UNL     1       7.744  29.489  56.606  1.00  0.00     0.043 A 
HETATM    6  C   UNL     1       8.886  30.039  57.249  1.00  0.00     0.065 A 
HETATM    7  C   UNL     1       8.660  30.837  58.387  1.00  0.00     0.044 A 
HETATM    8  S   UNL     1       5.202  29.096  56.329  1.00  0.00    -0.063 SA
HETATM    9  C   UNL     1       6.230  28.406  55.150  1.00  0.00     0.085 A 
HETATM   10  C   UNL     1       7.559  28.655  55.446  1.00  0.00     0.061 A 
HETATM   11  N   UNL     1       8.572  28.163  54.692  1.00  0.00    -0.397 N 
HETATM   12  H   UNL     1       8.352  27.426  54.012  1.00  0.00     0.156 HD
HETATM   13  H   UNL     1       9.503  28.017  55.080  1.00  0.00     0.156 HD
ENDROOT
BRANCH   9  14
HETATM   14  C   UNL     1       5.707  27.587  54.064  1.00  0.00     0.201 C 
HETATM   15  O   UNL     1       4.725  27.920  53.396  1.00  0.00    -0.286 OA
BRANCH  14  16
HETATM   16  C   UNL     1       6.320  26.275  53.721  1.00  0.00     0.018 A 
HETATM   17  C   UNL     1       6.364  25.283  54.711  1.00  0.00     0.055 A 
HETATM   18  C   UNL     1       6.971  24.088  54.392  1.00  0.00     0.106 A 
HETATM   19  C   UNL     1       7.529  23.865  53.155  1.00  0.00     0.105 A 
HETATM   20  O   UNL     1       7.104  23.019  55.220  1.00  0.00    -0.323 OA
HETATM   21  O   UNL     1       8.081  22.626  53.051  1.00  0.00    -0.323 OA
HETATM   22  C   UNL     1       7.517  24.825  52.165  1.00  0.00     0.040 A 
HETATM   23  C   UNL     1       7.819  22.100  54.369  1.00  0.00     0.352 A 
HETATM   24  C   UNL     1       6.911  26.052  52.457  1.00  0.00     0.018 A 
ENDBRANCH  14  16
ENDBRANCH   9  14
BRANCH   6  25
HETATM   25  C   UNL     1      10.294  29.859  56.748  1.00  0.00     0.418 C 
HETATM   26  F   UNL     1      10.445  30.165  55.427  1.00  0.00    -0.166 F 
HETATM   27  F   UNL     1      11.193  30.628  57.421  1.00  0.00    -0.166 F 
HETATM   28  F   UNL     1      10.744  28.577  56.871  1.00  0.00    -0.166 F 
ENDBRANCH   6  25
TORSDOF 3
ENDMDL
