MODEL 1
REMARK VINA RESULT:      -8.8      0.000      0.000
REMARK  4 active torsions:
REMARK  status: ('A' for Active; 'I' for Inactive)
REMARK    1  A    between atoms: C_2  and  C_3 
REMARK    2  A    between atoms: C_5  and  C_6 
REMARK       I    between atoms: C_6  and  N_7 
REMARK    3  A    between atoms: N_7  and  C_8 
REMARK    4  A    between atoms: C_10  and  C_11 
ROOT
HETATM    1  C   UNL     1       7.274  31.728  61.720  1.00  0.00     0.035 A 
HETATM    2  C   UNL     1       5.986  32.219  61.961  1.00  0.00     0.042 A 
HETATM    3  C   UNL     1       5.708  33.006  63.094  1.00  0.00    -0.021 A 
HETATM    4  C   UNL     1       6.748  33.290  63.988  1.00  0.00     0.012 A 
HETATM    5  C   UNL     1       8.036  32.808  63.754  1.00  0.00     0.003 A 
HETATM    6  C   UNL     1       8.297  32.037  62.623  1.00  0.00     0.029 A 
ENDROOT
BRANCH   1   7
HETATM    7  N   UNL     1       7.622  30.949  60.601  1.00  0.00    -0.321 N 
HETATM    8  C   UNL     1       8.349  31.319  59.482  1.00  0.00     0.280 C 
HETATM    9  O   UNL     1       8.787  32.445  59.262  1.00  0.00    -0.265 OA
HETATM   10  H   UNL     1       7.287  29.991  60.581  1.00  0.00     0.169 HD
BRANCH   8  11
HETATM   11  C   UNL     1       8.536  30.214  58.552  1.00  0.00     0.149 A 
HETATM   12  O   UNL     1       7.532  29.284  58.428  1.00  0.00    -0.309 OA
HETATM   13  C   UNL     1       7.954  28.343  57.540  1.00  0.00     0.054 A 
HETATM   14  C   UNL     1       9.207  28.666  57.071  1.00  0.00     0.042 A 
HETATM   15  C   UNL     1       9.590  29.875  57.717  1.00  0.00    -0.020 A 
HETATM   16  C   UNL     1      10.865  30.612  57.535  1.00  0.00     0.051 C 
BRANCH  13  17
HETATM   17  C   UNL     1       7.029  27.214  57.279  1.00  0.00     0.060 C 
HETATM   18  C   UNL     1       7.627  25.886  57.712  1.00  0.00     0.012 C 
ENDBRANCH  13  17
ENDBRANCH   8  11
ENDBRANCH   1   7
BRANCH   3  19
HETATM   19  C   UNL     1       4.375  33.536  63.334  1.00  0.00     0.010 A 
HETATM   20  C   UNL     1       3.203  33.495  62.539  1.00  0.00     0.152 A 
HETATM   21  N   UNL     1       2.163  34.106  63.112  1.00  0.00    -0.187 NA
HETATM   22  N   UNL     1       2.660  34.539  64.281  1.00  0.00    -0.289 N 
HETATM   23  H   UNL     1       2.043  35.042  64.911  1.00  0.00     0.188 HD
HETATM   24  C   UNL     1       3.977  34.229  64.459  1.00  0.00     0.123 A 
ENDBRANCH   3  19
TORSDOF 4
ENDMDL
MODEL 2
REMARK VINA RESULT:      -8.8      5.717     10.960
REMARK  4 active torsions:
REMARK  status: ('A' for Active; 'I' for Inactive)
REMARK    1  A    between atoms: C_2  and  C_3 
REMARK    2  A    between atoms: C_5  and  C_6 
REMARK       I    between atoms: C_6  and  N_7 
REMARK    3  A    between atoms: N_7  and  C_8 
REMARK    4  A    between atoms: C_10  and  C_11 
ROOT
HETATM    1  C   UNL     1       7.691  25.537  54.435  1.00  0.00     0.035 A 
HETATM    2  C   UNL     1       8.004  24.231  54.826  1.00  0.00     0.042 A 
HETATM    3  C   UNL     1       8.078  23.189  53.884  1.00  0.00    -0.021 A 
HETATM    4  C   UNL     1       7.825  23.479  52.537  1.00  0.00     0.012 A 
HETATM    5  C   UNL     1       7.515  24.779  52.138  1.00  0.00     0.003 A 
HETATM    6  C   UNL     1       7.455  25.803  53.082  1.00  0.00     0.029 A 
ENDROOT
BRANCH   1   7
HETATM    7  N   UNL     1       7.616  26.627  55.323  1.00  0.00    -0.321 N 
HETATM    8  C   UNL     1       7.507  26.610  56.704  1.00  0.00     0.280 C 
HETATM    9  O   UNL     1       7.413  25.600  57.395  1.00  0.00    -0.265 OA
HETATM   10  H   UNL     1       7.619  27.556  54.917  1.00  0.00     0.169 HD
BRANCH   8  11
HETATM   11  C   UNL     1       7.498  27.951  57.274  1.00  0.00     0.149 A 
HETATM   12  O   UNL     1       8.683  28.482  57.721  1.00  0.00    -0.309 OA
HETATM   13  C   UNL     1       8.411  29.711  58.237  1.00  0.00     0.054 A 
HETATM   14  C   UNL     1       7.070  29.991  58.108  1.00  0.00     0.042 A 
HETATM   15  C   UNL     1       6.472  28.861  57.484  1.00  0.00    -0.020 A 
HETATM   16  C   UNL     1       5.038  28.693  57.139  1.00  0.00     0.051 C 
BRANCH  13  17
HETATM   17  C   UNL     1       9.557  30.457  58.814  1.00  0.00     0.060 C 
HETATM   18  C   UNL     1      10.548  30.879  57.743  1.00  0.00     0.012 C 
ENDBRANCH  13  17
ENDBRANCH   8  11
ENDBRANCH   1   7
BRANCH   3  19
HETATM   19  C   UNL     1       8.426  21.834  54.285  1.00  0.00     0.010 A 
HETATM   20  C   UNL     1       8.535  20.642  53.527  1.00  0.00     0.152 A 
HETATM   21  N   UNL     1       8.879  19.584  54.266  1.00  0.00    -0.187 NA
HETATM   22  N   UNL     1       8.997  20.092  55.502  1.00  0.00    -0.289 N 
HETATM   23  H   UNL     1       9.261  19.468  56.258  1.00  0.00     0.188 HD
HETATM   24  C   UNL     1       8.731  21.429  55.568  1.00  0.00     0.123 A 
ENDBRANCH   3  19
TORSDOF 4
ENDMDL
MODEL 3
REMARK VINA RESULT:      -8.5      9.329     12.069
REMARK  4 active torsions:
REMARK  status: ('A' for Active; 'I' for Inactive)
REMARK    1  A    between atoms: C_2  and  C_3 
REMARK    2  A    between atoms: C_5  and  C_6 
REMARK       I    between atoms: C_6  and  N_7 
REMARK    3  A    between atoms: N_7  and  C_8 
REMARK    4  A    between atoms: C_10  and  C_11 
ROOT
HETATM    1  C   UNL     1       7.216  25.008  53.881  1.00  0.00     0.035 A 
HETATM    2  C   UNL     1       7.586  23.659  53.855  1.00  0.00     0.042 A 
HETATM    3  C   UNL     1       8.143  23.036  54.987  1.00  0.00    -0.021 A 
HETATM    4  C   UNL     1       8.329  23.794  56.149  1.00  0.00     0.012 A 
HETATM    5  C   UNL     1       7.960  25.140  56.185  1.00  0.00     0.003 A 
HETATM    6  C   UNL     1       7.401  25.740  55.058  1.00  0.00     0.029 A 
ENDROOT
BRANCH   1   7
HETATM    7  N   UNL     1       6.641  25.686  52.789  1.00  0.00    -0.321 N 
HETATM    8  C   UNL     1       5.317  25.705  52.384  1.00  0.00     0.280 C 
HETATM    9  O   UNL     1       4.406  25.073  52.910  1.00  0.00    -0.265 OA
HETATM   10  H   UNL     1       7.266  26.221  52.196  1.00  0.00     0.169 HD
BRANCH   8  11
HETATM   11  C   UNL     1       5.106  26.563  51.225  1.00  0.00     0.149 A 
HETATM   12  O   UNL     1       4.867  25.973  50.008  1.00  0.00    -0.309 OA
HETATM   13  C   UNL     1       4.741  26.968  49.089  1.00  0.00     0.054 A 
HETATM   14  C   UNL     1       4.872  28.194  49.701  1.00  0.00     0.042 A 
HETATM   15  C   UNL     1       5.105  27.942  51.082  1.00  0.00    -0.020 A 
HETATM   16  C   UNL     1       5.312  28.956  52.146  1.00  0.00     0.051 C 
BRANCH  13  17
HETATM   17  C   UNL     1       4.510  26.551  47.684  1.00  0.00     0.060 C 
HETATM   18  C   UNL     1       3.251  25.711  47.548  1.00  0.00     0.012 C 
ENDBRANCH  13  17
ENDBRANCH   8  11
ENDBRANCH   1   7
BRANCH   3  19
HETATM   19  C   UNL     1       8.507  21.627  54.969  1.00  0.00     0.010 A 
HETATM   20  C   UNL     1       8.617  20.711  53.895  1.00  0.00     0.152 A 
HETATM   21  N   UNL     1       8.978  19.487  54.288  1.00  0.00    -0.187 NA
HETATM   22  N   UNL     1       9.106  19.612  55.618  1.00  0.00    -0.289 N 
HETATM   23  H   UNL     1       9.384  18.797  56.155  1.00  0.00     0.188 HD
HETATM   24  C   UNL     1       8.830  20.868  56.075  1.00  0.00     0.123 A 
ENDBRANCH   3  19
TORSDOF 4
ENDMDL
MODEL 4
REMARK VINA RESULT:      -8.3      3.315      5.988
REMARK  4 active torsions:
REMARK  status: ('A' for Active; 'I' for Inactive)
REMARK    1  A    between atoms: C_2  and  C_3 
REMARK    2  A    between atoms: C_5  and  C_6 
REMARK       I    between atoms: C_6  and  N_7 
REMARK    3  A    between atoms: N_7  and  C_8 
REMARK    4  A    between atoms: C_10  and  C_11 
ROOT
HETATM    1  C   UNL     1       8.734  28.834  57.273  1.00  0.00     0.035 A 
HETATM    2  C   UNL     1       8.250  29.370  58.472  1.00  0.00     0.042 A 
HETATM    3  C   UNL     1       8.901  30.445  59.103  1.00  0.00    -0.021 A 
HETATM    4  C   UNL     1      10.056  30.974  58.512  1.00  0.00     0.012 A 
HETATM    5  C   UNL     1      10.544  30.448  57.314  1.00  0.00     0.003 A 
HETATM    6  C   UNL     1       9.881  29.389  56.697  1.00  0.00     0.029 A 
ENDROOT
BRANCH   1   7
HETATM    7  N   UNL     1       8.122  27.770  56.584  1.00  0.00    -0.321 N 
HETATM    8  C   UNL     1       7.970  26.454  56.986  1.00  0.00     0.280 C 
HETATM    9  O   UNL     1       8.400  25.979  58.033  1.00  0.00    -0.265 OA
HETATM   10  H   UNL     1       7.756  27.968  55.658  1.00  0.00     0.169 HD
BRANCH   8  11
HETATM   11  C   UNL     1       7.241  25.657  56.008  1.00  0.00     0.149 A 
HETATM   12  O   UNL     1       7.897  25.256  54.870  1.00  0.00    -0.309 OA
HETATM   13  C   UNL     1       7.006  24.566  54.107  1.00  0.00     0.054 A 
HETATM   14  C   UNL     1       5.790  24.497  54.748  1.00  0.00     0.042 A 
HETATM   15  C   UNL     1       5.933  25.196  55.979  1.00  0.00    -0.020 A 
HETATM   16  C   UNL     1       4.887  25.396  57.013  1.00  0.00     0.051 C 
BRANCH  13  17
HETATM   17  C   UNL     1       7.498  24.064  52.801  1.00  0.00     0.060 C 
HETATM   18  C   UNL     1       7.930  22.610  52.886  1.00  0.00     0.012 C 
ENDBRANCH  13  17
ENDBRANCH   8  11
ENDBRANCH   1   7
BRANCH   3  19
HETATM   19  C   UNL     1       8.387  31.018  60.338  1.00  0.00     0.010 A 
HETATM   20  C   UNL     1       7.290  31.882  60.572  1.00  0.00     0.152 A 
HETATM   21  N   UNL     1       7.138  32.194  61.862  1.00  0.00    -0.187 NA
HETATM   22  N   UNL     1       8.135  31.528  62.463  1.00  0.00    -0.289 N 
HETATM   23  H   UNL     1       8.228  31.605  63.471  1.00  0.00     0.188 HD
HETATM   24  C   UNL     1       8.913  30.815  61.597  1.00  0.00     0.123 A 
ENDBRANCH   3  19
TORSDOF 4
ENDMDL
MODEL 5
REMARK VINA RESULT:      -8.3      9.536     12.465
REMARK  4 active torsions:
REMARK  status: ('A' for Active; 'I' for Inactive)
REMARK    1  A    between atoms: C_2  and  C_3 
REMARK    2  A    between atoms: C_5  and  C_6 
REMARK       I    between atoms: C_6  and  N_7 
REMARK    3  A    between atoms: N_7  and  C_8 
REMARK    4  A    between atoms: C_10  and  C_11 
ROOT
HETATM    1  C   UNL     1       7.010  25.257  53.238  1.00  0.00     0.035 A 
HETATM    2  C   UNL     1       7.427  23.924  53.159  1.00  0.00     0.042 A 
HETATM    3  C   UNL     1       7.915  23.246  54.292  1.00  0.00    -0.021 A 
HETATM    4  C   UNL     1       7.983  23.934  55.510  1.00  0.00     0.012 A 
HETATM    5  C   UNL     1       7.566  25.263  55.599  1.00  0.00     0.003 A 
HETATM    6  C   UNL     1       7.077  25.917  54.470  1.00  0.00     0.029 A 
ENDROOT
BRANCH   1   7
HETATM    7  N   UNL     1       6.500  25.987  52.148  1.00  0.00    -0.321 N 
HETATM    8  C   UNL     1       5.318  25.790  51.455  1.00  0.00     0.280 C 
HETATM    9  O   UNL     1       4.516  24.884  51.663  1.00  0.00    -0.265 OA
HETATM   10  H   UNL     1       7.068  26.749  51.795  1.00  0.00     0.169 HD
BRANCH   8  11
HETATM   11  C   UNL     1       5.118  26.784  50.408  1.00  0.00     0.149 A 
HETATM   12  O   UNL     1       5.693  28.022  50.561  1.00  0.00    -0.309 OA
HETATM   13  C   UNL     1       5.335  28.774  49.485  1.00  0.00     0.054 A 
HETATM   14  C   UNL     1       4.558  28.030  48.627  1.00  0.00     0.042 A 
HETATM   15  C   UNL     1       4.415  26.742  49.213  1.00  0.00    -0.020 A 
HETATM   16  C   UNL     1       3.656  25.593  48.657  1.00  0.00     0.051 C 
BRANCH  13  17
HETATM   17  C   UNL     1       5.824  30.174  49.461  1.00  0.00     0.060 C 
HETATM   18  C   UNL     1       4.942  31.062  48.599  1.00  0.00     0.012 C 
ENDBRANCH  13  17
ENDBRANCH   8  11
ENDBRANCH   1   7
BRANCH   3  19
HETATM   19  C   UNL     1       8.328  21.853  54.217  1.00  0.00     0.010 A 
HETATM   20  C   UNL     1       8.374  20.957  53.121  1.00  0.00     0.152 A 
HETATM   21  N   UNL     1       8.815  19.742  53.459  1.00  0.00    -0.187 NA
HETATM   22  N   UNL     1       9.058  19.853  54.773  1.00  0.00    -0.289 N 
HETATM   23  H   UNL     1       9.414  19.042  55.269  1.00  0.00     0.188 HD
HETATM   24  C   UNL     1       8.778  21.091  55.276  1.00  0.00     0.123 A 
ENDBRANCH   3  19
TORSDOF 4
ENDMDL
MODEL 6
REMARK VINA RESULT:      -8.2      5.856     10.971
REMARK  4 active torsions:
REMARK  status: ('A' for Active; 'I' for Inactive)
REMARK    1  A    between atoms: C_2  and  C_3 
REMARK    2  A    between atoms: C_5  and  C_6 
REMARK       I    between atoms: C_6  and  N_7 
REMARK    3  A    between atoms: N_7  and  C_8 
REMARK    4  A    between atoms: C_10  and  C_11 
ROOT
HETATM    1  C   UNL     1       7.371  25.533  54.288  1.00  0.00     0.035 A 
HETATM    2  C   UNL     1       7.706  24.255  54.747  1.00  0.00     0.042 A 
HETATM    3  C   UNL     1       7.996  23.212  53.849  1.00  0.00    -0.021 A 
HETATM    4  C   UNL     1       7.939  23.472  52.474  1.00  0.00     0.012 A 
HETATM    5  C   UNL     1       7.609  24.744  52.006  1.00  0.00     0.003 A 
HETATM    6  C   UNL     1       7.333  25.769  52.909  1.00  0.00     0.029 A 
ENDROOT
BRANCH   1   7
HETATM    7  N   UNL     1       7.084  26.622  55.132  1.00  0.00    -0.321 N 
HETATM    8  C   UNL     1       6.264  26.659  56.247  1.00  0.00     0.280 C 
HETATM    9  O   UNL     1       5.597  25.718  56.667  1.00  0.00    -0.265 OA
HETATM   10  H   UNL     1       7.508  27.514  54.897  1.00  0.00     0.169 HD
BRANCH   8  11
HETATM   11  C   UNL     1       6.255  27.969  56.884  1.00  0.00     0.149 A 
HETATM   12  O   UNL     1       5.050  28.602  57.064  1.00  0.00    -0.309 OA
HETATM   13  C   UNL     1       5.305  29.810  57.638  1.00  0.00     0.054 A 
HETATM   14  C   UNL     1       6.657  29.954  57.853  1.00  0.00     0.042 A 
HETATM   15  C   UNL     1       7.279  28.768  57.372  1.00  0.00    -0.020 A 
HETATM   16  C   UNL     1       8.731  28.460  57.385  1.00  0.00     0.051 C 
BRANCH  13  17
HETATM   17  C   UNL     1       4.134  30.684  57.893  1.00  0.00     0.060 C 
HETATM   18  C   UNL     1       3.130  30.624  56.755  1.00  0.00     0.012 C 
ENDBRANCH  13  17
ENDBRANCH   8  11
ENDBRANCH   1   7
BRANCH   3  19
HETATM   19  C   UNL     1       8.367  21.888  54.326  1.00  0.00     0.010 A 
HETATM   20  C   UNL     1       8.563  20.672  53.627  1.00  0.00     0.152 A 
HETATM   21  N   UNL     1       8.899  19.658  54.428  1.00  0.00    -0.187 NA
HETATM   22  N   UNL     1       8.926  20.219  55.646  1.00  0.00    -0.289 N 
HETATM   23  H   UNL     1       9.167  19.636  56.441  1.00  0.00     0.188 HD
HETATM   24  C   UNL     1       8.611  21.547  55.641  1.00  0.00     0.123 A 
ENDBRANCH   3  19
TORSDOF 4
ENDMDL
MODEL 7
REMARK VINA RESULT:      -8.1      4.547      9.915
REMARK  4 active torsions:
REMARK  status: ('A' for Active; 'I' for Inactive)
REMARK    1  A    between atoms: C_2  and  C_3 
REMARK    2  A    between atoms: C_5  and  C_6 
REMARK       I    between atoms: C_6  and  N_7 
REMARK    3  A    between atoms: N_7  and  C_8 
REMARK    4  A    between atoms: C_10  and  C_11 
ROOT
HETATM    1  C   UNL     1       7.660  26.232  55.775  1.00  0.00     0.035 A 
HETATM    2  C   UNL     1       8.006  24.899  56.021  1.00  0.00     0.042 A 
HETATM    3  C   UNL     1       7.438  23.851  55.274  1.00  0.00    -0.021 A 
HETATM    4  C   UNL     1       6.509  24.163  54.274  1.00  0.00     0.012 A 
HETATM    5  C   UNL     1       6.160  25.490  54.019  1.00  0.00     0.003 A 
HETATM    6  C   UNL     1       6.738  26.517  54.763  1.00  0.00     0.029 A 
ENDROOT
BRANCH   1   7
HETATM    7  N   UNL     1       8.201  27.327  56.475  1.00  0.00    -0.321 N 
HETATM    8  C   UNL     1       7.555  28.222  57.311  1.00  0.00     0.280 C 
HETATM    9  O   UNL     1       6.351  28.228  57.549  1.00  0.00    -0.265 OA
HETATM   10  H   UNL     1       9.190  27.515  56.348  1.00  0.00     0.169 HD
BRANCH   8  11
HETATM   11  C   UNL     1       8.469  29.200  57.886  1.00  0.00     0.149 A 
HETATM   12  O   UNL     1       8.271  29.597  59.186  1.00  0.00    -0.309 OA
HETATM   13  C   UNL     1       9.218  30.531  59.476  1.00  0.00     0.054 A 
HETATM   14  C   UNL     1      10.039  30.725  58.388  1.00  0.00     0.042 A 
HETATM   15  C   UNL     1       9.565  29.866  57.357  1.00  0.00    -0.020 A 
HETATM   16  C   UNL     1      10.128  29.726  55.991  1.00  0.00     0.051 C 
BRANCH  13  17
HETATM   17  C   UNL     1       9.169  31.127  60.834  1.00  0.00     0.060 C 
HETATM   18  C   UNL     1       8.299  32.372  60.869  1.00  0.00     0.012 C 
ENDBRANCH  13  17
ENDBRANCH   8  11
ENDBRANCH   1   7
BRANCH   3  19
HETATM   19  C   UNL     1       7.814  22.465  55.513  1.00  0.00     0.010 A 
HETATM   20  C   UNL     1       8.387  21.842  56.649  1.00  0.00     0.152 A 
HETATM   21  N   UNL     1       8.591  20.533  56.479  1.00  0.00    -0.187 NA
HETATM   22  N   UNL     1       8.145  20.308  55.233  1.00  0.00    -0.289 N 
HETATM   23  H   UNL     1       8.192  19.362  54.868  1.00  0.00     0.188 HD
HETATM   24  C   UNL     1       7.677  21.429  54.612  1.00  0.00     0.123 A 
ENDBRANCH   3  19
TORSDOF 4
ENDMDL
MODEL 8
REMARK VINA RESULT:      -8.0      3.319      5.806
REMARK  4 active torsions:
REMARK  status: ('A' for Active; 'I' for Inactive)
REMARK    1  A    between atoms: C_2  and  C_3 
REMARK    2  A    between atoms: C_5  and  C_6 
REMARK       I    between atoms: C_6  and  N_7 
REMARK    3  A    between atoms: N_7  and  C_8 
REMARK    4  A    between atoms: C_10  and  C_11 
ROOT
HETATM    1  C   UNL     1       8.875  28.923  57.161  1.00  0.00     0.035 A 
HETATM    2  C   UNL     1       8.139  29.695  58.066  1.00  0.00     0.042 A 
HETATM    3  C   UNL     1       8.687  30.851  58.650  1.00  0.00    -0.021 A 
HETATM    4  C   UNL     1       9.995  31.220  58.313  1.00  0.00     0.012 A 
HETATM    5  C   UNL     1      10.736  30.459  57.408  1.00  0.00     0.003 A 
HETATM    6  C   UNL     1      10.175  29.321  56.832  1.00  0.00     0.029 A 
ENDROOT
BRANCH   1   7
HETATM    7  N   UNL     1       8.381  27.765  56.531  1.00  0.00    -0.321 N 
HETATM    8  C   UNL     1       7.912  26.599  57.111  1.00  0.00     0.280 C 
HETATM    9  O   UNL     1       7.891  26.366  58.316  1.00  0.00    -0.265 OA
HETATM   10  H   UNL     1       8.381  27.755  55.516  1.00  0.00     0.169 HD
BRANCH   8  11
HETATM   11  C   UNL     1       7.446  25.637  56.122  1.00  0.00     0.149 A 
HETATM   12  O   UNL     1       6.577  26.066  55.148  1.00  0.00    -0.309 OA
HETATM   13  C   UNL     1       6.263  24.990  54.378  1.00  0.00     0.054 A 
HETATM   14  C   UNL     1       6.935  23.876  54.827  1.00  0.00     0.042 A 
HETATM   15  C   UNL     1       7.705  24.285  55.951  1.00  0.00    -0.020 A 
HETATM   16  C   UNL     1       8.595  23.430  56.776  1.00  0.00     0.051 C 
BRANCH  13  17
HETATM   17  C   UNL     1       5.300  25.222  53.273  1.00  0.00     0.060 C 
HETATM   18  C   UNL     1       4.772  26.646  53.278  1.00  0.00     0.012 C 
ENDBRANCH  13  17
ENDBRANCH   8  11
ENDBRANCH   1   7
BRANCH   3  19
HETATM   19  C   UNL     1       7.914  31.667  59.575  1.00  0.00     0.010 A 
HETATM   20  C   UNL     1       8.279  32.277  60.800  1.00  0.00     0.152 A 
HETATM   21  N   UNL     1       7.275  32.953  61.365  1.00  0.00    -0.187 NA
HETATM   22  N   UNL     1       6.261  32.783  60.503  1.00  0.00    -0.289 N 
HETATM   23  H   UNL     1       5.368  33.217  60.716  1.00  0.00     0.188 HD
HETATM   24  C   UNL     1       6.589  32.019  59.421  1.00  0.00     0.123 A 
ENDBRANCH   3  19
TORSDOF 4
ENDMDL
MODEL 9
REMARK VINA RESULT:      -7.8      5.893     10.809
REMARK  4 active torsions:
REMARK  status: ('A' for Active; 'I' for Inactive)
REMARK    1  A    between atoms: C_2  and  C_3 
REMARK    2  A    between atoms: C_5  and  C_6 
REMARK       I    between atoms: C_6  and  N_7 
REMARK    3  A    between atoms: N_7  and  C_8 
REMARK    4  A    between atoms: C_10  and  C_11 
ROOT
HETATM    1  C   UNL     1       7.202  25.727  54.071  1.00  0.00     0.035 A 
HETATM    2  C   UNL     1       7.366  24.580  54.854  1.00  0.00     0.042 A 
HETATM    3  C   UNL     1       7.810  23.371  54.289  1.00  0.00    -0.021 A 
HETATM    4  C   UNL     1       8.084  23.329  52.916  1.00  0.00     0.012 A 
HETATM    5  C   UNL     1       7.927  24.470  52.127  1.00  0.00     0.003 A 
HETATM    6  C   UNL     1       7.494  25.662  52.704  1.00  0.00     0.029 A 
ENDROOT
BRANCH   1   7
HETATM    7  N   UNL     1       6.775  26.970  54.576  1.00  0.00    -0.321 N 
HETATM    8  C   UNL     1       5.537  27.575  54.448  1.00  0.00     0.280 C 
HETATM    9  O   UNL     1       4.589  27.123  53.812  1.00  0.00    -0.265 OA
HETATM   10  H   UNL     1       7.457  27.521  55.086  1.00  0.00     0.169 HD
BRANCH   8  11
HETATM   11  C   UNL     1       5.469  28.850  55.150  1.00  0.00     0.149 A 
HETATM   12  O   UNL     1       6.269  29.036  56.251  1.00  0.00    -0.309 OA
HETATM   13  C   UNL     1       5.999  30.274  56.746  1.00  0.00     0.054 A 
HETATM   14  C   UNL     1       5.053  30.899  55.967  1.00  0.00     0.042 A 
HETATM   15  C   UNL     1       4.706  29.988  54.931  1.00  0.00    -0.020 A 
HETATM   16  C   UNL     1       3.720  30.213  53.844  1.00  0.00     0.051 C 
BRANCH  13  17
HETATM   17  C   UNL     1       6.736  30.674  57.970  1.00  0.00     0.060 C 
HETATM   18  C   UNL     1       7.811  29.664  58.334  1.00  0.00     0.012 C 
ENDBRANCH  13  17
ENDBRANCH   8  11
ENDBRANCH   1   7
BRANCH   3  19
HETATM   19  C   UNL     1       8.004  22.182  55.107  1.00  0.00     0.010 A 
HETATM   20  C   UNL     1       8.377  22.042  56.466  1.00  0.00     0.152 A 
HETATM   21  N   UNL     1       8.453  20.768  56.857  1.00  0.00    -0.187 NA
HETATM   22  N   UNL     1       8.124  20.082  55.752  1.00  0.00    -0.289 N 
HETATM   23  H   UNL     1       8.107  19.068  55.800  1.00  0.00     0.188 HD
HETATM   24  C   UNL     1       7.853  20.879  54.678  1.00  0.00     0.123 A 
ENDBRANCH   3  19
TORSDOF 4
ENDMDL
MODEL 10
REMARK VINA RESULT:      -7.8      8.037     11.401
REMARK  4 active torsions:
REMARK  status: ('A' for Active; 'I' for Inactive)
REMARK    1  A    between atoms: C_2  and  C_3 
REMARK    2  A    between atoms: C_5  and  C_6 
REMARK       I    between atoms: C_6  and  N_7 
REMARK    3  A    between atoms: N_7  and  C_8 
REMARK    4  A    between atoms: C_10  and  C_11 
ROOT
HETATM    1  C   UNL     1       7.170  25.247  54.971  1.00  0.00     0.035 A 
HETATM    2  C   UNL     1       7.477  23.938  54.584  1.00  0.00     0.042 A 
HETATM    3  C   UNL     1       8.194  23.078  55.434  1.00  0.00    -0.021 A 
HETATM    4  C   UNL     1       8.606  23.557  56.684  1.00  0.00     0.012 A 
HETATM    5  C   UNL     1       8.302  24.860  57.080  1.00  0.00     0.003 A 
HETATM    6  C   UNL     1       7.583  25.697  56.229  1.00  0.00     0.029 A 
ENDROOT
BRANCH   1   7
HETATM    7  N   UNL     1       6.444  26.153  54.174  1.00  0.00    -0.321 N 
HETATM    8  C   UNL     1       5.269  25.938  53.474  1.00  0.00     0.280 C 
HETATM    9  O   UNL     1       4.674  24.867  53.400  1.00  0.00    -0.265 OA
HETATM   10  H   UNL     1       6.826  27.087  54.070  1.00  0.00     0.169 HD
BRANCH   8  11
HETATM   11  C   UNL     1       4.801  27.140  52.797  1.00  0.00     0.149 A 
HETATM   12  O   UNL     1       4.378  28.201  53.560  1.00  0.00    -0.309 OA
HETATM   13  C   UNL     1       3.960  29.176  52.709  1.00  0.00     0.054 A 
HETATM   14  C   UNL     1       4.128  28.768  51.405  1.00  0.00     0.042 A 
HETATM   15  C   UNL     1       4.674  27.455  51.452  1.00  0.00    -0.020 A 
HETATM   16  C   UNL     1       5.026  26.599  50.291  1.00  0.00     0.051 C 
BRANCH  13  17
HETATM   17  C   UNL     1       3.424  30.413  53.327  1.00  0.00     0.060 C 
HETATM   18  C   UNL     1       4.095  30.711  54.657  1.00  0.00     0.012 C 
ENDBRANCH  13  17
ENDBRANCH   8  11
ENDBRANCH   1   7
BRANCH   3  19
HETATM   19  C   UNL     1       8.495  21.709  55.043  1.00  0.00     0.010 A 
HETATM   20  C   UNL     1       8.399  21.062  53.787  1.00  0.00     0.152 A 
HETATM   21  N   UNL     1       8.768  19.779  53.832  1.00  0.00    -0.187 NA
HETATM   22  N   UNL     1       9.107  19.597  55.117  1.00  0.00    -0.289 N 
HETATM   23  H   UNL     1       9.432  18.680  55.406  1.00  0.00     0.188 HD
HETATM   24  C   UNL     1       8.956  20.717  55.883  1.00  0.00     0.123 A 
ENDBRANCH   3  19
TORSDOF 4
ENDMDL
