MODEL 1
REMARK VINA RESULT:      -9.9      0.000      0.000
REMARK  5 active torsions:
REMARK  status: ('A' for Active; 'I' for Inactive)
REMARK    1  A    between atoms: C_7  and  C_8 
REMARK    2  A    between atoms: N_9  and  N_10 
REMARK       I    between atoms: N_10  and  C_11 
REMARK    3  A    between atoms: C_11  and  C_12 
REMARK    4  A    between atoms: C_12  and  N_13 
REMARK       I    between atoms: N_13  and  C_14 
REMARK    5  A    between atoms: C_14  and  C_15 
ROOT
HETATM    1  N   UNL     1       6.732  27.409  56.037  1.00  0.00    -0.246 N 
HETATM    2  C   UNL     1       7.201  27.940  57.230  1.00  0.00     0.255 C 
HETATM    3  O   UNL     1       7.790  27.320  58.114  1.00  0.00    -0.270 OA
HETATM    4  H   UNL     1       6.332  28.041  55.336  1.00  0.00     0.192 HD
ENDROOT
BRANCH   1   5
HETATM    5  N   UNL     1       6.843  26.075  55.781  1.00  0.00    -0.184 NA
HETATM    6  C   UNL     1       7.551  25.768  54.742  1.00  0.00     0.153 C 
BRANCH   6   7
HETATM    7  C   UNL     1       7.718  24.379  54.353  1.00  0.00     0.018 A 
HETATM    8  C   UNL     1       7.707  23.863  53.062  1.00  0.00     0.018 A 
HETATM    9  C   UNL     1       7.526  24.528  51.744  1.00  0.00     0.069 C 
HETATM   10  N   UNL     1       7.910  22.508  53.152  1.00  0.00    -0.358 N 
HETATM   11  H   UNL     1       7.952  21.876  52.364  1.00  0.00     0.166 HD
HETATM   12  C   UNL     1       8.057  22.124  54.462  1.00  0.00     0.043 A 
HETATM   13  C   UNL     1       7.940  23.274  55.243  1.00  0.00     0.004 A 
HETATM   14  C   UNL     1       8.287  20.854  55.005  1.00  0.00     0.030 A 
HETATM   15  C   UNL     1       8.059  23.142  56.644  1.00  0.00     0.014 A 
HETATM   16  C   UNL     1       8.288  21.880  57.204  1.00  0.00     0.001 A 
HETATM   17  C   UNL     1       8.400  20.754  56.394  1.00  0.00     0.002 A 
ENDBRANCH   6   7
ENDBRANCH   1   5
BRANCH   2  18
HETATM   18  C   UNL     1       6.865  29.423  57.383  1.00  0.00     0.227 C 
BRANCH  18  19
HETATM   19  N   UNL     1       7.226  29.967  58.682  1.00  0.00    -0.348 N 
HETATM   20  C   UNL     1       7.030  31.294  58.989  1.00  0.00     0.252 C 
HETATM   21  O   UNL     1       6.640  32.113  58.162  1.00  0.00    -0.268 OA
HETATM   22  H   UNL     1       7.794  29.388  59.289  1.00  0.00     0.163 HD
BRANCH  20  23
HETATM   23  C   UNL     1       7.375  31.708  60.374  1.00  0.00     0.032 A 
HETATM   24  C   UNL     1       6.653  32.753  60.965  1.00  0.00     0.020 A 
HETATM   25  C   UNL     1       6.943  33.152  62.270  1.00  0.00     0.043 A 
HETATM   26  C   UNL     1       7.944  32.497  62.981  1.00  0.00     0.116 A 
HETATM   27  F   UNL     1       8.217  32.876  64.237  1.00  0.00    -0.206 F 
HETATM   28  C   UNL     1       8.658  31.448  62.413  1.00  0.00     0.043 A 
HETATM   29  C   UNL     1       8.375  31.048  61.105  1.00  0.00     0.020 A 
ENDBRANCH  20  23
ENDBRANCH  18  19
ENDBRANCH   2  18
TORSDOF 5
ENDMDL
MODEL 2
REMARK VINA RESULT:      -9.7      6.270      9.297
REMARK  5 active torsions:
REMARK  status: ('A' for Active; 'I' for Inactive)
REMARK    1  A    between atoms: C_7  and  C_8 
REMARK    2  A    between atoms: N_9  and  N_10 
REMARK       I    between atoms: N_10  and  C_11 
REMARK    3  A    between atoms: C_11  and  C_12 
REMARK    4  A    between atoms: C_12  and  N_13 
REMARK       I    between atoms: N_13  and  C_14 
REMARK    5  A    between atoms: C_14  and  C_15 
ROOT
HETATM    1  N   UNL     1       5.149  26.452  53.441  1.00  0.00    -0.246 N 
HETATM    2  C   UNL     1       4.662  27.628  53.993  1.00  0.00     0.255 C 
HETATM    3  O   UNL     1       4.649  27.914  55.188  1.00  0.00    -0.270 OA
HETATM    4  H   UNL     1       5.188  26.361  52.421  1.00  0.00     0.192 HD
ENDROOT
BRANCH   1   5
HETATM    5  N   UNL     1       5.615  25.453  54.242  1.00  0.00    -0.184 NA
HETATM    6  C   UNL     1       6.889  25.234  54.172  1.00  0.00     0.153 C 
BRANCH   6   7
HETATM    7  C   UNL     1       7.495  24.174  54.958  1.00  0.00     0.018 A 
HETATM    8  C   UNL     1       7.854  24.227  56.300  1.00  0.00     0.018 A 
HETATM    9  C   UNL     1       7.744  25.323  57.301  1.00  0.00     0.069 C 
HETATM   10  N   UNL     1       8.381  23.006  56.640  1.00  0.00    -0.358 N 
HETATM   11  H   UNL     1       8.723  22.759  57.559  1.00  0.00     0.166 HD
HETATM   12  C   UNL     1       8.373  22.156  55.561  1.00  0.00     0.043 A 
HETATM   13  C   UNL     1       7.825  22.858  54.489  1.00  0.00     0.004 A 
HETATM   14  C   UNL     1       8.805  20.827  55.462  1.00  0.00     0.030 A 
HETATM   15  C   UNL     1       7.704  22.193  53.249  1.00  0.00     0.014 A 
HETATM   16  C   UNL     1       8.132  20.865  53.131  1.00  0.00     0.001 A 
HETATM   17  C   UNL     1       8.674  20.194  54.224  1.00  0.00     0.002 A 
ENDBRANCH   6   7
ENDBRANCH   1   5
BRANCH   2  18
HETATM   18  C   UNL     1       4.068  28.565  52.940  1.00  0.00     0.227 C 
BRANCH  18  19
HETATM   19  N   UNL     1       3.664  27.883  51.721  1.00  0.00    -0.348 N 
HETATM   20  C   UNL     1       3.793  28.475  50.486  1.00  0.00     0.252 C 
HETATM   21  O   UNL     1       4.156  29.640  50.346  1.00  0.00    -0.268 OA
HETATM   22  H   UNL     1       3.115  27.038  51.820  1.00  0.00     0.163 HD
BRANCH  20  23
HETATM   23  C   UNL     1       3.409  27.645  49.314  1.00  0.00     0.032 A 
HETATM   24  C   UNL     1       4.323  26.700  48.830  1.00  0.00     0.020 A 
HETATM   25  C   UNL     1       3.983  25.895  47.741  1.00  0.00     0.043 A 
HETATM   26  C   UNL     1       2.730  26.030  47.153  1.00  0.00     0.116 A 
HETATM   27  F   UNL     1       2.402  25.252  46.113  1.00  0.00    -0.206 F 
HETATM   28  C   UNL     1       1.807  26.954  47.633  1.00  0.00     0.043 A 
HETATM   29  C   UNL     1       2.144  27.765  48.719  1.00  0.00     0.020 A 
ENDBRANCH  20  23
ENDBRANCH  18  19
ENDBRANCH   2  18
TORSDOF 5
ENDMDL
MODEL 3
REMARK VINA RESULT:      -9.7      1.833      2.149
REMARK  5 active torsions:
REMARK  status: ('A' for Active; 'I' for Inactive)
REMARK    1  A    between atoms: C_7  and  C_8 
REMARK    2  A    between atoms: N_9  and  N_10 
REMARK       I    between atoms: N_10  and  C_11 
REMARK    3  A    between atoms: C_11  and  C_12 
REMARK    4  A    between atoms: C_12  and  N_13 
REMARK       I    between atoms: N_13  and  C_14 
REMARK    5  A    between atoms: C_14  and  C_15 
ROOT
HETATM    1  N   UNL     1       5.028  26.367  55.869  1.00  0.00    -0.246 N 
HETATM    2  C   UNL     1       5.262  27.724  55.698  1.00  0.00     0.255 C 
HETATM    3  O   UNL     1       5.826  28.243  54.737  1.00  0.00    -0.270 OA
HETATM    4  H   UNL     1       4.469  26.057  56.671  1.00  0.00     0.192 HD
ENDROOT
BRANCH   1   5
HETATM    5  N   UNL     1       5.491  25.464  54.960  1.00  0.00    -0.184 NA
HETATM    6  C   UNL     1       6.620  24.906  55.258  1.00  0.00     0.153 C 
BRANCH   6   7
HETATM    7  C   UNL     1       7.227  23.948  54.351  1.00  0.00     0.018 A 
HETATM    8  C   UNL     1       7.542  24.145  53.012  1.00  0.00     0.018 A 
HETATM    9  C   UNL     1       7.364  25.329  52.128  1.00  0.00     0.069 C 
HETATM   10  N   UNL     1       8.108  22.987  52.540  1.00  0.00    -0.358 N 
HETATM   11  H   UNL     1       8.437  22.847  51.595  1.00  0.00     0.166 HD
HETATM   12  C   UNL     1       8.175  22.040  53.533  1.00  0.00     0.043 A 
HETATM   13  C   UNL     1       7.629  22.610  54.682  1.00  0.00     0.004 A 
HETATM   14  C   UNL     1       8.679  20.734  53.495  1.00  0.00     0.030 A 
HETATM   15  C   UNL     1       7.585  21.827  55.857  1.00  0.00     0.014 A 
HETATM   16  C   UNL     1       8.083  20.519  55.838  1.00  0.00     0.001 A 
HETATM   17  C   UNL     1       8.623  19.983  54.672  1.00  0.00     0.002 A 
ENDBRANCH   6   7
ENDBRANCH   1   5
BRANCH   2  18
HETATM   18  C   UNL     1       4.779  28.555  56.887  1.00  0.00     0.227 C 
BRANCH  18  19
HETATM   19  N   UNL     1       5.863  29.130  57.668  1.00  0.00    -0.348 N 
HETATM   20  C   UNL     1       6.214  30.455  57.548  1.00  0.00     0.252 C 
HETATM   21  O   UNL     1       5.711  31.199  56.711  1.00  0.00    -0.268 OA
HETATM   22  H   UNL     1       6.471  28.491  58.164  1.00  0.00     0.163 HD
BRANCH  20  23
HETATM   23  C   UNL     1       7.292  30.935  58.453  1.00  0.00     0.032 A 
HETATM   24  C   UNL     1       6.961  31.837  59.474  1.00  0.00     0.020 A 
HETATM   25  C   UNL     1       7.949  32.292  60.349  1.00  0.00     0.043 A 
HETATM   26  C   UNL     1       9.255  31.834  60.208  1.00  0.00     0.116 A 
HETATM   27  F   UNL     1      10.200  32.266  61.053  1.00  0.00    -0.206 F 
HETATM   28  C   UNL     1       9.593  30.927  59.209  1.00  0.00     0.043 A 
HETATM   29  C   UNL     1       8.610  30.472  58.327  1.00  0.00     0.020 A 
ENDBRANCH  20  23
ENDBRANCH  18  19
ENDBRANCH   2  18
TORSDOF 5
ENDMDL
MODEL 4
REMARK VINA RESULT:      -9.5      1.916      2.743
REMARK  5 active torsions:
REMARK  status: ('A' for Active; 'I' for Inactive)
REMARK    1  A    between atoms: C_7  and  C_8 
REMARK    2  A    between atoms: N_9  and  N_10 
REMARK       I    between atoms: N_10  and  C_11 
REMARK    3  A    between atoms: C_11  and  C_12 
REMARK    4  A    between atoms: C_12  and  N_13 
REMARK       I    between atoms: N_13  and  C_14 
REMARK    5  A    between atoms: C_14  and  C_15 
ROOT
HETATM    1  N   UNL     1       8.303  28.346  57.810  1.00  0.00    -0.246 N 
HETATM    2  C   UNL     1       7.818  29.577  58.227  1.00  0.00     0.255 C 
HETATM    3  O   UNL     1       6.852  30.171  57.752  1.00  0.00    -0.270 OA
HETATM    4  H   UNL     1       9.063  27.907  58.340  1.00  0.00     0.192 HD
ENDROOT
BRANCH   1   5
HETATM    5  N   UNL     1       7.747  27.707  56.743  1.00  0.00    -0.184 NA
HETATM    6  C   UNL     1       7.824  26.416  56.767  1.00  0.00     0.153 C 
BRANCH   6   7
HETATM    7  C   UNL     1       7.292  25.628  55.669  1.00  0.00     0.018 A 
HETATM    8  C   UNL     1       6.191  25.932  54.876  1.00  0.00     0.018 A 
HETATM    9  C   UNL     1       5.257  27.090  54.900  1.00  0.00     0.069 C 
HETATM   10  N   UNL     1       6.048  24.924  53.955  1.00  0.00    -0.358 N 
HETATM   11  H   UNL     1       5.328  24.886  53.247  1.00  0.00     0.166 HD
HETATM   12  C   UNL     1       7.025  23.973  54.120  1.00  0.00     0.043 A 
HETATM   13  C   UNL     1       7.821  24.382  55.189  1.00  0.00     0.004 A 
HETATM   14  C   UNL     1       7.258  22.792  53.404  1.00  0.00     0.030 A 
HETATM   15  C   UNL     1       8.911  23.564  55.560  1.00  0.00     0.014 A 
HETATM   16  C   UNL     1       9.159  22.380  54.856  1.00  0.00     0.001 A 
HETATM   17  C   UNL     1       8.343  22.002  53.793  1.00  0.00     0.002 A 
ENDBRANCH   6   7
ENDBRANCH   1   5
BRANCH   2  18
HETATM   18  C   UNL     1       8.656  30.186  59.351  1.00  0.00     0.227 C 
BRANCH  18  19
HETATM   19  N   UNL     1       7.857  30.741  60.432  1.00  0.00    -0.348 N 
HETATM   20  C   UNL     1       8.429  31.463  61.454  1.00  0.00     0.252 C 
HETATM   21  O   UNL     1       9.644  31.594  61.572  1.00  0.00    -0.268 OA
HETATM   22  H   UNL     1       6.898  30.428  60.512  1.00  0.00     0.163 HD
BRANCH  20  23
HETATM   23  C   UNL     1       7.495  32.036  62.458  1.00  0.00     0.032 A 
HETATM   24  C   UNL     1       6.118  31.842  62.285  1.00  0.00     0.020 A 
HETATM   25  C   UNL     1       5.218  32.354  63.221  1.00  0.00     0.043 A 
HETATM   26  C   UNL     1       5.699  33.044  64.329  1.00  0.00     0.116 A 
HETATM   27  F   UNL     1       4.835  33.529  65.231  1.00  0.00    -0.206 F 
HETATM   28  C   UNL     1       7.064  33.231  64.522  1.00  0.00     0.043 A 
HETATM   29  C   UNL     1       7.968  32.724  63.586  1.00  0.00     0.020 A 
ENDBRANCH  20  23
ENDBRANCH  18  19
ENDBRANCH   2  18
TORSDOF 5
ENDMDL
MODEL 5
REMARK VINA RESULT:      -9.5      4.256      9.420
REMARK  5 active torsions:
REMARK  status: ('A' for Active; 'I' for Inactive)
REMARK    1  A    between atoms: C_7  and  C_8 
REMARK    2  A    between atoms: N_9  and  N_10 
REMARK       I    between atoms: N_10  and  C_11 
REMARK    3  A    between atoms: C_11  and  C_12 
REMARK    4  A    between atoms: C_12  and  N_13 
REMARK       I    between atoms: N_13  and  C_14 
REMARK    5  A    between atoms: C_14  and  C_15 
ROOT
HETATM    1  N   UNL     1       6.959  27.155  53.435  1.00  0.00    -0.246 N 
HETATM    2  C   UNL     1       5.787  27.123  52.695  1.00  0.00     0.255 C 
HETATM    3  O   UNL     1       4.920  27.994  52.676  1.00  0.00    -0.270 OA
HETATM    4  H   UNL     1       7.650  26.410  53.304  1.00  0.00     0.192 HD
ENDROOT
BRANCH   1   5
HETATM    5  N   UNL     1       7.211  28.187  54.289  1.00  0.00    -0.184 NA
HETATM    6  C   UNL     1       7.131  27.898  55.548  1.00  0.00     0.153 C 
BRANCH   6   7
HETATM    7  C   UNL     1       7.350  28.924  56.552  1.00  0.00     0.018 A 
HETATM    8  C   UNL     1       6.388  29.541  57.343  1.00  0.00     0.018 A 
HETATM    9  C   UNL     1       4.912  29.364  57.408  1.00  0.00     0.069 C 
HETATM   10  N   UNL     1       7.031  30.438  58.160  1.00  0.00    -0.358 N 
HETATM   11  H   UNL     1       6.576  31.027  58.844  1.00  0.00     0.166 HD
HETATM   12  C   UNL     1       8.385  30.422  57.928  1.00  0.00     0.043 A 
HETATM   13  C   UNL     1       8.619  29.484  56.924  1.00  0.00     0.004 A 
HETATM   14  C   UNL     1       9.408  31.162  58.533  1.00  0.00     0.030 A 
HETATM   15  C   UNL     1       9.951  29.277  56.503  1.00  0.00     0.014 A 
HETATM   16  C   UNL     1      10.987  30.009  57.096  1.00  0.00     0.001 A 
HETATM   17  C   UNL     1      10.716  30.937  58.098  1.00  0.00     0.002 A 
ENDBRANCH   6   7
ENDBRANCH   1   5
BRANCH   2  18
HETATM   18  C   UNL     1       5.633  25.825  51.901  1.00  0.00     0.227 C 
BRANCH  18  19
HETATM   19  N   UNL     1       5.988  24.637  52.661  1.00  0.00    -0.348 N 
HETATM   20  C   UNL     1       7.265  24.126  52.646  1.00  0.00     0.252 C 
HETATM   21  O   UNL     1       8.147  24.573  51.918  1.00  0.00    -0.268 OA
HETATM   22  H   UNL     1       5.231  24.090  53.053  1.00  0.00     0.163 HD
BRANCH  20  23
HETATM   23  C   UNL     1       7.514  22.950  53.520  1.00  0.00     0.032 A 
HETATM   24  C   UNL     1       7.916  21.744  52.929  1.00  0.00     0.020 A 
HETATM   25  C   UNL     1       8.174  20.628  53.727  1.00  0.00     0.043 A 
HETATM   26  C   UNL     1       8.041  20.726  55.108  1.00  0.00     0.116 A 
HETATM   27  F   UNL     1       8.296  19.657  55.873  1.00  0.00    -0.206 F 
HETATM   28  C   UNL     1       7.658  21.921  55.709  1.00  0.00     0.043 A 
HETATM   29  C   UNL     1       7.394  23.039  54.915  1.00  0.00     0.020 A 
ENDBRANCH  20  23
ENDBRANCH  18  19
ENDBRANCH   2  18
TORSDOF 5
ENDMDL
MODEL 6
REMARK VINA RESULT:      -9.3      3.891      9.665
REMARK  5 active torsions:
REMARK  status: ('A' for Active; 'I' for Inactive)
REMARK    1  A    between atoms: C_7  and  C_8 
REMARK    2  A    between atoms: N_9  and  N_10 
REMARK       I    between atoms: N_10  and  C_11 
REMARK    3  A    between atoms: C_11  and  C_12 
REMARK    4  A    between atoms: C_12  and  N_13 
REMARK       I    between atoms: N_13  and  C_14 
REMARK    5  A    between atoms: C_14  and  C_15 
ROOT
HETATM    1  N   UNL     1       6.950  27.332  55.326  1.00  0.00    -0.246 N 
HETATM    2  C   UNL     1       5.622  27.405  54.931  1.00  0.00     0.255 C 
HETATM    3  O   UNL     1       4.754  28.110  55.443  1.00  0.00    -0.270 OA
HETATM    4  H   UNL     1       7.604  26.774  54.768  1.00  0.00     0.192 HD
ENDROOT
BRANCH   1   5
HETATM    5  N   UNL     1       7.389  28.031  56.411  1.00  0.00    -0.184 NA
HETATM    6  C   UNL     1       7.989  29.146  56.147  1.00  0.00     0.153 C 
BRANCH   6   7
HETATM    7  C   UNL     1       8.526  29.963  57.221  1.00  0.00     0.018 A 
HETATM    8  C   UNL     1       9.864  30.128  57.559  1.00  0.00     0.018 A 
HETATM    9  C   UNL     1      11.102  29.552  56.969  1.00  0.00     0.069 C 
HETATM   10  N   UNL     1       9.922  30.991  58.626  1.00  0.00    -0.358 N 
HETATM   11  H   UNL     1      10.772  31.294  59.080  1.00  0.00     0.166 HD
HETATM   12  C   UNL     1       8.661  31.397  58.991  1.00  0.00     0.043 A 
HETATM   13  C   UNL     1       7.762  30.769  58.131  1.00  0.00     0.004 A 
HETATM   14  C   UNL     1       8.259  32.270  60.010  1.00  0.00     0.030 A 
HETATM   15  C   UNL     1       6.384  31.030  58.302  1.00  0.00     0.014 A 
HETATM   16  C   UNL     1       5.964  31.899  59.316  1.00  0.00     0.001 A 
HETATM   17  C   UNL     1       6.891  32.509  60.156  1.00  0.00     0.002 A 
ENDBRANCH   6   7
ENDBRANCH   1   5
BRANCH   2  18
HETATM   18  C   UNL     1       5.302  26.452  53.780  1.00  0.00     0.227 C 
BRANCH  18  19
HETATM   19  N   UNL     1       5.798  25.102  53.992  1.00  0.00    -0.348 N 
HETATM   20  C   UNL     1       7.034  24.706  53.534  1.00  0.00     0.252 C 
HETATM   21  O   UNL     1       7.742  25.428  52.837  1.00  0.00    -0.268 OA
HETATM   22  H   UNL     1       5.138  24.408  54.322  1.00  0.00     0.163 HD
BRANCH  20  23
HETATM   23  C   UNL     1       7.452  23.322  53.877  1.00  0.00     0.032 A 
HETATM   24  C   UNL     1       7.403  22.917  55.218  1.00  0.00     0.020 A 
HETATM   25  C   UNL     1       7.774  21.617  55.568  1.00  0.00     0.043 A 
HETATM   26  C   UNL     1       8.178  20.729  54.577  1.00  0.00     0.116 A 
HETATM   27  F   UNL     1       8.526  19.480  54.913  1.00  0.00    -0.206 F 
HETATM   28  C   UNL     1       8.216  21.113  53.241  1.00  0.00     0.043 A 
HETATM   29  C   UNL     1       7.851  22.413  52.886  1.00  0.00     0.020 A 
ENDBRANCH  20  23
ENDBRANCH  18  19
ENDBRANCH   2  18
TORSDOF 5
ENDMDL
MODEL 7
REMARK VINA RESULT:      -9.2      2.696      3.943
REMARK  5 active torsions:
REMARK  status: ('A' for Active; 'I' for Inactive)
REMARK    1  A    between atoms: C_7  and  C_8 
REMARK    2  A    between atoms: N_9  and  N_10 
REMARK       I    between atoms: N_10  and  C_11 
REMARK    3  A    between atoms: C_11  and  C_12 
REMARK    4  A    between atoms: C_12  and  N_13 
REMARK       I    between atoms: N_13  and  C_14 
REMARK    5  A    between atoms: C_14  and  C_15 
ROOT
HETATM    1  N   UNL     1       6.876  29.947  57.319  1.00  0.00    -0.246 N 
HETATM    2  C   UNL     1       7.770  29.460  58.261  1.00  0.00     0.255 C 
HETATM    3  O   UNL     1       7.975  28.275  58.518  1.00  0.00    -0.270 OA
HETATM    4  H   UNL     1       6.853  30.954  57.131  1.00  0.00     0.192 HD
ENDROOT
BRANCH   1   5
HETATM    5  N   UNL     1       6.074  29.095  56.620  1.00  0.00    -0.184 NA
HETATM    6  C   UNL     1       6.411  28.903  55.386  1.00  0.00     0.153 C 
BRANCH   6   7
HETATM    7  C   UNL     1       5.614  28.038  54.533  1.00  0.00     0.018 A 
HETATM    8  C   UNL     1       4.390  28.337  53.946  1.00  0.00     0.018 A 
HETATM    9  C   UNL     1       3.550  29.563  54.004  1.00  0.00     0.069 C 
HETATM   10  N   UNL     1       3.999  27.242  53.217  1.00  0.00    -0.358 N 
HETATM   11  H   UNL     1       3.144  27.180  52.680  1.00  0.00     0.166 HD
HETATM   12  C   UNL     1       4.933  26.239  53.306  1.00  0.00     0.043 A 
HETATM   13  C   UNL     1       5.959  26.705  54.127  1.00  0.00     0.004 A 
HETATM   14  C   UNL     1       4.942  24.966  52.722  1.00  0.00     0.030 A 
HETATM   15  C   UNL     1       7.054  25.848  54.375  1.00  0.00     0.014 A 
HETATM   16  C   UNL     1       7.080  24.572  53.800  1.00  0.00     0.001 A 
HETATM   17  C   UNL     1       6.037  24.140  52.985  1.00  0.00     0.002 A 
ENDBRANCH   6   7
ENDBRANCH   1   5
BRANCH   2  18
HETATM   18  C   UNL     1       8.479  30.577  59.027  1.00  0.00     0.227 C 
BRANCH  18  19
HETATM   19  N   UNL     1       7.721  31.069  60.166  1.00  0.00    -0.348 N 
HETATM   20  C   UNL     1       8.331  31.377  61.360  1.00  0.00     0.252 C 
HETATM   21  O   UNL     1       9.521  31.161  61.569  1.00  0.00    -0.268 OA
HETATM   22  H   UNL     1       6.712  31.003  60.119  1.00  0.00     0.163 HD
BRANCH  20  23
HETATM   23  C   UNL     1       7.455  31.936  62.423  1.00  0.00     0.032 A 
HETATM   24  C   UNL     1       8.046  32.629  63.488  1.00  0.00     0.020 A 
HETATM   25  C   UNL     1       7.247  33.180  64.491  1.00  0.00     0.043 A 
HETATM   26  C   UNL     1       5.864  33.047  64.418  1.00  0.00     0.116 A 
HETATM   27  F   UNL     1       5.098  33.582  65.377  1.00  0.00    -0.206 F 
HETATM   28  C   UNL     1       5.263  32.375  63.359  1.00  0.00     0.043 A 
HETATM   29  C   UNL     1       6.058  31.818  62.354  1.00  0.00     0.020 A 
ENDBRANCH  20  23
ENDBRANCH  18  19
ENDBRANCH   2  18
TORSDOF 5
ENDMDL
MODEL 8
REMARK VINA RESULT:      -9.2      7.132     10.428
REMARK  5 active torsions:
REMARK  status: ('A' for Active; 'I' for Inactive)
REMARK    1  A    between atoms: C_7  and  C_8 
REMARK    2  A    between atoms: N_9  and  N_10 
REMARK       I    between atoms: N_10  and  C_11 
REMARK    3  A    between atoms: C_11  and  C_12 
REMARK    4  A    between atoms: C_12  and  N_13 
REMARK       I    between atoms: N_13  and  C_14 
REMARK    5  A    between atoms: C_14  and  C_15 
ROOT
HETATM    1  N   UNL     1       6.121  25.978  51.030  1.00  0.00    -0.246 N 
HETATM    2  C   UNL     1       5.327  27.114  50.985  1.00  0.00     0.255 C 
HETATM    3  O   UNL     1       4.631  27.546  51.903  1.00  0.00    -0.270 OA
HETATM    4  H   UNL     1       6.726  25.763  50.231  1.00  0.00     0.192 HD
ENDROOT
BRANCH   1   5
HETATM    5  N   UNL     1       6.133  25.184  52.138  1.00  0.00    -0.184 NA
HETATM    6  C   UNL     1       7.262  25.130  52.769  1.00  0.00     0.153 C 
BRANCH   6   7
HETATM    7  C   UNL     1       7.404  24.294  53.948  1.00  0.00     0.018 A 
HETATM    8  C   UNL     1       7.279  24.689  55.274  1.00  0.00     0.018 A 
HETATM    9  C   UNL     1       6.984  26.017  55.877  1.00  0.00     0.069 C 
HETATM   10  N   UNL     1       7.479  23.582  56.061  1.00  0.00    -0.358 N 
HETATM   11  H   UNL     1       7.444  23.576  57.071  1.00  0.00     0.166 HD
HETATM   12  C   UNL     1       7.727  22.475  55.287  1.00  0.00     0.043 A 
HETATM   13  C   UNL     1       7.689  22.887  53.956  1.00  0.00     0.004 A 
HETATM   14  C   UNL     1       7.976  21.150  55.669  1.00  0.00     0.030 A 
HETATM   15  C   UNL     1       7.913  21.919  52.952  1.00  0.00     0.014 A 
HETATM   16  C   UNL     1       8.165  20.590  53.315  1.00  0.00     0.001 A 
HETATM   17  C   UNL     1       8.195  20.214  54.655  1.00  0.00     0.002 A 
ENDBRANCH   6   7
ENDBRANCH   1   5
BRANCH   2  18
HETATM   18  C   UNL     1       5.352  27.792  49.615  1.00  0.00     0.227 C 
BRANCH  18  19
HETATM   19  N   UNL     1       4.043  27.872  48.986  1.00  0.00    -0.348 N 
HETATM   20  C   UNL     1       3.857  28.526  47.789  1.00  0.00     0.252 C 
HETATM   21  O   UNL     1       4.751  29.162  47.237  1.00  0.00    -0.268 OA
HETATM   22  H   UNL     1       3.242  27.597  49.539  1.00  0.00     0.163 HD
BRANCH  20  23
HETATM   23  C   UNL     1       2.486  28.475  47.218  1.00  0.00     0.032 A 
HETATM   24  C   UNL     1       1.873  29.675  46.831  1.00  0.00     0.020 A 
HETATM   25  C   UNL     1       0.593  29.657  46.276  1.00  0.00     0.043 A 
HETATM   26  C   UNL     1      -0.061  28.442  46.098  1.00  0.00     0.116 A 
HETATM   27  F   UNL     1      -1.287  28.425  45.558  1.00  0.00    -0.206 F 
HETATM   28  C   UNL     1       0.542  27.243  46.463  1.00  0.00     0.043 A 
HETATM   29  C   UNL     1       1.821  27.255  47.023  1.00  0.00     0.020 A 
ENDBRANCH  20  23
ENDBRANCH  18  19
ENDBRANCH   2  18
TORSDOF 5
ENDMDL
MODEL 9
REMARK VINA RESULT:      -9.1      3.712      9.913
REMARK  5 active torsions:
REMARK  status: ('A' for Active; 'I' for Inactive)
REMARK    1  A    between atoms: C_7  and  C_8 
REMARK    2  A    between atoms: N_9  and  N_10 
REMARK       I    between atoms: N_10  and  C_11 
REMARK    3  A    between atoms: C_11  and  C_12 
REMARK    4  A    between atoms: C_12  and  N_13 
REMARK       I    between atoms: N_13  and  C_14 
REMARK    5  A    between atoms: C_14  and  C_15 
ROOT
HETATM    1  N   UNL     1       6.592  28.625  56.047  1.00  0.00    -0.246 N 
HETATM    2  C   UNL     1       5.505  27.970  55.486  1.00  0.00     0.255 C 
HETATM    3  O   UNL     1       4.379  27.892  55.973  1.00  0.00    -0.270 OA
HETATM    4  H   UNL     1       7.460  28.699  55.508  1.00  0.00     0.192 HD
ENDROOT
BRANCH   1   5
HETATM    5  N   UNL     1       6.492  29.204  57.277  1.00  0.00    -0.184 NA
HETATM    6  C   UNL     1       6.537  30.497  57.287  1.00  0.00     0.153 C 
BRANCH   6   7
HETATM    7  C   UNL     1       6.468  31.225  58.542  1.00  0.00     0.018 A 
HETATM    8  C   UNL     1       5.429  32.034  58.986  1.00  0.00     0.018 A 
HETATM    9  C   UNL     1       4.133  32.398  58.353  1.00  0.00     0.069 C 
HETATM   10  N   UNL     1       5.773  32.514  60.225  1.00  0.00    -0.358 N 
HETATM   11  H   UNL     1       5.200  33.128  60.788  1.00  0.00     0.166 HD
HETATM   12  C   UNL     1       7.005  32.039  60.605  1.00  0.00     0.043 A 
HETATM   13  C   UNL     1       7.470  31.228  59.571  1.00  0.00     0.004 A 
HETATM   14  C   UNL     1       7.731  32.266  61.782  1.00  0.00     0.030 A 
HETATM   15  C   UNL     1       8.731  30.611  59.723  1.00  0.00     0.014 A 
HETATM   16  C   UNL     1       9.471  30.827  60.892  1.00  0.00     0.001 A 
HETATM   17  C   UNL     1       8.975  31.643  61.905  1.00  0.00     0.002 A 
ENDBRANCH   6   7
ENDBRANCH   1   5
BRANCH   2  18
HETATM   18  C   UNL     1       5.857  27.278  54.169  1.00  0.00     0.227 C 
BRANCH  18  19
HETATM   19  N   UNL     1       6.173  25.867  54.323  1.00  0.00    -0.348 N 
HETATM   20  C   UNL     1       7.269  25.303  53.713  1.00  0.00     0.252 C 
HETATM   21  O   UNL     1       7.980  25.922  52.927  1.00  0.00    -0.268 OA
HETATM   22  H   UNL     1       5.466  25.273  54.739  1.00  0.00     0.163 HD
BRANCH  20  23
HETATM   23  C   UNL     1       7.521  23.868  54.007  1.00  0.00     0.032 A 
HETATM   24  C   UNL     1       7.479  23.436  55.340  1.00  0.00     0.020 A 
HETATM   25  C   UNL     1       7.694  22.091  55.646  1.00  0.00     0.043 A 
HETATM   26  C   UNL     1       7.938  21.185  54.618  1.00  0.00     0.116 A 
HETATM   27  F   UNL     1       8.137  19.894  54.912  1.00  0.00    -0.206 F 
HETATM   28  C   UNL     1       7.967  21.597  53.290  1.00  0.00     0.043 A 
HETATM   29  C   UNL     1       7.756  22.942  52.979  1.00  0.00     0.020 A 
ENDBRANCH  20  23
ENDBRANCH  18  19
ENDBRANCH   2  18
TORSDOF 5
ENDMDL
MODEL 10
REMARK VINA RESULT:      -8.9      1.526      2.590
REMARK  5 active torsions:
REMARK  status: ('A' for Active; 'I' for Inactive)
REMARK    1  A    between atoms: C_7  and  C_8 
REMARK    2  A    between atoms: N_9  and  N_10 
REMARK       I    between atoms: N_10  and  C_11 
REMARK    3  A    between atoms: C_11  and  C_12 
REMARK    4  A    between atoms: C_12  and  N_13 
REMARK       I    between atoms: N_13  and  C_14 
REMARK    5  A    between atoms: C_14  and  C_15 
ROOT
HETATM    1  N   UNL     1       6.737  28.429  56.788  1.00  0.00    -0.246 N 
HETATM    2  C   UNL     1       7.389  29.540  57.304  1.00  0.00     0.255 C 
HETATM    3  O   UNL     1       8.606  29.707  57.348  1.00  0.00    -0.270 OA
HETATM    4  H   UNL     1       5.714  28.439  56.724  1.00  0.00     0.192 HD
ENDROOT
BRANCH   1   5
HETATM    5  N   UNL     1       7.447  27.361  56.328  1.00  0.00    -0.184 NA
HETATM    6  C   UNL     1       6.979  26.200  56.657  1.00  0.00     0.153 C 
BRANCH   6   7
HETATM    7  C   UNL     1       7.668  24.988  56.249  1.00  0.00     0.018 A 
HETATM    8  C   UNL     1       8.536  24.219  57.015  1.00  0.00     0.018 A 
HETATM    9  C   UNL     1       9.016  24.384  58.414  1.00  0.00     0.069 C 
HETATM   10  N   UNL     1       8.949  23.161  56.243  1.00  0.00    -0.358 N 
HETATM   11  H   UNL     1       9.584  22.436  56.547  1.00  0.00     0.166 HD
HETATM   12  C   UNL     1       8.372  23.214  54.998  1.00  0.00     0.043 A 
HETATM   13  C   UNL     1       7.564  24.350  54.967  1.00  0.00     0.004 A 
HETATM   14  C   UNL     1       8.506  22.344  53.909  1.00  0.00     0.030 A 
HETATM   15  C   UNL     1       6.851  24.628  53.780  1.00  0.00     0.014 A 
HETATM   16  C   UNL     1       6.973  23.769  52.681  1.00  0.00     0.001 A 
HETATM   17  C   UNL     1       7.789  22.643  52.748  1.00  0.00     0.002 A 
ENDBRANCH   6   7
ENDBRANCH   1   5
BRANCH   2  18
HETATM   18  C   UNL     1       6.419  30.569  57.885  1.00  0.00     0.227 C 
BRANCH  18  19
HETATM   19  N   UNL     1       6.756  30.980  59.239  1.00  0.00    -0.348 N 
HETATM   20  C   UNL     1       6.477  32.247  59.698  1.00  0.00     0.252 C 
HETATM   21  O   UNL     1       6.027  33.129  58.973  1.00  0.00    -0.268 OA
HETATM   22  H   UNL     1       7.366  30.374  59.773  1.00  0.00     0.163 HD
BRANCH  20  23
HETATM   23  C   UNL     1       6.808  32.518  61.122  1.00  0.00     0.032 A 
HETATM   24  C   UNL     1       5.885  33.226  61.905  1.00  0.00     0.020 A 
HETATM   25  C   UNL     1       6.161  33.481  63.249  1.00  0.00     0.043 A 
HETATM   26  C   UNL     1       7.350  33.018  63.805  1.00  0.00     0.116 A 
HETATM   27  F   UNL     1       7.610  33.257  65.097  1.00  0.00    -0.206 F 
HETATM   28  C   UNL     1       8.267  32.302  63.044  1.00  0.00     0.043 A 
HETATM   29  C   UNL     1       7.998  32.048  61.697  1.00  0.00     0.020 A 
ENDBRANCH  20  23
ENDBRANCH  18  19
ENDBRANCH   2  18
TORSDOF 5
ENDMDL
