MODEL 1
REMARK VINA RESULT:     -10.8      0.000      0.000
REMARK  3 active torsions:
REMARK  status: ('A' for Active; 'I' for Inactive)
REMARK    1  A    between atoms: C_2  and  N_3 
REMARK    2  A    between atoms: C_8  and  C_9 
REMARK       I    between atoms: C_9  and  N_10 
REMARK    3  A    between atoms: N_10  and  C_11 
ROOT
HETATM    1  C   UNL     1       6.196  29.158  56.960  1.00  0.00     0.036 A 
HETATM    2  C   UNL     1       6.443  27.809  56.713  1.00  0.00     0.049 A 
HETATM    3  C   UNL     1       6.114  27.216  55.479  1.00  0.00     0.061 A 
HETATM    4  C   UNL     1       5.550  27.996  54.462  1.00  0.00     0.050 A 
HETATM    5  N   UNL     1       5.285  27.574  53.147  1.00  0.00    -0.324 N 
HETATM    6  C   UNL     1       5.948  26.629  52.409  1.00  0.00     0.245 C 
HETATM    7  O   UNL     1       5.686  26.545  51.207  1.00  0.00    -0.271 OA
HETATM    8  C   UNL     1       7.107  25.875  53.061  1.00  0.00     0.180 C 
HETATM    9  N   UNL     1       6.645  25.160  54.239  1.00  0.00    -0.334 N 
HETATM   10  C   UNL     1       6.259  25.740  55.421  1.00  0.00     0.256 C 
HETATM   11  O   UNL     1       6.033  25.079  56.433  1.00  0.00    -0.267 OA
HETATM   12  C   UNL     1       7.690  24.780  52.158  1.00  0.00     0.037 C 
HETATM   13  C   UNL     1       8.068  23.674  53.134  1.00  0.00     0.022 C 
HETATM   14  C   UNL     1       6.949  23.743  54.160  1.00  0.00     0.127 C 
HETATM   15  C   UNL     1       5.216  29.329  54.749  1.00  0.00     0.033 A 
HETATM   16  C   UNL     1       5.534  29.904  55.985  1.00  0.00     0.032 A 
HETATM   17  H   UNL     1       4.687  28.152  52.568  1.00  0.00     0.169 HD
ENDROOT
BRANCH   1  18
HETATM   18  N   UNL     1       6.558  29.808  58.159  1.00  0.00    -0.323 N 
HETATM   19  C   UNL     1       7.826  30.271  58.476  1.00  0.00     0.256 C 
HETATM   20  O   UNL     1       8.801  30.242  57.733  1.00  0.00    -0.267 OA
HETATM   21  H   UNL     1       5.810  29.982  58.814  1.00  0.00     0.169 HD
BRANCH  19  22
HETATM   22  C   UNL     1       8.009  30.859  59.838  1.00  0.00     0.034 A 
HETATM   23  C   UNL     1       9.094  30.561  60.665  1.00  0.00     0.018 A 
HETATM   24  C   UNL     1       9.204  31.152  61.934  1.00  0.00     0.015 A 
HETATM   25  C   UNL     1       8.208  32.042  62.384  1.00  0.00    -0.008 A 
HETATM   26  C   UNL     1       7.117  32.313  61.555  1.00  0.00     0.045 A 
HETATM   27  C   UNL     1       8.027  32.794  63.573  1.00  0.00     0.031 A 
HETATM   28  N   UNL     1       6.293  33.195  62.233  1.00  0.00    -0.352 N 
HETATM   29  C   UNL     1       7.001  31.733  60.281  1.00  0.00     0.047 A 
HETATM   30  C   UNL     1       6.855  33.504  63.448  1.00  0.00     0.092 A 
BRANCH  28  31
HETATM   31  C   UNL     1       5.049  33.757  61.703  1.00  0.00     0.081 C 
HETATM   32  C   UNL     1       5.022  35.272  61.888  1.00  0.00     0.032 C 
HETATM   33  C   UNL     1       3.792  33.105  62.287  1.00  0.00     0.032 C 
ENDBRANCH  28  31
ENDBRANCH  19  22
ENDBRANCH   1  18
TORSDOF 3
ENDMDL
MODEL 2
REMARK VINA RESULT:     -10.7      2.181      9.740
REMARK  3 active torsions:
REMARK  status: ('A' for Active; 'I' for Inactive)
REMARK    1  A    between atoms: C_2  and  N_3 
REMARK    2  A    between atoms: C_8  and  C_9 
REMARK       I    between atoms: C_9  and  N_10 
REMARK    3  A    between atoms: N_10  and  C_11 
ROOT
HETATM    1  C   UNL     1       6.830  28.540  56.460  1.00  0.00     0.036 A 
HETATM    2  C   UNL     1       7.787  29.165  57.257  1.00  0.00     0.049 A 
HETATM    3  C   UNL     1       7.489  30.335  57.981  1.00  0.00     0.061 A 
HETATM    4  C   UNL     1       6.199  30.877  57.927  1.00  0.00     0.050 A 
HETATM    5  N   UNL     1       5.725  31.960  58.686  1.00  0.00    -0.324 N 
HETATM    6  C   UNL     1       6.118  32.357  59.937  1.00  0.00     0.245 C 
HETATM    7  O   UNL     1       5.441  33.213  60.513  1.00  0.00    -0.271 OA
HETATM    8  C   UNL     1       7.241  31.583  60.629  1.00  0.00     0.180 C 
HETATM    9  N   UNL     1       8.455  31.636  59.832  1.00  0.00    -0.334 N 
HETATM   10  C   UNL     1       8.648  30.993  58.635  1.00  0.00     0.256 C 
HETATM   11  O   UNL     1       9.748  30.943  58.088  1.00  0.00    -0.267 OA
HETATM   12  C   UNL     1       7.645  32.195  61.976  1.00  0.00     0.037 C 
HETATM   13  C   UNL     1       9.150  31.966  62.037  1.00  0.00     0.022 C 
HETATM   14  C   UNL     1       9.573  32.165  60.591  1.00  0.00     0.127 C 
HETATM   15  C   UNL     1       5.268  30.299  57.049  1.00  0.00     0.033 A 
HETATM   16  C   UNL     1       5.580  29.144  56.322  1.00  0.00     0.032 A 
HETATM   17  H   UNL     1       4.851  32.395  58.411  1.00  0.00     0.169 HD
ENDROOT
BRANCH   1  18
HETATM   18  N   UNL     1       7.065  27.337  55.760  1.00  0.00    -0.323 N 
HETATM   19  C   UNL     1       7.449  27.237  54.431  1.00  0.00     0.256 C 
HETATM   20  O   UNL     1       7.705  28.181  53.692  1.00  0.00    -0.267 OA
HETATM   21  H   UNL     1       6.983  26.487  56.298  1.00  0.00     0.169 HD
BRANCH  19  22
HETATM   22  C   UNL     1       7.565  25.859  53.864  1.00  0.00     0.034 A 
HETATM   23  C   UNL     1       7.577  25.590  52.494  1.00  0.00     0.018 A 
HETATM   24  C   UNL     1       7.690  24.270  52.029  1.00  0.00     0.015 A 
HETATM   25  C   UNL     1       7.779  23.207  52.950  1.00  0.00    -0.008 A 
HETATM   26  C   UNL     1       7.742  23.488  54.317  1.00  0.00     0.045 A 
HETATM   27  C   UNL     1       7.908  21.800  52.816  1.00  0.00     0.031 A 
HETATM   28  N   UNL     1       7.833  22.281  54.989  1.00  0.00    -0.352 N 
HETATM   29  C   UNL     1       7.637  24.805  54.792  1.00  0.00     0.047 A 
HETATM   30  C   UNL     1       7.954  21.259  54.080  1.00  0.00     0.092 A 
BRANCH  28  31
HETATM   31  C   UNL     1       7.858  22.133  56.447  1.00  0.00     0.081 C 
HETATM   32  C   UNL     1       8.575  23.315  57.094  1.00  0.00     0.032 C 
HETATM   33  C   UNL     1       8.453  20.800  56.911  1.00  0.00     0.032 C 
ENDBRANCH  28  31
ENDBRANCH  19  22
ENDBRANCH   1  18
TORSDOF 3
ENDMDL
MODEL 3
REMARK VINA RESULT:     -10.2      1.469      1.973
REMARK  3 active torsions:
REMARK  status: ('A' for Active; 'I' for Inactive)
REMARK    1  A    between atoms: C_2  and  N_3 
REMARK    2  A    between atoms: C_8  and  C_9 
REMARK       I    between atoms: C_9  and  N_10 
REMARK    3  A    between atoms: N_10  and  C_11 
ROOT
HETATM    1  C   UNL     1       5.692  30.736  57.886  1.00  0.00     0.036 A 
HETATM    2  C   UNL     1       5.780  29.377  57.587  1.00  0.00     0.049 A 
HETATM    3  C   UNL     1       5.557  28.895  56.284  1.00  0.00     0.061 A 
HETATM    4  C   UNL     1       5.266  29.795  55.251  1.00  0.00     0.050 A 
HETATM    5  N   UNL     1       5.142  29.477  53.887  1.00  0.00    -0.324 N 
HETATM    6  C   UNL     1       5.766  28.476  53.189  1.00  0.00     0.245 C 
HETATM    7  O   UNL     1       5.676  28.487  51.959  1.00  0.00    -0.271 OA
HETATM    8  C   UNL     1       6.697  27.529  53.946  1.00  0.00     0.180 C 
HETATM    9  N   UNL     1       5.969  26.840  54.998  1.00  0.00    -0.334 N 
HETATM   10  C   UNL     1       5.498  27.418  56.150  1.00  0.00     0.256 C 
HETATM   11  O   UNL     1       5.033  26.755  57.074  1.00  0.00    -0.267 OA
HETATM   12  C   UNL     1       7.247  26.401  53.064  1.00  0.00     0.037 C 
HETATM   13  C   UNL     1       7.315  25.208  54.008  1.00  0.00     0.022 C 
HETATM   14  C   UNL     1       6.078  25.398  54.870  1.00  0.00     0.127 C 
HETATM   15  C   UNL     1       5.085  31.149  55.575  1.00  0.00     0.033 A 
HETATM   16  C   UNL     1       5.295  31.615  56.879  1.00  0.00     0.032 A 
HETATM   17  H   UNL     1       4.724  30.163  53.269  1.00  0.00     0.169 HD
ENDROOT
BRANCH   1  18
HETATM   18  N   UNL     1       5.961  31.271  59.164  1.00  0.00    -0.323 N 
HETATM   19  C   UNL     1       7.156  31.851  59.562  1.00  0.00     0.256 C 
HETATM   20  O   UNL     1       8.128  32.045  58.840  1.00  0.00    -0.267 OA
HETATM   21  H   UNL     1       5.194  31.260  59.820  1.00  0.00     0.169 HD
BRANCH  19  22
HETATM   22  C   UNL     1       7.254  32.282  60.989  1.00  0.00     0.034 A 
HETATM   23  C   UNL     1       8.292  31.894  61.840  1.00  0.00     0.018 A 
HETATM   24  C   UNL     1       8.323  32.336  63.172  1.00  0.00     0.015 A 
HETATM   25  C   UNL     1       7.295  33.167  63.660  1.00  0.00    -0.008 A 
HETATM   26  C   UNL     1       6.252  33.528  62.806  1.00  0.00     0.045 A 
HETATM   27  C   UNL     1       7.039  33.778  64.915  1.00  0.00     0.031 A 
HETATM   28  N   UNL     1       5.382  34.326  63.530  1.00  0.00    -0.352 N 
HETATM   29  C   UNL     1       6.215  33.097  61.470  1.00  0.00     0.047 A 
HETATM   30  C   UNL     1       5.870  34.495  64.803  1.00  0.00     0.092 A 
BRANCH  28  31
HETATM   31  C   UNL     1       4.165  34.941  62.996  1.00  0.00     0.081 C 
HETATM   32  C   UNL     1       3.905  36.287  63.668  1.00  0.00     0.032 C 
HETATM   33  C   UNL     1       2.937  34.031  63.081  1.00  0.00     0.032 C 
ENDBRANCH  28  31
ENDBRANCH  19  22
ENDBRANCH   1  18
TORSDOF 3
ENDMDL
MODEL 4
REMARK VINA RESULT:      -9.9      6.626     10.677
REMARK  3 active torsions:
REMARK  status: ('A' for Active; 'I' for Inactive)
REMARK    1  A    between atoms: C_2  and  N_3 
REMARK    2  A    between atoms: C_8  and  C_9 
REMARK       I    between atoms: C_9  and  N_10 
REMARK    3  A    between atoms: N_10  and  C_11 
ROOT
HETATM    1  C   UNL     1       5.683  25.492  52.260  1.00  0.00     0.036 A 
HETATM    2  C   UNL     1       6.402  24.320  52.493  1.00  0.00     0.049 A 
HETATM    3  C   UNL     1       7.228  24.179  53.624  1.00  0.00     0.061 A 
HETATM    4  C   UNL     1       7.317  25.221  54.555  1.00  0.00     0.050 A 
HETATM    5  N   UNL     1       7.998  25.176  55.783  1.00  0.00    -0.324 N 
HETATM    6  C   UNL     1       8.226  24.091  56.589  1.00  0.00     0.245 C 
HETATM    7  O   UNL     1       8.670  24.294  57.722  1.00  0.00    -0.271 OA
HETATM    8  C   UNL     1       7.733  22.721  56.124  1.00  0.00     0.180 C 
HETATM    9  N   UNL     1       8.347  22.367  54.855  1.00  0.00    -0.334 N 
HETATM   10  C   UNL     1       8.074  22.958  53.647  1.00  0.00     0.256 C 
HETATM   11  O   UNL     1       8.503  22.511  52.586  1.00  0.00    -0.267 OA
HETATM   12  C   UNL     1       8.141  21.586  57.072  1.00  0.00     0.037 C 
HETATM   13  C   UNL     1       8.409  20.415  56.135  1.00  0.00     0.022 C 
HETATM   14  C   UNL     1       9.038  21.093  54.930  1.00  0.00     0.127 C 
HETATM   15  C   UNL     1       6.668  26.432  54.267  1.00  0.00     0.033 A 
HETATM   16  C   UNL     1       5.860  26.567  53.131  1.00  0.00     0.032 A 
HETATM   17  H   UNL     1       8.171  26.049  56.270  1.00  0.00     0.169 HD
ENDROOT
BRANCH   1  18
HETATM   18  N   UNL     1       4.801  25.660  51.171  1.00  0.00    -0.323 N 
HETATM   19  C   UNL     1       4.868  26.673  50.226  1.00  0.00     0.256 C 
HETATM   20  O   UNL     1       5.743  27.530  50.162  1.00  0.00    -0.267 OA
HETATM   21  H   UNL     1       4.092  24.950  51.060  1.00  0.00     0.169 HD
BRANCH  19  22
HETATM   22  C   UNL     1       3.782  26.711  49.200  1.00  0.00     0.034 A 
HETATM   23  C   UNL     1       3.443  25.619  48.398  1.00  0.00     0.018 A 
HETATM   24  C   UNL     1       2.410  25.724  47.453  1.00  0.00     0.015 A 
HETATM   25  C   UNL     1       1.718  26.943  47.301  1.00  0.00    -0.008 A 
HETATM   26  C   UNL     1       2.083  28.033  48.093  1.00  0.00     0.045 A 
HETATM   27  C   UNL     1       0.650  27.368  46.469  1.00  0.00     0.031 A 
HETATM   28  N   UNL     1       1.265  29.092  47.739  1.00  0.00    -0.352 N 
HETATM   29  C   UNL     1       3.110  27.936  49.047  1.00  0.00     0.047 A 
HETATM   30  C   UNL     1       0.382  28.684  46.770  1.00  0.00     0.092 A 
BRANCH  28  31
HETATM   31  C   UNL     1       1.301  30.422  48.353  1.00  0.00     0.081 C 
HETATM   32  C   UNL     1      -0.047  31.122  48.196  1.00  0.00     0.032 C 
HETATM   33  C   UNL     1       2.446  31.298  47.837  1.00  0.00     0.032 C 
ENDBRANCH  28  31
ENDBRANCH  19  22
ENDBRANCH   1  18
TORSDOF 3
ENDMDL
MODEL 5
REMARK VINA RESULT:      -9.4      1.693      2.955
REMARK  3 active torsions:
REMARK  status: ('A' for Active; 'I' for Inactive)
REMARK    1  A    between atoms: C_2  and  N_3 
REMARK    2  A    between atoms: C_8  and  C_9 
REMARK       I    between atoms: C_9  and  N_10 
REMARK    3  A    between atoms: N_10  and  C_11 
ROOT
HETATM    1  C   UNL     1       4.509  29.299  55.810  1.00  0.00     0.036 A 
HETATM    2  C   UNL     1       5.092  28.033  55.800  1.00  0.00     0.049 A 
HETATM    3  C   UNL     1       5.050  27.214  54.656  1.00  0.00     0.061 A 
HETATM    4  C   UNL     1       4.436  27.682  53.488  1.00  0.00     0.050 A 
HETATM    5  N   UNL     1       4.425  27.033  52.241  1.00  0.00    -0.324 N 
HETATM    6  C   UNL     1       5.370  26.190  51.715  1.00  0.00     0.245 C 
HETATM    7  O   UNL     1       5.270  25.881  50.525  1.00  0.00    -0.271 OA
HETATM    8  C   UNL     1       6.593  25.845  52.564  1.00  0.00     0.180 C 
HETATM    9  N   UNL     1       6.184  25.205  53.803  1.00  0.00    -0.334 N 
HETATM   10  C   UNL     1       5.544  25.827  54.845  1.00  0.00     0.256 C 
HETATM   11  O   UNL     1       5.368  25.275  55.929  1.00  0.00    -0.267 OA
HETATM   12  C   UNL     1       7.514  24.818  51.893  1.00  0.00     0.037 C 
HETATM   13  C   UNL     1       8.030  23.984  53.058  1.00  0.00     0.022 C 
HETATM   14  C   UNL     1       6.820  23.912  53.974  1.00  0.00     0.127 C 
HETATM   15  C   UNL     1       3.768  28.916  53.533  1.00  0.00     0.033 A 
HETATM   16  C   UNL     1       3.803  29.716  54.682  1.00  0.00     0.032 A 
HETATM   17  H   UNL     1       3.776  27.359  51.534  1.00  0.00     0.169 HD
ENDROOT
BRANCH   1  18
HETATM   18  N   UNL     1       4.572  30.176  56.914  1.00  0.00    -0.323 N 
HETATM   19  C   UNL     1       4.877  31.528  56.855  1.00  0.00     0.256 C 
HETATM   20  O   UNL     1       5.069  32.170  55.828  1.00  0.00    -0.267 OA
HETATM   21  H   UNL     1       4.331  29.780  57.810  1.00  0.00     0.169 HD
BRANCH  19  22
HETATM   22  C   UNL     1       4.969  32.256  58.156  1.00  0.00     0.034 A 
HETATM   23  C   UNL     1       4.071  33.253  58.545  1.00  0.00     0.018 A 
HETATM   24  C   UNL     1       4.216  33.897  59.784  1.00  0.00     0.015 A 
HETATM   25  C   UNL     1       5.281  33.547  60.637  1.00  0.00    -0.008 A 
HETATM   26  C   UNL     1       6.184  32.565  60.226  1.00  0.00     0.045 A 
HETATM   27  C   UNL     1       5.695  33.985  61.922  1.00  0.00     0.031 A 
HETATM   28  N   UNL     1       7.127  32.424  61.231  1.00  0.00    -0.352 N 
HETATM   29  C   UNL     1       6.044  31.909  58.992  1.00  0.00     0.047 A 
HETATM   30  C   UNL     1       6.818  33.270  62.269  1.00  0.00     0.092 A 
BRANCH  28  31
HETATM   31  C   UNL     1       8.241  31.473  61.210  1.00  0.00     0.081 C 
HETATM   32  C   UNL     1       8.466  30.880  62.598  1.00  0.00     0.032 C 
HETATM   33  C   UNL     1       9.534  32.066  60.642  1.00  0.00     0.032 C 
ENDBRANCH  28  31
ENDBRANCH  19  22
ENDBRANCH   1  18
TORSDOF 3
ENDMDL
MODEL 6
REMARK VINA RESULT:      -9.3      6.909     10.377
REMARK  3 active torsions:
REMARK  status: ('A' for Active; 'I' for Inactive)
REMARK    1  A    between atoms: C_2  and  N_3 
REMARK    2  A    between atoms: C_8  and  C_9 
REMARK       I    between atoms: C_9  and  N_10 
REMARK    3  A    between atoms: N_10  and  C_11 
ROOT
HETATM    1  C   UNL     1       4.344  26.343  49.647  1.00  0.00     0.036 A 
HETATM    2  C   UNL     1       3.989  27.588  49.131  1.00  0.00     0.049 A 
HETATM    3  C   UNL     1       3.128  27.705  48.023  1.00  0.00     0.061 A 
HETATM    4  C   UNL     1       2.590  26.553  47.436  1.00  0.00     0.050 A 
HETATM    5  N   UNL     1       1.628  26.520  46.411  1.00  0.00    -0.324 N 
HETATM    6  C   UNL     1       0.639  27.430  46.145  1.00  0.00     0.245 C 
HETATM    7  O   UNL     1      -0.227  27.120  45.324  1.00  0.00    -0.271 OA
HETATM    8  C   UNL     1       0.547  28.683  47.017  1.00  0.00     0.180 C 
HETATM    9  N   UNL     1       1.779  29.448  46.933  1.00  0.00    -0.334 N 
HETATM   10  C   UNL     1       2.986  29.075  47.468  1.00  0.00     0.256 C 
HETATM   11  O   UNL     1       3.950  29.835  47.505  1.00  0.00    -0.267 OA
HETATM   12  C   UNL     1      -0.540  29.659  46.546  1.00  0.00     0.037 C 
HETATM   13  C   UNL     1       0.062  31.029  46.831  1.00  0.00     0.022 C 
HETATM   14  C   UNL     1       1.533  30.816  46.514  1.00  0.00     0.127 C 
HETATM   15  C   UNL     1       3.026  25.302  47.898  1.00  0.00     0.033 A 
HETATM   16  C   UNL     1       3.894  25.196  48.991  1.00  0.00     0.032 A 
HETATM   17  H   UNL     1       1.474  25.644  45.924  1.00  0.00     0.169 HD
ENDROOT
BRANCH   1  18
HETATM   18  N   UNL     1       5.158  26.176  50.787  1.00  0.00    -0.323 N 
HETATM   19  C   UNL     1       5.056  25.146  51.709  1.00  0.00     0.256 C 
HETATM   20  O   UNL     1       4.288  24.193  51.630  1.00  0.00    -0.267 OA
HETATM   21  H   UNL     1       5.900  26.850  50.905  1.00  0.00     0.169 HD
BRANCH  19  22
HETATM   22  C   UNL     1       5.969  25.205  52.891  1.00  0.00     0.034 A 
HETATM   23  C   UNL     1       6.368  26.399  53.496  1.00  0.00     0.018 A 
HETATM   24  C   UNL     1       7.228  26.382  54.606  1.00  0.00     0.015 A 
HETATM   25  C   UNL     1       7.703  25.154  55.107  1.00  0.00    -0.008 A 
HETATM   26  C   UNL     1       7.315  23.969  54.478  1.00  0.00     0.045 A 
HETATM   27  C   UNL     1       8.553  24.796  56.186  1.00  0.00     0.031 A 
HETATM   28  N   UNL     1       7.925  22.925  55.153  1.00  0.00    -0.352 N 
HETATM   29  C   UNL     1       6.449  23.975  53.373  1.00  0.00     0.047 A 
HETATM   30  C   UNL     1       8.659  23.424  56.201  1.00  0.00     0.092 A 
BRANCH  28  31
HETATM   31  C   UNL     1       7.758  21.506  54.830  1.00  0.00     0.081 C 
HETATM   32  C   UNL     1       7.930  20.647  56.081  1.00  0.00     0.032 C 
HETATM   33  C   UNL     1       8.673  21.029  53.699  1.00  0.00     0.032 C 
ENDBRANCH  28  31
ENDBRANCH  19  22
ENDBRANCH   1  18
TORSDOF 3
ENDMDL
MODEL 7
REMARK VINA RESULT:      -9.3      6.047      9.435
REMARK  3 active torsions:
REMARK  status: ('A' for Active; 'I' for Inactive)
REMARK    1  A    between atoms: C_2  and  N_3 
REMARK    2  A    between atoms: C_8  and  C_9 
REMARK       I    between atoms: C_9  and  N_10 
REMARK    3  A    between atoms: N_10  and  C_11 
ROOT
HETATM    1  C   UNL     1       5.199  27.012  50.754  1.00  0.00     0.036 A 
HETATM    2  C   UNL     1       5.146  28.356  50.389  1.00  0.00     0.049 A 
HETATM    3  C   UNL     1       4.450  28.778  49.240  1.00  0.00     0.061 A 
HETATM    4  C   UNL     1       3.771  27.838  48.454  1.00  0.00     0.050 A 
HETATM    5  N   UNL     1       2.939  28.124  47.358  1.00  0.00    -0.324 N 
HETATM    6  C   UNL     1       2.176  29.241  47.140  1.00  0.00     0.245 C 
HETATM    7  O   UNL     1       1.362  29.214  46.213  1.00  0.00    -0.271 OA
HETATM    8  C   UNL     1       2.227  30.372  48.168  1.00  0.00     0.180 C 
HETATM    9  N   UNL     1       3.583  30.877  48.295  1.00  0.00    -0.334 N 
HETATM   10  C   UNL     1       4.631  30.204  48.872  1.00  0.00     0.256 C 
HETATM   11  O   UNL     1       5.713  30.744  49.096  1.00  0.00    -0.267 OA
HETATM   12  C   UNL     1       1.404  31.596  47.749  1.00  0.00     0.037 C 
HETATM   13  C   UNL     1       2.219  32.772  48.272  1.00  0.00     0.022 C 
HETATM   14  C   UNL     1       3.649  32.306  48.052  1.00  0.00     0.127 C 
HETATM   15  C   UNL     1       3.908  26.478  48.772  1.00  0.00     0.033 A 
HETATM   16  C   UNL     1       4.616  26.068  49.909  1.00  0.00     0.032 A 
HETATM   17  H   UNL     1       2.676  27.363  46.742  1.00  0.00     0.169 HD
ENDROOT
BRANCH   1  18
HETATM   18  N   UNL     1       5.837  26.548  51.924  1.00  0.00    -0.323 N 
HETATM   19  C   UNL     1       5.353  26.686  53.216  1.00  0.00     0.256 C 
HETATM   20  O   UNL     1       4.269  27.171  53.523  1.00  0.00    -0.267 OA
HETATM   21  H   UNL     1       6.697  26.037  51.789  1.00  0.00     0.169 HD
BRANCH  19  22
HETATM   22  C   UNL     1       6.230  26.192  54.321  1.00  0.00     0.034 A 
HETATM   23  C   UNL     1       6.718  27.012  55.341  1.00  0.00     0.018 A 
HETATM   24  C   UNL     1       7.538  26.481  56.350  1.00  0.00     0.015 A 
HETATM   25  C   UNL     1       7.882  25.115  56.329  1.00  0.00    -0.008 A 
HETATM   26  C   UNL     1       7.406  24.312  55.291  1.00  0.00     0.045 A 
HETATM   27  C   UNL     1       8.660  24.285  57.177  1.00  0.00     0.031 A 
HETATM   28  N   UNL     1       7.895  23.033  55.500  1.00  0.00    -0.352 N 
HETATM   29  C   UNL     1       6.580  24.831  54.281  1.00  0.00     0.047 A 
HETATM   30  C   UNL     1       8.639  23.012  56.655  1.00  0.00     0.092 A 
BRANCH  28  31
HETATM   31  C   UNL     1       7.608  21.875  54.651  1.00  0.00     0.081 C 
HETATM   32  C   UNL     1       7.741  20.579  55.448  1.00  0.00     0.032 C 
HETATM   33  C   UNL     1       8.455  21.832  53.376  1.00  0.00     0.032 C 
ENDBRANCH  28  31
ENDBRANCH  19  22
ENDBRANCH   1  18
TORSDOF 3
ENDMDL
MODEL 8
REMARK VINA RESULT:      -8.9      5.613      9.736
REMARK  3 active torsions:
REMARK  status: ('A' for Active; 'I' for Inactive)
REMARK    1  A    between atoms: C_2  and  N_3 
REMARK    2  A    between atoms: C_8  and  C_9 
REMARK       I    between atoms: C_9  and  N_10 
REMARK    3  A    between atoms: N_10  and  C_11 
ROOT
HETATM    1  C   UNL     1       4.402  26.633  49.177  1.00  0.00     0.036 A 
HETATM    2  C   UNL     1       4.418  28.015  48.996  1.00  0.00     0.049 A 
HETATM    3  C   UNL     1       3.569  28.643  48.065  1.00  0.00     0.061 A 
HETATM    4  C   UNL     1       2.667  27.875  47.318  1.00  0.00     0.050 A 
HETATM    5  N   UNL     1       1.681  28.372  46.448  1.00  0.00    -0.324 N 
HETATM    6  C   UNL     1       1.007  29.563  46.520  1.00  0.00     0.245 C 
HETATM    7  O   UNL     1       0.039  29.726  45.774  1.00  0.00    -0.271 OA
HETATM    8  C   UNL     1       1.360  30.533  47.648  1.00  0.00     0.180 C 
HETATM    9  N   UNL     1       2.760  30.912  47.568  1.00  0.00    -0.334 N 
HETATM   10  C   UNL     1       3.823  30.089  47.844  1.00  0.00     0.256 C 
HETATM   11  O   UNL     1       4.976  30.509  47.917  1.00  0.00    -0.267 OA
HETATM   12  C   UNL     1       0.601  31.863  47.549  1.00  0.00     0.037 C 
HETATM   13  C   UNL     1       1.613  32.890  48.042  1.00  0.00     0.022 C 
HETATM   14  C   UNL     1       2.924  32.352  47.493  1.00  0.00     0.127 C 
HETATM   15  C   UNL     1       2.723  26.477  47.435  1.00  0.00     0.033 A 
HETATM   16  C   UNL     1       3.581  25.862  48.354  1.00  0.00     0.032 A 
HETATM   17  H   UNL     1       1.235  27.725  45.807  1.00  0.00     0.169 HD
ENDROOT
BRANCH   1  18
HETATM   18  N   UNL     1       5.193  25.964  50.136  1.00  0.00    -0.323 N 
HETATM   19  C   UNL     1       5.288  26.297  51.479  1.00  0.00     0.256 C 
HETATM   20  O   UNL     1       4.644  27.177  52.041  1.00  0.00    -0.267 OA
HETATM   21  H   UNL     1       5.695  25.152  49.809  1.00  0.00     0.169 HD
BRANCH  19  22
HETATM   22  C   UNL     1       6.250  25.505  52.304  1.00  0.00     0.034 A 
HETATM   23  C   UNL     1       7.148  24.582  51.764  1.00  0.00     0.018 A 
HETATM   24  C   UNL     1       8.026  23.871  52.599  1.00  0.00     0.015 A 
HETATM   25  C   UNL     1       7.993  24.080  53.992  1.00  0.00    -0.008 A 
HETATM   26  C   UNL     1       7.074  24.989  54.520  1.00  0.00     0.045 A 
HETATM   27  C   UNL     1       8.729  23.547  55.082  1.00  0.00     0.031 A 
HETATM   28  N   UNL     1       7.243  24.994  55.895  1.00  0.00    -0.352 N 
HETATM   29  C   UNL     1       6.197  25.710  53.694  1.00  0.00     0.047 A 
HETATM   30  C   UNL     1       8.260  24.136  56.234  1.00  0.00     0.092 A 
BRANCH  28  31
HETATM   31  C   UNL     1       6.490  25.835  56.829  1.00  0.00     0.081 C 
HETATM   32  C   UNL     1       7.333  26.154  58.062  1.00  0.00     0.032 C 
HETATM   33  C   UNL     1       5.134  25.242  57.222  1.00  0.00     0.032 C 
ENDBRANCH  28  31
ENDBRANCH  19  22
ENDBRANCH   1  18
TORSDOF 3
ENDMDL
MODEL 9
REMARK VINA RESULT:      -8.6      6.126     10.605
REMARK  3 active torsions:
REMARK  status: ('A' for Active; 'I' for Inactive)
REMARK    1  A    between atoms: C_2  and  N_3 
REMARK    2  A    between atoms: C_8  and  C_9 
REMARK       I    between atoms: C_9  and  N_10 
REMARK    3  A    between atoms: N_10  and  C_11 
ROOT
HETATM    1  C   UNL     1       2.933  27.551  49.190  1.00  0.00     0.036 A 
HETATM    2  C   UNL     1       2.252  28.653  48.675  1.00  0.00     0.049 A 
HETATM    3  C   UNL     1       1.530  28.573  47.470  1.00  0.00     0.061 A 
HETATM    4  C   UNL     1       1.465  27.357  46.778  1.00  0.00     0.050 A 
HETATM    5  N   UNL     1       0.688  27.095  45.636  1.00  0.00    -0.324 N 
HETATM    6  C   UNL     1      -0.507  27.660  45.275  1.00  0.00     0.245 C 
HETATM    7  O   UNL     1      -1.127  27.152  44.338  1.00  0.00    -0.271 OA
HETATM    8  C   UNL     1      -1.099  28.749  46.170  1.00  0.00     0.180 C 
HETATM    9  N   UNL     1      -0.182  29.871  46.273  1.00  0.00    -0.334 N 
HETATM   10  C   UNL     1       1.013  29.863  46.948  1.00  0.00     0.256 C 
HETATM   11  O   UNL     1       1.667  30.886  47.136  1.00  0.00    -0.267 OA
HETATM   12  C   UNL     1      -2.384  29.360  45.596  1.00  0.00     0.037 C 
HETATM   13  C   UNL     1      -2.297  30.825  46.003  1.00  0.00     0.022 C 
HETATM   14  C   UNL     1      -0.811  31.117  45.873  1.00  0.00     0.127 C 
HETATM   15  C   UNL     1       2.230  26.278  47.250  1.00  0.00     0.033 A 
HETATM   16  C   UNL     1       2.957  26.374  48.443  1.00  0.00     0.032 A 
HETATM   17  H   UNL     1       0.883  26.255  45.104  1.00  0.00     0.169 HD
ENDROOT
BRANCH   1  18
HETATM   18  N   UNL     1       3.623  27.569  50.421  1.00  0.00    -0.323 N 
HETATM   19  C   UNL     1       4.997  27.464  50.578  1.00  0.00     0.256 C 
HETATM   20  O   UNL     1       5.815  27.409  49.665  1.00  0.00    -0.267 OA
HETATM   21  H   UNL     1       3.059  27.713  51.245  1.00  0.00     0.169 HD
BRANCH  19  22
HETATM   22  C   UNL     1       5.515  27.423  51.978  1.00  0.00     0.034 A 
HETATM   23  C   UNL     1       5.582  28.546  52.807  1.00  0.00     0.018 A 
HETATM   24  C   UNL     1       6.080  28.436  54.115  1.00  0.00     0.015 A 
HETATM   25  C   UNL     1       6.529  27.189  54.593  1.00  0.00    -0.008 A 
HETATM   26  C   UNL     1       6.479  26.080  53.747  1.00  0.00     0.045 A 
HETATM   27  C   UNL     1       7.066  26.748  55.831  1.00  0.00     0.031 A 
HETATM   28  N   UNL     1       6.984  25.000  54.451  1.00  0.00    -0.352 N 
HETATM   29  C   UNL     1       5.976  26.177  52.439  1.00  0.00     0.047 A 
HETATM   30  C   UNL     1       7.321  25.400  55.721  1.00  0.00     0.092 A 
BRANCH  28  31
HETATM   31  C   UNL     1       7.083  23.634  53.933  1.00  0.00     0.081 C 
HETATM   32  C   UNL     1       7.405  22.655  55.061  1.00  0.00     0.032 C 
HETATM   33  C   UNL     1       8.075  23.493  52.776  1.00  0.00     0.032 C 
ENDBRANCH  28  31
ENDBRANCH  19  22
ENDBRANCH   1  18
TORSDOF 3
ENDMDL
MODEL 10
REMARK VINA RESULT:      -8.5      3.505      5.793
REMARK  3 active torsions:
REMARK  status: ('A' for Active; 'I' for Inactive)
REMARK    1  A    between atoms: C_2  and  N_3 
REMARK    2  A    between atoms: C_8  and  C_9 
REMARK       I    between atoms: C_9  and  N_10 
REMARK    3  A    between atoms: N_10  and  C_11 
ROOT
HETATM    1  C   UNL     1       5.994  28.022  52.470  1.00  0.00     0.036 A 
HETATM    2  C   UNL     1       5.552  28.773  51.381  1.00  0.00     0.049 A 
HETATM    3  C   UNL     1       4.974  28.161  50.253  1.00  0.00     0.061 A 
HETATM    4  C   UNL     1       4.811  26.770  50.224  1.00  0.00     0.050 A 
HETATM    5  N   UNL     1       4.145  26.037  49.226  1.00  0.00    -0.324 N 
HETATM    6  C   UNL     1       3.099  26.435  48.435  1.00  0.00     0.245 C 
HETATM    7  O   UNL     1       2.526  25.578  47.759  1.00  0.00    -0.271 OA
HETATM    8  C   UNL     1       2.575  27.863  48.584  1.00  0.00     0.180 C 
HETATM    9  N   UNL     1       3.631  28.821  48.301  1.00  0.00    -0.334 N 
HETATM   10  C   UNL     1       4.722  29.059  49.099  1.00  0.00     0.256 C 
HETATM   11  O   UNL     1       5.495  29.992  48.890  1.00  0.00    -0.267 OA
HETATM   12  C   UNL     1       1.474  28.203  47.571  1.00  0.00     0.037 C 
HETATM   13  C   UNL     1       1.730  29.668  47.241  1.00  0.00     0.022 C 
HETATM   14  C   UNL     1       3.248  29.749  47.253  1.00  0.00     0.127 C 
HETATM   15  C   UNL     1       5.344  26.012  51.278  1.00  0.00     0.033 A 
HETATM   16  C   UNL     1       5.930  26.631  52.389  1.00  0.00     0.032 A 
HETATM   17  H   UNL     1       4.274  25.031  49.201  1.00  0.00     0.169 HD
ENDROOT
BRANCH   1  18
HETATM   18  N   UNL     1       6.528  28.594  53.644  1.00  0.00    -0.323 N 
HETATM   19  C   UNL     1       7.002  27.891  54.741  1.00  0.00     0.256 C 
HETATM   20  O   UNL     1       7.088  26.670  54.821  1.00  0.00    -0.267 OA
HETATM   21  H   UNL     1       6.603  29.600  53.653  1.00  0.00     0.169 HD
BRANCH  19  22
HETATM   22  C   UNL     1       7.451  28.697  55.916  1.00  0.00     0.034 A 
HETATM   23  C   UNL     1       8.714  28.569  56.500  1.00  0.00     0.018 A 
HETATM   24  C   UNL     1       9.071  29.359  57.604  1.00  0.00     0.015 A 
HETATM   25  C   UNL     1       8.147  30.280  58.136  1.00  0.00    -0.008 A 
HETATM   26  C   UNL     1       6.881  30.382  57.558  1.00  0.00     0.045 A 
HETATM   27  C   UNL     1       8.193  31.209  59.208  1.00  0.00     0.031 A 
HETATM   28  N   UNL     1       6.177  31.338  58.271  1.00  0.00    -0.352 N 
HETATM   29  C   UNL     1       6.516  29.601  56.449  1.00  0.00     0.047 A 
HETATM   30  C   UNL     1       6.979  31.855  59.258  1.00  0.00     0.092 A 
BRANCH  28  31
HETATM   31  C   UNL     1       4.809  31.769  57.971  1.00  0.00     0.081 C 
HETATM   32  C   UNL     1       4.816  32.902  56.946  1.00  0.00     0.032 C 
HETATM   33  C   UNL     1       4.007  32.153  59.218  1.00  0.00     0.032 C 
ENDBRANCH  28  31
ENDBRANCH  19  22
ENDBRANCH   1  18
TORSDOF 3
ENDMDL
