MODEL 1
REMARK VINA RESULT:      -9.4      0.000      0.000
REMARK  6 active torsions:
REMARK  status: ('A' for Active; 'I' for Inactive)
REMARK    1  A    between atoms: C_3  and  C_4 
REMARK       I    between atoms: C_4  and  N_5 
REMARK    2  A    between atoms: N_5  and  C_6 
REMARK    3  A    between atoms: C_6  and  C_7 
REMARK    4  A    between atoms: C_6  and  C_22 
REMARK       I    between atoms: C_7  and  N_8 
REMARK    5  A    between atoms: N_8  and  C_9 
REMARK    6  A    between atoms: C_11  and  C_12 
ROOT
HETATM    1  C   UNL     1       7.331  28.166  57.423  1.00  0.00     0.245 C 
HETATM    2  N   UNL     1       7.437  29.543  57.437  1.00  0.00    -0.325 N 
HETATM    3  O   UNL     1       7.959  27.384  58.135  1.00  0.00    -0.271 OA
HETATM    4  H   UNL     1       6.971  30.023  56.663  1.00  0.00     0.169 HD
ENDROOT
BRANCH   1   5
HETATM    5  C   UNL     1       6.274  27.625  56.421  1.00  0.00     0.180 C 
BRANCH   5   6
HETATM    6  N   UNL     1       6.808  26.515  55.627  1.00  0.00    -0.343 N 
HETATM    7  C   UNL     1       6.435  25.200  55.784  1.00  0.00     0.252 C 
HETATM    8  O   UNL     1       5.572  24.843  56.578  1.00  0.00    -0.268 OA
HETATM    9  H   UNL     1       7.649  26.706  55.099  1.00  0.00     0.163 HD
BRANCH   7  10
HETATM   10  C   UNL     1       7.188  24.197  54.979  1.00  0.00     0.037 A 
HETATM   11  C   UNL     1       6.949  23.930  53.614  1.00  0.00    -0.046 A 
HETATM   12  C   UNL     1       5.855  24.585  52.816  1.00  0.00     0.049 C 
HETATM   13  C   UNL     1       7.774  22.998  52.959  1.00  0.00     0.007 A 
HETATM   14  C   UNL     1       8.774  22.310  53.648  1.00  0.00     0.001 A 
HETATM   15  C   UNL     1       8.970  22.542  55.005  1.00  0.00     0.001 A 
HETATM   16  C   UNL     1       8.182  23.481  55.668  1.00  0.00     0.017 A 
ENDBRANCH   7  10
ENDBRANCH   5   6
BRANCH   5  17
HETATM   17  C   UNL     1       5.594  28.731  55.575  1.00  0.00     0.009 C 
HETATM   18  C   UNL     1       5.720  28.436  54.076  1.00  0.00     0.012 C 
HETATM   19  C   UNL     1       4.108  28.875  55.931  1.00  0.00     0.012 C 
ENDBRANCH   5  17
ENDBRANCH   1   5
BRANCH   2  20
HETATM   20  C   UNL     1       8.133  30.357  58.349  1.00  0.00     0.035 A 
HETATM   21  C   UNL     1       7.598  30.817  59.557  1.00  0.00     0.042 A 
HETATM   22  C   UNL     1       8.336  31.657  60.412  1.00  0.00    -0.021 A 
HETATM   23  C   UNL     1       9.621  32.048  60.014  1.00  0.00     0.012 A 
HETATM   24  C   UNL     1      10.165  31.594  58.811  1.00  0.00     0.003 A 
HETATM   25  C   UNL     1       9.427  30.745  57.989  1.00  0.00     0.029 A 
BRANCH  22  26
HETATM   26  C   UNL     1       7.762  32.096  61.681  1.00  0.00     0.010 A 
HETATM   27  C   UNL     1       8.372  32.350  62.937  1.00  0.00     0.152 A 
HETATM   28  N   UNL     1       7.505  32.760  63.868  1.00  0.00    -0.187 NA
HETATM   29  N   UNL     1       6.335  32.778  63.215  1.00  0.00    -0.289 N 
HETATM   30  H   UNL     1       5.506  33.070  63.722  1.00  0.00     0.188 HD
HETATM   31  C   UNL     1       6.433  32.391  61.909  1.00  0.00     0.123 A 
ENDBRANCH  22  26
ENDBRANCH   2  20
TORSDOF 6
ENDMDL
MODEL 2
REMARK VINA RESULT:      -9.4      1.669      2.228
REMARK  6 active torsions:
REMARK  status: ('A' for Active; 'I' for Inactive)
REMARK    1  A    between atoms: C_3  and  C_4 
REMARK       I    between atoms: C_4  and  N_5 
REMARK    2  A    between atoms: N_5  and  C_6 
REMARK    3  A    between atoms: C_6  and  C_7 
REMARK    4  A    between atoms: C_6  and  C_22 
REMARK       I    between atoms: C_7  and  N_8 
REMARK    5  A    between atoms: N_8  and  C_9 
REMARK    6  A    between atoms: C_11  and  C_12 
ROOT
HETATM    1  C   UNL     1       7.334  26.630  57.329  1.00  0.00     0.245 C 
HETATM    2  N   UNL     1       7.805  27.785  56.737  1.00  0.00    -0.325 N 
HETATM    3  O   UNL     1       7.663  26.196  58.432  1.00  0.00    -0.271 OA
HETATM    4  H   UNL     1       7.557  27.902  55.752  1.00  0.00     0.169 HD
ENDROOT
BRANCH   1   5
HETATM    5  C   UNL     1       6.267  25.879  56.487  1.00  0.00     0.180 C 
BRANCH   5   6
HETATM    6  N   UNL     1       6.669  24.495  56.223  1.00  0.00    -0.343 N 
HETATM    7  C   UNL     1       7.897  24.126  55.728  1.00  0.00     0.252 C 
HETATM    8  O   UNL     1       8.797  24.930  55.509  1.00  0.00    -0.268 OA
HETATM    9  H   UNL     1       5.925  23.811  56.196  1.00  0.00     0.163 HD
BRANCH   7  10
HETATM   10  C   UNL     1       8.073  22.683  55.396  1.00  0.00     0.037 A 
HETATM   11  C   UNL     1       7.962  22.146  54.096  1.00  0.00    -0.046 A 
HETATM   12  C   UNL     1       7.587  22.959  52.887  1.00  0.00     0.049 C 
HETATM   13  C   UNL     1       8.211  20.773  53.915  1.00  0.00     0.007 A 
HETATM   14  C   UNL     1       8.510  19.945  54.997  1.00  0.00     0.001 A 
HETATM   15  C   UNL     1       8.568  20.473  56.283  1.00  0.00     0.001 A 
HETATM   16  C   UNL     1       8.352  21.835  56.482  1.00  0.00     0.017 A 
ENDBRANCH   7  10
ENDBRANCH   5   6
BRANCH   5  17
HETATM   17  C   UNL     1       5.813  26.653  55.223  1.00  0.00     0.009 C 
HETATM   18  C   UNL     1       5.297  25.694  54.143  1.00  0.00     0.012 C 
HETATM   19  C   UNL     1       4.713  27.671  55.552  1.00  0.00     0.012 C 
ENDBRANCH   5  17
ENDBRANCH   1   5
BRANCH   2  20
HETATM   20  C   UNL     1       8.609  28.793  57.302  1.00  0.00     0.035 A 
HETATM   21  C   UNL     1       8.282  29.496  58.466  1.00  0.00     0.042 A 
HETATM   22  C   UNL     1       9.114  30.517  58.963  1.00  0.00    -0.021 A 
HETATM   23  C   UNL     1      10.277  30.834  58.247  1.00  0.00     0.012 A 
HETATM   24  C   UNL     1      10.613  30.137  57.085  1.00  0.00     0.003 A 
HETATM   25  C   UNL     1       9.787  29.115  56.623  1.00  0.00     0.029 A 
BRANCH  22  26
HETATM   26  C   UNL     1       8.762  31.213  60.197  1.00  0.00     0.010 A 
HETATM   27  C   UNL     1       7.927  32.339  60.420  1.00  0.00     0.152 A 
HETATM   28  N   UNL     1       7.837  32.677  61.711  1.00  0.00    -0.187 NA
HETATM   29  N   UNL     1       8.607  31.767  62.323  1.00  0.00    -0.289 N 
HETATM   30  H   UNL     1       8.693  31.814  63.333  1.00  0.00     0.188 HD
HETATM   31  C   UNL     1       9.182  30.873  61.467  1.00  0.00     0.123 A 
ENDBRANCH  22  26
ENDBRANCH   2  20
TORSDOF 6
ENDMDL
MODEL 3
REMARK VINA RESULT:      -9.3      1.496      2.300
REMARK  6 active torsions:
REMARK  status: ('A' for Active; 'I' for Inactive)
REMARK    1  A    between atoms: C_3  and  C_4 
REMARK       I    between atoms: C_4  and  N_5 
REMARK    2  A    between atoms: N_5  and  C_6 
REMARK    3  A    between atoms: C_6  and  C_7 
REMARK    4  A    between atoms: C_6  and  C_22 
REMARK       I    between atoms: C_7  and  N_8 
REMARK    5  A    between atoms: N_8  and  C_9 
REMARK    6  A    between atoms: C_11  and  C_12 
ROOT
HETATM    1  C   UNL     1       8.039  27.104  56.664  1.00  0.00     0.245 C 
HETATM    2  N   UNL     1       8.342  28.430  56.423  1.00  0.00    -0.325 N 
HETATM    3  O   UNL     1       8.369  26.454  57.655  1.00  0.00    -0.271 OA
HETATM    4  H   UNL     1       8.138  28.759  55.476  1.00  0.00     0.169 HD
ENDROOT
BRANCH   1   5
HETATM    5  C   UNL     1       7.167  26.447  55.560  1.00  0.00     0.180 C 
BRANCH   5   6
HETATM    6  N   UNL     1       7.679  25.124  55.189  1.00  0.00    -0.343 N 
HETATM    7  C   UNL     1       6.888  24.069  54.799  1.00  0.00     0.252 C 
HETATM    8  O   UNL     1       5.672  24.158  54.676  1.00  0.00    -0.268 OA
HETATM    9  H   UNL     1       8.635  24.926  55.451  1.00  0.00     0.163 HD
BRANCH   7  10
HETATM   10  C   UNL     1       7.578  22.764  54.594  1.00  0.00     0.037 A 
HETATM   11  C   UNL     1       8.172  22.006  55.627  1.00  0.00    -0.046 A 
HETATM   12  C   UNL     1       8.238  22.458  57.060  1.00  0.00     0.049 C 
HETATM   13  C   UNL     1       8.739  20.760  55.302  1.00  0.00     0.007 A 
HETATM   14  C   UNL     1       8.765  20.301  53.985  1.00  0.00     0.001 A 
HETATM   15  C   UNL     1       8.222  21.076  52.966  1.00  0.00     0.001 A 
HETATM   16  C   UNL     1       7.631  22.301  53.269  1.00  0.00     0.017 A 
ENDBRANCH   7  10
ENDBRANCH   5   6
BRANCH   5  17
HETATM   17  C   UNL     1       6.889  27.375  54.350  1.00  0.00     0.009 C 
HETATM   18  C   UNL     1       7.508  26.807  53.066  1.00  0.00     0.012 C 
HETATM   19  C   UNL     1       5.384  27.575  54.130  1.00  0.00     0.012 C 
ENDBRANCH   5  17
ENDBRANCH   1   5
BRANCH   2  20
HETATM   20  C   UNL     1       8.929  29.366  57.296  1.00  0.00     0.035 A 
HETATM   21  C   UNL     1       8.381  29.740  58.528  1.00  0.00     0.042 A 
HETATM   22  C   UNL     1       9.001  30.707  59.341  1.00  0.00    -0.021 A 
HETATM   23  C   UNL     1      10.177  31.312  58.877  1.00  0.00     0.012 A 
HETATM   24  C   UNL     1      10.732  30.945  57.650  1.00  0.00     0.003 A 
HETATM   25  C   UNL     1      10.115  29.969  56.870  1.00  0.00     0.029 A 
BRANCH  22  26
HETATM   26  C   UNL     1       8.422  31.055  60.635  1.00  0.00     0.010 A 
HETATM   27  C   UNL     1       7.235  31.762  60.961  1.00  0.00     0.152 A 
HETATM   28  N   UNL     1       7.031  31.866  62.277  1.00  0.00    -0.187 NA
HETATM   29  N   UNL     1       8.080  31.222  62.805  1.00  0.00    -0.289 N 
HETATM   30  H   UNL     1       8.146  31.159  63.816  1.00  0.00     0.188 HD
HETATM   31  C   UNL     1       8.939  30.720  61.870  1.00  0.00     0.123 A 
ENDBRANCH  22  26
ENDBRANCH   2  20
TORSDOF 6
ENDMDL
MODEL 4
REMARK VINA RESULT:      -9.3      2.582      8.825
REMARK  6 active torsions:
REMARK  status: ('A' for Active; 'I' for Inactive)
REMARK    1  A    between atoms: C_3  and  C_4 
REMARK       I    between atoms: C_4  and  N_5 
REMARK    2  A    between atoms: N_5  and  C_6 
REMARK    3  A    between atoms: C_6  and  C_7 
REMARK    4  A    between atoms: C_6  and  C_22 
REMARK       I    between atoms: C_7  and  N_8 
REMARK    5  A    between atoms: N_8  and  C_9 
REMARK    6  A    between atoms: C_11  and  C_12 
ROOT
HETATM    1  C   UNL     1       7.255  27.962  54.508  1.00  0.00     0.245 C 
HETATM    2  N   UNL     1       6.782  26.683  54.731  1.00  0.00    -0.325 N 
HETATM    3  O   UNL     1       8.254  28.260  53.854  1.00  0.00    -0.271 OA
HETATM    4  H   UNL     1       6.045  26.609  55.436  1.00  0.00     0.169 HD
ENDROOT
BRANCH   1   5
HETATM    5  C   UNL     1       6.376  29.077  55.135  1.00  0.00     0.180 C 
BRANCH   5   6
HETATM    6  N   UNL     1       7.126  29.859  56.123  1.00  0.00    -0.343 N 
HETATM    7  C   UNL     1       7.770  29.318  57.211  1.00  0.00     0.252 C 
HETATM    8  O   UNL     1       7.818  28.112  57.425  1.00  0.00    -0.268 OA
HETATM    9  H   UNL     1       6.967  30.857  56.117  1.00  0.00     0.163 HD
BRANCH   7  10
HETATM   10  C   UNL     1       8.363  30.285  58.178  1.00  0.00     0.037 A 
HETATM   11  C   UNL     1       9.710  30.706  58.157  1.00  0.00    -0.046 A 
HETATM   12  C   UNL     1      10.734  30.178  57.189  1.00  0.00     0.049 C 
HETATM   13  C   UNL     1      10.126  31.670  59.094  1.00  0.00     0.007 A 
HETATM   14  C   UNL     1       9.246  32.165  60.057  1.00  0.00     0.001 A 
HETATM   15  C   UNL     1       7.933  31.708  60.103  1.00  0.00     0.001 A 
HETATM   16  C   UNL     1       7.494  30.773  59.168  1.00  0.00     0.017 A 
ENDBRANCH   7  10
ENDBRANCH   5   6
BRANCH   5  17
HETATM   17  C   UNL     1       5.001  28.575  55.644  1.00  0.00     0.009 C 
HETATM   18  C   UNL     1       4.477  29.460  56.782  1.00  0.00     0.012 C 
HETATM   19  C   UNL     1       3.961  28.546  54.517  1.00  0.00     0.012 C 
ENDBRANCH   5  17
ENDBRANCH   1   5
BRANCH   2  20
HETATM   20  C   UNL     1       7.211  25.477  54.146  1.00  0.00     0.035 A 
HETATM   21  C   UNL     1       7.573  24.338  54.873  1.00  0.00     0.042 A 
HETATM   22  C   UNL     1       8.026  23.171  54.229  1.00  0.00    -0.021 A 
HETATM   23  C   UNL     1       8.131  23.182  52.832  1.00  0.00     0.012 A 
HETATM   24  C   UNL     1       7.772  24.312  52.096  1.00  0.00     0.003 A 
HETATM   25  C   UNL     1       7.305  25.450  52.752  1.00  0.00     0.029 A 
BRANCH  22  26
HETATM   26  C   UNL     1       8.368  21.988  55.013  1.00  0.00     0.010 A 
HETATM   27  C   UNL     1       8.370  21.773  56.416  1.00  0.00     0.152 A 
HETATM   28  N   UNL     1       8.732  20.533  56.756  1.00  0.00    -0.187 NA
HETATM   29  N   UNL     1       8.958  19.941  55.575  1.00  0.00    -0.289 N 
HETATM   30  H   UNL     1       9.246  18.968  55.572  1.00  0.00     0.188 HD
HETATM   31  C   UNL     1       8.756  20.765  54.505  1.00  0.00     0.123 A 
ENDBRANCH  22  26
ENDBRANCH   2  20
TORSDOF 6
ENDMDL
MODEL 5
REMARK VINA RESULT:      -9.1      4.845      8.289
REMARK  6 active torsions:
REMARK  status: ('A' for Active; 'I' for Inactive)
REMARK    1  A    between atoms: C_3  and  C_4 
REMARK       I    between atoms: C_4  and  N_5 
REMARK    2  A    between atoms: N_5  and  C_6 
REMARK    3  A    between atoms: C_6  and  C_7 
REMARK    4  A    between atoms: C_6  and  C_22 
REMARK       I    between atoms: C_7  and  N_8 
REMARK    5  A    between atoms: N_8  and  C_9 
REMARK    6  A    between atoms: C_11  and  C_12 
ROOT
HETATM    1  C   UNL     1       6.754  27.028  54.777  1.00  0.00     0.245 C 
HETATM    2  N   UNL     1       5.670  26.572  54.053  1.00  0.00    -0.325 N 
HETATM    3  O   UNL     1       7.407  28.044  54.541  1.00  0.00    -0.271 OA
HETATM    4  H   UNL     1       5.358  25.626  54.286  1.00  0.00     0.169 HD
ENDROOT
BRANCH   1   5
HETATM    5  C   UNL     1       7.102  26.152  56.011  1.00  0.00     0.180 C 
BRANCH   5   6
HETATM    6  N   UNL     1       7.270  24.744  55.639  1.00  0.00    -0.343 N 
HETATM    7  C   UNL     1       8.322  23.956  56.044  1.00  0.00     0.252 C 
HETATM    8  O   UNL     1       9.196  24.353  56.806  1.00  0.00    -0.268 OA
HETATM    9  H   UNL     1       6.703  24.414  54.870  1.00  0.00     0.163 HD
BRANCH   7  10
HETATM   10  C   UNL     1       8.393  22.590  55.452  1.00  0.00     0.037 A 
HETATM   11  C   UNL     1       8.331  22.318  54.068  1.00  0.00    -0.046 A 
HETATM   12  C   UNL     1       8.119  23.375  53.019  1.00  0.00     0.049 C 
HETATM   13  C   UNL     1       8.471  20.985  53.641  1.00  0.00     0.007 A 
HETATM   14  C   UNL     1       8.615  19.944  54.559  1.00  0.00     0.001 A 
HETATM   15  C   UNL     1       8.626  20.215  55.923  1.00  0.00     0.001 A 
HETATM   16  C   UNL     1       8.516  21.532  56.367  1.00  0.00     0.017 A 
ENDBRANCH   7  10
ENDBRANCH   5   6
BRANCH   5  17
HETATM   17  C   UNL     1       6.156  26.373  57.219  1.00  0.00     0.009 C 
HETATM   18  C   UNL     1       5.571  27.791  57.210  1.00  0.00     0.012 C 
HETATM   19  C   UNL     1       5.004  25.359  57.223  1.00  0.00     0.012 C 
ENDBRANCH   5  17
ENDBRANCH   1   5
BRANCH   2  20
HETATM   20  C   UNL     1       4.972  27.222  53.018  1.00  0.00     0.035 A 
HETATM   21  C   UNL     1       5.267  27.072  51.659  1.00  0.00     0.042 A 
HETATM   22  C   UNL     1       4.552  27.776  50.673  1.00  0.00    -0.021 A 
HETATM   23  C   UNL     1       3.545  28.659  51.084  1.00  0.00     0.012 A 
HETATM   24  C   UNL     1       3.242  28.816  52.438  1.00  0.00     0.003 A 
HETATM   25  C   UNL     1       3.947  28.092  53.398  1.00  0.00     0.029 A 
BRANCH  22  26
HETATM   26  C   UNL     1       4.863  27.576  49.260  1.00  0.00     0.010 A 
HETATM   27  C   UNL     1       4.498  26.535  48.368  1.00  0.00     0.152 A 
HETATM   28  N   UNL     1       4.967  26.716  47.130  1.00  0.00    -0.187 NA
HETATM   29  N   UNL     1       5.630  27.877  47.217  1.00  0.00    -0.289 N 
HETATM   30  H   UNL     1       6.079  28.237  46.381  1.00  0.00     0.188 HD
HETATM   31  C   UNL     1       5.599  28.431  48.464  1.00  0.00     0.123 A 
ENDBRANCH  22  26
ENDBRANCH   2  20
TORSDOF 6
ENDMDL
MODEL 6
REMARK VINA RESULT:      -9.1      4.640      8.944
REMARK  6 active torsions:
REMARK  status: ('A' for Active; 'I' for Inactive)
REMARK    1  A    between atoms: C_3  and  C_4 
REMARK       I    between atoms: C_4  and  N_5 
REMARK    2  A    between atoms: N_5  and  C_6 
REMARK    3  A    between atoms: C_6  and  C_7 
REMARK    4  A    between atoms: C_6  and  C_22 
REMARK       I    between atoms: C_7  and  N_8 
REMARK    5  A    between atoms: N_8  and  C_9 
REMARK    6  A    between atoms: C_11  and  C_12 
ROOT
HETATM    1  C   UNL     1       5.063  27.679  53.879  1.00  0.00     0.245 C 
HETATM    2  N   UNL     1       5.799  27.770  52.714  1.00  0.00    -0.325 N 
HETATM    3  O   UNL     1       3.901  28.054  54.033  1.00  0.00    -0.271 OA
HETATM    4  H   UNL     1       6.797  27.569  52.813  1.00  0.00     0.169 HD
ENDROOT
BRANCH   1   5
HETATM    5  C   UNL     1       5.818  26.993  55.050  1.00  0.00     0.180 C 
BRANCH   5   6
HETATM    6  N   UNL     1       6.149  25.601  54.733  1.00  0.00    -0.343 N 
HETATM    7  C   UNL     1       7.308  24.972  55.123  1.00  0.00     0.252 C 
HETATM    8  O   UNL     1       8.155  25.512  55.826  1.00  0.00    -0.268 OA
HETATM    9  H   UNL     1       5.598  25.165  54.006  1.00  0.00     0.163 HD
BRANCH   7  10
HETATM   10  C   UNL     1       7.528  23.598  54.589  1.00  0.00     0.037 A 
HETATM   11  C   UNL     1       7.757  23.300  53.229  1.00  0.00    -0.046 A 
HETATM   12  C   UNL     1       7.741  24.332  52.135  1.00  0.00     0.049 C 
HETATM   13  C   UNL     1       8.010  21.963  52.869  1.00  0.00     0.007 A 
HETATM   14  C   UNL     1       7.985  20.943  53.821  1.00  0.00     0.001 A 
HETATM   15  C   UNL     1       7.710  21.238  55.152  1.00  0.00     0.001 A 
HETATM   16  C   UNL     1       7.483  22.559  55.535  1.00  0.00     0.017 A 
ENDBRANCH   7  10
ENDBRANCH   5   6
BRANCH   5  17
HETATM   17  C   UNL     1       5.132  27.177  56.428  1.00  0.00     0.009 C 
HETATM   18  C   UNL     1       4.843  25.823  57.086  1.00  0.00     0.012 C 
HETATM   19  C   UNL     1       5.996  28.018  57.377  1.00  0.00     0.012 C 
ENDBRANCH   5  17
ENDBRANCH   1   5
BRANCH   2  20
HETATM   20  C   UNL     1       5.361  28.141  51.429  1.00  0.00     0.035 A 
HETATM   21  C   UNL     1       4.741  27.267  50.529  1.00  0.00     0.042 A 
HETATM   22  C   UNL     1       4.354  27.692  49.245  1.00  0.00    -0.021 A 
HETATM   23  C   UNL     1       4.627  29.015  48.872  1.00  0.00     0.012 A 
HETATM   24  C   UNL     1       5.244  29.895  49.762  1.00  0.00     0.003 A 
HETATM   25  C   UNL     1       5.598  29.461  51.038  1.00  0.00     0.029 A 
BRANCH  22  26
HETATM   26  C   UNL     1       3.683  26.765  48.338  1.00  0.00     0.010 A 
HETATM   27  C   UNL     1       3.467  25.366  48.434  1.00  0.00     0.152 A 
HETATM   28  N   UNL     1       2.786  24.868  47.398  1.00  0.00    -0.187 NA
HETATM   29  N   UNL     1       2.555  25.943  46.634  1.00  0.00    -0.289 N 
HETATM   30  H   UNL     1       2.034  25.817  45.772  1.00  0.00     0.188 HD
HETATM   31  C   UNL     1       3.068  27.099  47.148  1.00  0.00     0.123 A 
ENDBRANCH  22  26
ENDBRANCH   2  20
TORSDOF 6
ENDMDL
MODEL 7
REMARK VINA RESULT:      -8.8      2.996      8.767
REMARK  6 active torsions:
REMARK  status: ('A' for Active; 'I' for Inactive)
REMARK    1  A    between atoms: C_3  and  C_4 
REMARK       I    between atoms: C_4  and  N_5 
REMARK    2  A    between atoms: N_5  and  C_6 
REMARK    3  A    between atoms: C_6  and  C_7 
REMARK    4  A    between atoms: C_6  and  C_22 
REMARK       I    between atoms: C_7  and  N_8 
REMARK    5  A    between atoms: N_8  and  C_9 
REMARK    6  A    between atoms: C_11  and  C_12 
ROOT
HETATM    1  C   UNL     1       7.826  26.858  56.548  1.00  0.00     0.245 C 
HETATM    2  N   UNL     1       7.224  26.634  55.326  1.00  0.00    -0.325 N 
HETATM    3  O   UNL     1       8.577  26.083  57.140  1.00  0.00    -0.271 OA
HETATM    4  H   UNL     1       6.500  27.307  55.067  1.00  0.00     0.169 HD
ENDROOT
BRANCH   1   5
HETATM    5  C   UNL     1       7.515  28.253  57.157  1.00  0.00     0.180 C 
BRANCH   5   6
HETATM    6  N   UNL     1       6.738  29.081  56.231  1.00  0.00    -0.343 N 
HETATM    7  C   UNL     1       5.442  29.484  56.453  1.00  0.00     0.252 C 
HETATM    8  O   UNL     1       4.832  29.226  57.484  1.00  0.00    -0.268 OA
HETATM    9  H   UNL     1       7.104  29.165  55.292  1.00  0.00     0.163 HD
BRANCH   7  10
HETATM   10  C   UNL     1       4.772  30.206  55.334  1.00  0.00     0.037 A 
HETATM   11  C   UNL     1       4.169  29.573  54.226  1.00  0.00    -0.046 A 
HETATM   12  C   UNL     1       4.187  28.085  54.004  1.00  0.00     0.049 C 
HETATM   13  C   UNL     1       3.518  30.374  53.270  1.00  0.00     0.007 A 
HETATM   14  C   UNL     1       3.508  31.765  53.380  1.00  0.00     0.001 A 
HETATM   15  C   UNL     1       4.146  32.384  54.449  1.00  0.00     0.001 A 
HETATM   16  C   UNL     1       4.775  31.609  55.422  1.00  0.00     0.017 A 
ENDBRANCH   7  10
ENDBRANCH   5   6
BRANCH   5  17
HETATM   17  C   UNL     1       8.759  28.967  57.746  1.00  0.00     0.009 C 
HETATM   18  C   UNL     1       9.682  29.475  56.632  1.00  0.00     0.012 C 
HETATM   19  C   UNL     1       8.357  30.150  58.637  1.00  0.00     0.012 C 
ENDBRANCH   5  17
ENDBRANCH   1   5
BRANCH   2  20
HETATM   20  C   UNL     1       7.451  25.581  54.420  1.00  0.00     0.035 A 
HETATM   21  C   UNL     1       7.795  24.279  54.799  1.00  0.00     0.042 A 
HETATM   22  C   UNL     1       8.041  23.278  53.841  1.00  0.00    -0.021 A 
HETATM   23  C   UNL     1       7.956  23.620  52.485  1.00  0.00     0.012 A 
HETATM   24  C   UNL     1       7.612  24.915  52.095  1.00  0.00     0.003 A 
HETATM   25  C   UNL     1       7.351  25.887  53.060  1.00  0.00     0.029 A 
BRANCH  22  26
HETATM   26  C   UNL     1       8.370  21.921  54.269  1.00  0.00     0.010 A 
HETATM   27  C   UNL     1       8.525  20.725  53.521  1.00  0.00     0.152 A 
HETATM   28  N   UNL     1       8.850  19.672  54.277  1.00  0.00    -0.187 NA
HETATM   29  N   UNL     1       8.912  20.186  55.513  1.00  0.00    -0.289 N 
HETATM   30  H   UNL     1       9.154  19.566  56.279  1.00  0.00     0.188 HD
HETATM   31  C   UNL     1       8.634  21.522  55.563  1.00  0.00     0.123 A 
ENDBRANCH  22  26
ENDBRANCH   2  20
TORSDOF 6
ENDMDL
MODEL 8
REMARK VINA RESULT:      -8.7      4.807      8.382
REMARK  6 active torsions:
REMARK  status: ('A' for Active; 'I' for Inactive)
REMARK    1  A    between atoms: C_3  and  C_4 
REMARK       I    between atoms: C_4  and  N_5 
REMARK    2  A    between atoms: N_5  and  C_6 
REMARK    3  A    between atoms: C_6  and  C_7 
REMARK    4  A    between atoms: C_6  and  C_22 
REMARK       I    between atoms: C_7  and  N_8 
REMARK    5  A    between atoms: N_8  and  C_9 
REMARK    6  A    between atoms: C_11  and  C_12 
ROOT
HETATM    1  C   UNL     1       5.205  27.136  53.784  1.00  0.00     0.245 C 
HETATM    2  N   UNL     1       5.918  27.002  52.609  1.00  0.00    -0.325 N 
HETATM    3  O   UNL     1       4.091  27.645  53.901  1.00  0.00    -0.271 OA
HETATM    4  H   UNL     1       6.893  26.715  52.722  1.00  0.00     0.169 HD
ENDROOT
BRANCH   1   5
HETATM    5  C   UNL     1       5.916  26.531  55.025  1.00  0.00     0.180 C 
BRANCH   5   6
HETATM    6  N   UNL     1       6.246  25.118  54.818  1.00  0.00    -0.343 N 
HETATM    7  C   UNL     1       7.400  24.519  55.265  1.00  0.00     0.252 C 
HETATM    8  O   UNL     1       8.243  25.110  55.930  1.00  0.00    -0.268 OA
HETATM    9  H   UNL     1       5.699  24.628  54.123  1.00  0.00     0.163 HD
BRANCH   7  10
HETATM   10  C   UNL     1       7.622  23.107  54.839  1.00  0.00     0.037 A 
HETATM   11  C   UNL     1       7.818  22.701  53.502  1.00  0.00    -0.046 A 
HETATM   12  C   UNL     1       7.763  23.639  52.328  1.00  0.00     0.049 C 
HETATM   13  C   UNL     1       8.076  21.341  53.247  1.00  0.00     0.007 A 
HETATM   14  C   UNL     1       8.088  20.403  54.279  1.00  0.00     0.001 A 
HETATM   15  C   UNL     1       7.844  20.804  55.588  1.00  0.00     0.001 A 
HETATM   16  C   UNL     1       7.613  22.150  55.867  1.00  0.00     0.017 A 
ENDBRANCH   7  10
ENDBRANCH   5   6
BRANCH   5  17
HETATM   17  C   UNL     1       5.185  26.816  56.362  1.00  0.00     0.009 C 
HETATM   18  C   UNL     1       4.880  25.514  57.113  1.00  0.00     0.012 C 
HETATM   19  C   UNL     1       6.015  27.732  57.272  1.00  0.00     0.012 C 
ENDBRANCH   5  17
ENDBRANCH   1   5
BRANCH   2  20
HETATM   20  C   UNL     1       5.489  27.250  51.292  1.00  0.00     0.035 A 
HETATM   21  C   UNL     1       5.515  28.509  50.682  1.00  0.00     0.042 A 
HETATM   22  C   UNL     1       5.040  28.697  49.371  1.00  0.00    -0.021 A 
HETATM   23  C   UNL     1       4.512  27.591  48.689  1.00  0.00     0.012 A 
HETATM   24  C   UNL     1       4.483  26.331  49.288  1.00  0.00     0.003 A 
HETATM   25  C   UNL     1       4.979  26.161  50.580  1.00  0.00     0.029 A 
BRANCH  22  26
HETATM   26  C   UNL     1       5.108  30.016  48.749  1.00  0.00     0.010 A 
HETATM   27  C   UNL     1       4.635  30.476  47.493  1.00  0.00     0.152 A 
HETATM   28  N   UNL     1       4.873  31.774  47.286  1.00  0.00    -0.187 NA
HETATM   29  N   UNL     1       5.494  32.158  48.409  1.00  0.00    -0.289 N 
HETATM   30  H   UNL     1       5.776  33.129  48.494  1.00  0.00     0.188 HD
HETATM   31  C   UNL     1       5.659  31.149  49.314  1.00  0.00     0.123 A 
ENDBRANCH  22  26
ENDBRANCH   2  20
TORSDOF 6
ENDMDL
MODEL 9
REMARK VINA RESULT:      -8.4      3.626      5.862
REMARK  6 active torsions:
REMARK  status: ('A' for Active; 'I' for Inactive)
REMARK    1  A    between atoms: C_3  and  C_4 
REMARK       I    between atoms: C_4  and  N_5 
REMARK    2  A    between atoms: N_5  and  C_6 
REMARK    3  A    between atoms: C_6  and  C_7 
REMARK    4  A    between atoms: C_6  and  C_22 
REMARK       I    between atoms: C_7  and  N_8 
REMARK    5  A    between atoms: N_8  and  C_9 
REMARK    6  A    between atoms: C_11  and  C_12 
ROOT
HETATM    1  C   UNL     1       5.177  32.491  60.148  1.00  0.00     0.245 C 
HETATM    2  N   UNL     1       5.721  31.834  61.234  1.00  0.00    -0.325 N 
HETATM    3  O   UNL     1       4.811  33.666  60.121  1.00  0.00    -0.271 OA
HETATM    4  H   UNL     1       5.806  30.820  61.132  1.00  0.00     0.169 HD
ENDROOT
BRANCH   1   5
HETATM    5  C   UNL     1       5.083  31.620  58.866  1.00  0.00     0.180 C 
BRANCH   5   6
HETATM    6  N   UNL     1       6.409  31.349  58.304  1.00  0.00    -0.343 N 
HETATM    7  C   UNL     1       6.857  30.100  57.943  1.00  0.00     0.252 C 
HETATM    8  O   UNL     1       6.156  29.095  58.012  1.00  0.00    -0.268 OA
HETATM    9  H   UNL     1       7.095  32.085  58.401  1.00  0.00     0.163 HD
BRANCH   7  10
HETATM   10  C   UNL     1       8.282  30.003  57.519  1.00  0.00     0.037 A 
HETATM   11  C   UNL     1       8.714  29.418  56.309  1.00  0.00    -0.046 A 
HETATM   12  C   UNL     1       7.789  28.757  55.324  1.00  0.00     0.049 C 
HETATM   13  C   UNL     1      10.088  29.446  56.005  1.00  0.00     0.007 A 
HETATM   14  C   UNL     1      11.013  29.992  56.896  1.00  0.00     0.001 A 
HETATM   15  C   UNL     1      10.584  30.522  58.108  1.00  0.00     0.001 A 
HETATM   16  C   UNL     1       9.226  30.528  58.418  1.00  0.00     0.017 A 
ENDBRANCH   7  10
ENDBRANCH   5   6
BRANCH   5  17
HETATM   17  C   UNL     1       4.057  32.145  57.830  1.00  0.00     0.009 C 
HETATM   18  C   UNL     1       4.751  32.957  56.729  1.00  0.00     0.012 C 
HETATM   19  C   UNL     1       3.275  30.995  57.182  1.00  0.00     0.012 C 
ENDBRANCH   5  17
ENDBRANCH   1   5
BRANCH   2  20
HETATM   20  C   UNL     1       6.131  32.373  62.468  1.00  0.00     0.035 A 
HETATM   21  C   UNL     1       5.263  32.959  63.395  1.00  0.00     0.042 A 
HETATM   22  C   UNL     1       5.741  33.510  64.598  1.00  0.00    -0.021 A 
HETATM   23  C   UNL     1       7.121  33.482  64.841  1.00  0.00     0.012 A 
HETATM   24  C   UNL     1       7.996  32.898  63.924  1.00  0.00     0.003 A 
HETATM   25  C   UNL     1       7.499  32.338  62.748  1.00  0.00     0.029 A 
BRANCH  22  26
HETATM   26  C   UNL     1       4.807  34.089  65.560  1.00  0.00     0.010 A 
HETATM   27  C   UNL     1       3.659  34.900  65.366  1.00  0.00     0.152 A 
HETATM   28  N   UNL     1       3.045  35.222  66.509  1.00  0.00    -0.187 NA
HETATM   29  N   UNL     1       3.790  34.615  67.442  1.00  0.00    -0.289 N 
HETATM   30  H   UNL     1       3.513  34.709  68.414  1.00  0.00     0.188 HD
HETATM   31  C   UNL     1       4.852  33.927  66.930  1.00  0.00     0.123 A 
ENDBRANCH  22  26
ENDBRANCH   2  20
TORSDOF 6
ENDMDL
MODEL 10
REMARK VINA RESULT:      -8.2      5.471      9.683
REMARK  6 active torsions:
REMARK  status: ('A' for Active; 'I' for Inactive)
REMARK    1  A    between atoms: C_3  and  C_4 
REMARK       I    between atoms: C_4  and  N_5 
REMARK    2  A    between atoms: N_5  and  C_6 
REMARK    3  A    between atoms: C_6  and  C_7 
REMARK    4  A    between atoms: C_6  and  C_22 
REMARK       I    between atoms: C_7  and  N_8 
REMARK    5  A    between atoms: N_8  and  C_9 
REMARK    6  A    between atoms: C_11  and  C_12 
ROOT
HETATM    1  C   UNL     1       5.459  28.222  51.751  1.00  0.00     0.245 C 
HETATM    2  N   UNL     1       4.628  27.301  51.144  1.00  0.00    -0.325 N 
HETATM    3  O   UNL     1       5.989  29.190  51.206  1.00  0.00    -0.271 OA
HETATM    4  H   UNL     1       4.419  26.469  51.701  1.00  0.00     0.169 HD
ENDROOT
BRANCH   1   5
HETATM    5  C   UNL     1       5.669  27.976  53.270  1.00  0.00     0.180 C 
BRANCH   5   6
HETATM    6  N   UNL     1       6.401  26.730  53.514  1.00  0.00    -0.343 N 
HETATM    7  C   UNL     1       5.826  25.481  53.519  1.00  0.00     0.252 C 
HETATM    8  O   UNL     1       4.641  25.293  53.263  1.00  0.00    -0.268 OA
HETATM    9  H   UNL     1       7.324  26.825  53.917  1.00  0.00     0.163 HD
BRANCH   7  10
HETATM   10  C   UNL     1       6.705  24.347  53.922  1.00  0.00     0.037 A 
HETATM   11  C   UNL     1       6.973  23.985  55.259  1.00  0.00    -0.046 A 
HETATM   12  C   UNL     1       6.453  24.744  56.450  1.00  0.00     0.049 C 
HETATM   13  C   UNL     1       7.775  22.854  55.499  1.00  0.00     0.007 A 
HETATM   14  C   UNL     1       8.338  22.132  54.446  1.00  0.00     0.001 A 
HETATM   15  C   UNL     1       8.109  22.525  53.131  1.00  0.00     0.001 A 
HETATM   16  C   UNL     1       7.296  23.627  52.871  1.00  0.00     0.017 A 
ENDBRANCH   7  10
ENDBRANCH   5   6
BRANCH   5  17
HETATM   17  C   UNL     1       4.374  28.119  54.109  1.00  0.00     0.009 C 
HETATM   18  C   UNL     1       4.685  28.102  55.611  1.00  0.00     0.012 C 
HETATM   19  C   UNL     1       3.625  29.415  53.771  1.00  0.00     0.012 C 
ENDBRANCH   5  17
ENDBRANCH   1   5
BRANCH   2  20
HETATM   20  C   UNL     1       4.073  27.342  49.851  1.00  0.00     0.035 A 
HETATM   21  C   UNL     1       3.078  28.242  49.454  1.00  0.00     0.042 A 
HETATM   22  C   UNL     1       2.540  28.211  48.154  1.00  0.00    -0.021 A 
HETATM   23  C   UNL     1       3.007  27.235  47.263  1.00  0.00     0.012 A 
HETATM   24  C   UNL     1       4.001  26.334  47.649  1.00  0.00     0.003 A 
HETATM   25  C   UNL     1       4.537  26.396  48.934  1.00  0.00     0.029 A 
BRANCH  22  26
HETATM   26  C   UNL     1       1.523  29.182  47.759  1.00  0.00     0.010 A 
HETATM   27  C   UNL     1       0.768  29.300  46.563  1.00  0.00     0.152 A 
HETATM   28  N   UNL     1      -0.090  30.325  46.584  1.00  0.00    -0.187 NA
HETATM   29  N   UNL     1       0.104  30.867  47.794  1.00  0.00    -0.289 N 
HETATM   30  H   UNL     1      -0.451  31.676  48.053  1.00  0.00     0.188 HD
HETATM   31  C   UNL     1       1.055  30.224  48.534  1.00  0.00     0.123 A 
ENDBRANCH  22  26
ENDBRANCH   2  20
TORSDOF 6
ENDMDL
