MODEL 1
REMARK VINA RESULT:      -9.9      0.000      0.000
REMARK  10 active torsions:
REMARK  status: ('A' for Active; 'I' for Inactive)
REMARK    1  A    between atoms: C_2  and  C_3 
REMARK    2  A    between atoms: C_3  and  C_4 
REMARK    3  A    between atoms: C_4  and  O_5 
REMARK    4  A    between atoms: O_5  and  C_6 
REMARK    5  A    between atoms: C_9  and  C_10 
REMARK       I    between atoms: C_10  and  N_11 
REMARK    6  A    between atoms: N_11  and  C_12 
REMARK    7  A    between atoms: C_12  and  N_13 
REMARK    8  A    between atoms: N_13  and  C_14 
REMARK    9  A    between atoms: C_16  and  C_17 
REMARK   10  A    between atoms: C_26  and  O_27 
ROOT
HETATM    1  N   UNL     1       8.082  29.391  56.369  1.00  0.00    -0.333 N 
HETATM    2  H   UNL     1       7.953  30.047  55.597  1.00  0.00     0.168 HD
ENDROOT
BRANCH   1   3
HETATM    3  C   UNL     1       9.101  29.756  57.218  1.00  0.00     0.179 C 
HETATM    4  S   UNL     1      10.757  29.714  56.990  1.00  0.00    -0.040 SA
BRANCH   3   5
HETATM    5  N   UNL     1       8.694  30.223  58.455  1.00  0.00    -0.299 N 
HETATM    6  C   UNL     1       7.755  31.193  58.777  1.00  0.00     0.257 C 
HETATM    7  O   UNL     1       6.929  31.647  57.996  1.00  0.00    -0.267 OA
HETATM    8  H   UNL     1       9.188  29.781  59.220  1.00  0.00     0.171 HD
BRANCH   6   9
HETATM    9  C   UNL     1       7.770  31.587  60.207  1.00  0.00     0.032 A 
HETATM   10  C   UNL     1       6.685  32.287  60.751  1.00  0.00     0.020 A 
HETATM   11  C   UNL     1       6.731  32.718  62.078  1.00  0.00     0.038 A 
HETATM   12  C   UNL     1       7.849  32.434  62.862  1.00  0.00     0.068 A 
HETATM   13  C   UNL     1       8.932  31.740  62.318  1.00  0.00     0.038 A 
HETATM   14  C   UNL     1       8.887  31.296  60.993  1.00  0.00     0.020 A 
BRANCH  12  15
HETATM   15  O   UNL     1       7.984  32.904  64.140  1.00  0.00    -0.351 OA
BRANCH  15  16
HETATM   16  C   UNL     1       7.082  33.975  64.440  1.00  0.00     0.175 C 
BRANCH  16  17
HETATM   17  C   UNL     1       6.639  33.858  65.898  1.00  0.00     0.026 C 
BRANCH  17  18
HETATM   18  C   UNL     1       5.117  33.932  66.045  1.00  0.00    -0.002 C 
HETATM   19  C   UNL     1       4.421  33.824  64.696  1.00  0.00     0.005 C 
ENDBRANCH  17  18
ENDBRANCH  16  17
ENDBRANCH  15  16
ENDBRANCH  12  15
ENDBRANCH   6   9
ENDBRANCH   3   5
ENDBRANCH   1   3
BRANCH   1  20
HETATM   20  C   UNL     1       7.146  28.329  56.421  1.00  0.00     0.035 A 
HETATM   21  C   UNL     1       7.549  27.091  55.882  1.00  0.00     0.046 A 
HETATM   22  C   UNL     1       6.701  25.963  55.887  1.00  0.00     0.035 A 
HETATM   23  C   UNL     1       5.428  26.117  56.468  1.00  0.00     0.078 A 
HETATM   24  C   UNL     1       5.029  27.325  57.030  1.00  0.00     0.040 A 
HETATM   25  C   UNL     1       5.888  28.422  57.011  1.00  0.00     0.032 A 
BRANCH  22  26
HETATM   26  C   UNL     1       7.088  24.653  55.314  1.00  0.00     0.112 A 
HETATM   27  S   UNL     1       7.397  24.411  53.639  1.00  0.00    -0.067 SA
HETATM   28  C   UNL     1       7.749  22.751  53.922  1.00  0.00     0.035 A 
HETATM   29  C   UNL     1       7.608  22.487  55.284  1.00  0.00     0.075 A 
HETATM   30  C   UNL     1       8.125  21.752  53.010  1.00  0.00     0.021 A 
HETATM   31  N   UNL     1       7.236  23.571  56.060  1.00  0.00    -0.239 NA
HETATM   32  C   UNL     1       7.846  21.180  55.754  1.00  0.00     0.033 A 
HETATM   33  C   UNL     1       8.220  20.176  54.855  1.00  0.00     0.002 A 
HETATM   34  C   UNL     1       8.357  20.461  53.499  1.00  0.00     0.002 A 
ENDBRANCH  22  26
BRANCH  23  35
HETATM   35  O   UNL     1       4.502  25.107  56.537  1.00  0.00    -0.360 OA
HETATM   36  H   UNL     1       4.690  24.585  57.348  1.00  0.00     0.217 HD
ENDBRANCH  23  35
ENDBRANCH   1  20
TORSDOF 10
ENDMDL
MODEL 2
REMARK VINA RESULT:      -9.7      1.533      2.151
REMARK  10 active torsions:
REMARK  status: ('A' for Active; 'I' for Inactive)
REMARK    1  A    between atoms: C_2  and  C_3 
REMARK    2  A    between atoms: C_3  and  C_4 
REMARK    3  A    between atoms: C_4  and  O_5 
REMARK    4  A    between atoms: O_5  and  C_6 
REMARK    5  A    between atoms: C_9  and  C_10 
REMARK       I    between atoms: C_10  and  N_11 
REMARK    6  A    between atoms: N_11  and  C_12 
REMARK    7  A    between atoms: C_12  and  N_13 
REMARK    8  A    between atoms: N_13  and  C_14 
REMARK    9  A    between atoms: C_16  and  C_17 
REMARK   10  A    between atoms: C_26  and  O_27 
ROOT
HETATM    1  N   UNL     1       7.789  28.662  58.608  1.00  0.00    -0.333 N 
HETATM    2  H   UNL     1       7.848  28.181  59.506  1.00  0.00     0.168 HD
ENDROOT
BRANCH   1   3
HETATM    3  C   UNL     1       8.532  29.820  58.568  1.00  0.00     0.179 C 
HETATM    4  S   UNL     1       9.740  30.285  57.510  1.00  0.00    -0.040 SA
BRANCH   3   5
HETATM    5  N   UNL     1       8.242  30.737  59.563  1.00  0.00    -0.299 N 
HETATM    6  C   UNL     1       8.598  30.740  60.904  1.00  0.00     0.257 C 
HETATM    7  O   UNL     1       9.461  30.024  61.396  1.00  0.00    -0.267 OA
HETATM    8  H   UNL     1       7.666  31.501  59.232  1.00  0.00     0.171 HD
BRANCH   6   9
HETATM    9  C   UNL     1       7.894  31.770  61.706  1.00  0.00     0.032 A 
HETATM   10  C   UNL     1       8.355  32.093  62.989  1.00  0.00     0.020 A 
HETATM   11  C   UNL     1       7.651  33.012  63.769  1.00  0.00     0.038 A 
HETATM   12  C   UNL     1       6.503  33.619  63.261  1.00  0.00     0.068 A 
HETATM   13  C   UNL     1       6.042  33.293  61.984  1.00  0.00     0.038 A 
HETATM   14  C   UNL     1       6.748  32.382  61.193  1.00  0.00     0.020 A 
BRANCH  12  15
HETATM   15  O   UNL     1       5.728  34.461  64.011  1.00  0.00    -0.351 OA
BRANCH  15  16
HETATM   16  C   UNL     1       4.603  33.804  64.608  1.00  0.00     0.175 C 
BRANCH  16  17
HETATM   17  C   UNL     1       4.435  34.309  66.040  1.00  0.00     0.026 C 
BRANCH  17  18
HETATM   18  C   UNL     1       5.747  34.249  66.828  1.00  0.00    -0.002 C 
HETATM   19  C   UNL     1       5.647  35.017  68.137  1.00  0.00     0.005 C 
ENDBRANCH  17  18
ENDBRANCH  16  17
ENDBRANCH  15  16
ENDBRANCH  12  15
ENDBRANCH   6   9
ENDBRANCH   3   5
ENDBRANCH   1   3
BRANCH   1  20
HETATM   20  C   UNL     1       7.034  27.993  57.614  1.00  0.00     0.035 A 
HETATM   21  C   UNL     1       7.496  26.728  57.200  1.00  0.00     0.046 A 
HETATM   22  C   UNL     1       6.819  25.969  56.221  1.00  0.00     0.035 A 
HETATM   23  C   UNL     1       5.644  26.521  55.677  1.00  0.00     0.078 A 
HETATM   24  C   UNL     1       5.160  27.755  56.098  1.00  0.00     0.040 A 
HETATM   25  C   UNL     1       5.850  28.482  57.066  1.00  0.00     0.032 A 
BRANCH  22  26
HETATM   26  C   UNL     1       7.288  24.644  55.752  1.00  0.00     0.112 A 
HETATM   27  S   UNL     1       8.068  23.504  56.777  1.00  0.00    -0.067 SA
HETATM   28  C   UNL     1       8.206  22.393  55.471  1.00  0.00     0.035 A 
HETATM   29  C   UNL     1       7.646  22.967  54.330  1.00  0.00     0.075 A 
HETATM   30  C   UNL     1       8.768  21.106  55.451  1.00  0.00     0.021 A 
HETATM   31  N   UNL     1       7.128  24.239  54.503  1.00  0.00    -0.239 NA
HETATM   32  C   UNL     1       7.647  22.234  53.127  1.00  0.00     0.033 A 
HETATM   33  C   UNL     1       8.204  20.951  53.095  1.00  0.00     0.002 A 
HETATM   34  C   UNL     1       8.757  20.396  54.245  1.00  0.00     0.002 A 
ENDBRANCH  22  26
BRANCH  23  35
HETATM   35  O   UNL     1       4.891  25.895  54.716  1.00  0.00    -0.360 OA
HETATM   36  H   UNL     1       3.974  26.242  54.784  1.00  0.00     0.217 HD
ENDBRANCH  23  35
ENDBRANCH   1  20
TORSDOF 10
ENDMDL
MODEL 3
REMARK VINA RESULT:      -9.7      1.839      2.711
REMARK  10 active torsions:
REMARK  status: ('A' for Active; 'I' for Inactive)
REMARK    1  A    between atoms: C_2  and  C_3 
REMARK    2  A    between atoms: C_3  and  C_4 
REMARK    3  A    between atoms: C_4  and  O_5 
REMARK    4  A    between atoms: O_5  and  C_6 
REMARK    5  A    between atoms: C_9  and  C_10 
REMARK       I    between atoms: C_10  and  N_11 
REMARK    6  A    between atoms: N_11  and  C_12 
REMARK    7  A    between atoms: C_12  and  N_13 
REMARK    8  A    between atoms: N_13  and  C_14 
REMARK    9  A    between atoms: C_16  and  C_17 
REMARK   10  A    between atoms: C_26  and  O_27 
ROOT
HETATM    1  N   UNL     1       7.951  29.444  58.965  1.00  0.00    -0.333 N 
HETATM    2  H   UNL     1       8.121  28.725  59.670  1.00  0.00     0.168 HD
ENDROOT
BRANCH   1   3
HETATM    3  C   UNL     1       8.529  30.653  59.281  1.00  0.00     0.179 C 
HETATM    4  S   UNL     1       9.836  31.432  58.589  1.00  0.00    -0.040 SA
BRANCH   3   5
HETATM    5  N   UNL     1       7.943  31.323  60.340  1.00  0.00    -0.299 N 
HETATM    6  C   UNL     1       8.477  31.693  61.566  1.00  0.00     0.257 C 
HETATM    7  O   UNL     1       9.673  31.696  61.831  1.00  0.00    -0.267 OA
HETATM    8  H   UNL     1       6.971  31.549  60.168  1.00  0.00     0.171 HD
BRANCH   6   9
HETATM    9  C   UNL     1       7.467  32.185  62.534  1.00  0.00     0.032 A 
HETATM   10  C   UNL     1       7.878  32.847  63.699  1.00  0.00     0.020 A 
HETATM   11  C   UNL     1       6.929  33.247  64.641  1.00  0.00     0.038 A 
HETATM   12  C   UNL     1       5.575  33.003  64.411  1.00  0.00     0.068 A 
HETATM   13  C   UNL     1       5.167  32.339  63.253  1.00  0.00     0.038 A 
HETATM   14  C   UNL     1       6.111  31.945  62.299  1.00  0.00     0.020 A 
BRANCH  12  15
HETATM   15  O   UNL     1       4.612  33.296  65.338  1.00  0.00    -0.351 OA
BRANCH  15  16
HETATM   16  C   UNL     1       4.851  34.533  66.021  1.00  0.00     0.175 C 
BRANCH  16  17
HETATM   17  C   UNL     1       3.980  35.621  65.397  1.00  0.00     0.026 C 
BRANCH  17  18
HETATM   18  C   UNL     1       4.814  36.676  64.665  1.00  0.00    -0.002 C 
HETATM   19  C   UNL     1       4.923  36.367  63.179  1.00  0.00     0.005 C 
ENDBRANCH  17  18
ENDBRANCH  16  17
ENDBRANCH  15  16
ENDBRANCH  12  15
ENDBRANCH   6   9
ENDBRANCH   3   5
ENDBRANCH   1   3
BRANCH   1  20
HETATM   20  C   UNL     1       7.244  29.009  57.818  1.00  0.00     0.035 A 
HETATM   21  C   UNL     1       7.501  27.701  57.363  1.00  0.00     0.046 A 
HETATM   22  C   UNL     1       6.848  27.160  56.234  1.00  0.00     0.035 A 
HETATM   23  C   UNL     1       5.911  27.980  55.579  1.00  0.00     0.078 A 
HETATM   24  C   UNL     1       5.626  29.263  56.034  1.00  0.00     0.040 A 
HETATM   25  C   UNL     1       6.285  29.770  57.152  1.00  0.00     0.032 A 
BRANCH  22  26
HETATM   26  C   UNL     1       7.108  25.795  55.721  1.00  0.00     0.112 A 
HETATM   27  S   UNL     1       7.285  24.422  56.742  1.00  0.00    -0.067 SA
HETATM   28  C   UNL     1       7.519  23.407  55.373  1.00  0.00     0.035 A 
HETATM   29  C   UNL     1       7.448  24.185  54.219  1.00  0.00     0.075 A 
HETATM   30  C   UNL     1       7.749  22.023  55.319  1.00  0.00     0.021 A 
HETATM   31  N   UNL     1       7.212  25.533  54.428  1.00  0.00    -0.239 NA
HETATM   32  C   UNL     1       7.613  23.563  52.965  1.00  0.00     0.033 A 
HETATM   33  C   UNL     1       7.843  22.185  52.899  1.00  0.00     0.002 A 
HETATM   34  C   UNL     1       7.910  21.427  54.063  1.00  0.00     0.002 A 
ENDBRANCH  22  26
BRANCH  23  35
HETATM   35  O   UNL     1       5.208  27.586  54.468  1.00  0.00    -0.360 OA
HETATM   36  H   UNL     1       4.993  26.633  54.575  1.00  0.00     0.217 HD
ENDBRANCH  23  35
ENDBRANCH   1  20
TORSDOF 10
ENDMDL
MODEL 4
REMARK VINA RESULT:      -9.3      2.024      2.632
REMARK  10 active torsions:
REMARK  status: ('A' for Active; 'I' for Inactive)
REMARK    1  A    between atoms: C_2  and  C_3 
REMARK    2  A    between atoms: C_3  and  C_4 
REMARK    3  A    between atoms: C_4  and  O_5 
REMARK    4  A    between atoms: O_5  and  C_6 
REMARK    5  A    between atoms: C_9  and  C_10 
REMARK       I    between atoms: C_10  and  N_11 
REMARK    6  A    between atoms: N_11  and  C_12 
REMARK    7  A    between atoms: C_12  and  N_13 
REMARK    8  A    between atoms: N_13  and  C_14 
REMARK    9  A    between atoms: C_16  and  C_17 
REMARK   10  A    between atoms: C_26  and  O_27 
ROOT
HETATM    1  N   UNL     1       6.837  29.629  55.476  1.00  0.00    -0.333 N 
HETATM    2  H   UNL     1       6.806  30.520  54.978  1.00  0.00     0.168 HD
ENDROOT
BRANCH   1   3
HETATM    3  C   UNL     1       7.474  29.714  56.692  1.00  0.00     0.179 C 
HETATM    4  S   UNL     1       9.002  29.206  57.144  1.00  0.00    -0.040 SA
BRANCH   3   5
HETATM    5  N   UNL     1       6.734  30.306  57.701  1.00  0.00    -0.299 N 
HETATM    6  C   UNL     1       5.860  31.383  57.651  1.00  0.00     0.257 C 
HETATM    7  O   UNL     1       5.400  31.858  56.620  1.00  0.00    -0.267 OA
HETATM    8  H   UNL     1       6.889  29.873  58.603  1.00  0.00     0.171 HD
BRANCH   6   9
HETATM    9  C   UNL     1       5.442  31.874  58.986  1.00  0.00     0.032 A 
HETATM   10  C   UNL     1       6.399  32.373  59.880  1.00  0.00     0.020 A 
HETATM   11  C   UNL     1       6.013  32.770  61.161  1.00  0.00     0.038 A 
HETATM   12  C   UNL     1       4.673  32.686  61.540  1.00  0.00     0.068 A 
HETATM   13  C   UNL     1       3.721  32.185  60.651  1.00  0.00     0.038 A 
HETATM   14  C   UNL     1       4.099  31.796  59.362  1.00  0.00     0.020 A 
BRANCH  12  15
HETATM   15  O   UNL     1       4.253  32.981  62.809  1.00  0.00    -0.351 OA
BRANCH  15  16
HETATM   16  C   UNL     1       5.168  32.539  63.818  1.00  0.00     0.175 C 
BRANCH  16  17
HETATM   17  C   UNL     1       5.470  33.705  64.759  1.00  0.00     0.026 C 
BRANCH  17  18
HETATM   18  C   UNL     1       6.970  34.003  64.842  1.00  0.00    -0.002 C 
HETATM   19  C   UNL     1       7.790  32.936  64.132  1.00  0.00     0.005 C 
ENDBRANCH  17  18
ENDBRANCH  16  17
ENDBRANCH  15  16
ENDBRANCH  12  15
ENDBRANCH   6   9
ENDBRANCH   3   5
ENDBRANCH   1   3
BRANCH   1  20
HETATM   20  C   UNL     1       6.160  28.560  54.839  1.00  0.00     0.035 A 
HETATM   21  C   UNL     1       6.708  27.271  54.992  1.00  0.00     0.046 A 
HETATM   22  C   UNL     1       6.113  26.132  54.408  1.00  0.00     0.035 A 
HETATM   23  C   UNL     1       4.930  26.331  53.671  1.00  0.00     0.078 A 
HETATM   24  C   UNL     1       4.362  27.593  53.537  1.00  0.00     0.040 A 
HETATM   25  C   UNL     1       4.972  28.699  54.125  1.00  0.00     0.032 A 
BRANCH  22  26
HETATM   26  C   UNL     1       6.673  24.767  54.535  1.00  0.00     0.112 A 
HETATM   27  S   UNL     1       7.023  24.029  56.049  1.00  0.00    -0.067 SA
HETATM   28  C   UNL     1       7.564  22.603  55.253  1.00  0.00     0.035 A 
HETATM   29  C   UNL     1       7.442  22.783  53.876  1.00  0.00     0.075 A 
HETATM   30  C   UNL     1       8.060  21.409  55.802  1.00  0.00     0.021 A 
HETATM   31  N   UNL     1       6.935  24.009  53.483  1.00  0.00    -0.239 NA
HETATM   32  C   UNL     1       7.830  21.737  53.014  1.00  0.00     0.033 A 
HETATM   33  C   UNL     1       8.326  20.544  53.549  1.00  0.00     0.002 A 
HETATM   34  C   UNL     1       8.438  20.385  54.927  1.00  0.00     0.002 A 
ENDBRANCH  22  26
BRANCH  23  35
HETATM   35  O   UNL     1       4.250  25.315  53.047  1.00  0.00    -0.360 OA
HETATM   36  H   UNL     1       3.751  25.707  52.297  1.00  0.00     0.217 HD
ENDBRANCH  23  35
ENDBRANCH   1  20
TORSDOF 10
ENDMDL
MODEL 5
REMARK VINA RESULT:      -9.2      2.683     11.285
REMARK  10 active torsions:
REMARK  status: ('A' for Active; 'I' for Inactive)
REMARK    1  A    between atoms: C_2  and  C_3 
REMARK    2  A    between atoms: C_3  and  C_4 
REMARK    3  A    between atoms: C_4  and  O_5 
REMARK    4  A    between atoms: O_5  and  C_6 
REMARK    5  A    between atoms: C_9  and  C_10 
REMARK       I    between atoms: C_10  and  N_11 
REMARK    6  A    between atoms: N_11  and  C_12 
REMARK    7  A    between atoms: C_12  and  N_13 
REMARK    8  A    between atoms: N_13  and  C_14 
REMARK    9  A    between atoms: C_16  and  C_17 
REMARK   10  A    between atoms: C_26  and  O_27 
ROOT
HETATM    1  N   UNL     1       5.605  29.229  56.489  1.00  0.00    -0.333 N 
HETATM    2  H   UNL     1       4.735  29.175  57.021  1.00  0.00     0.168 HD
ENDROOT
BRANCH   1   3
HETATM    3  C   UNL     1       5.463  28.813  55.185  1.00  0.00     0.179 C 
HETATM    4  S   UNL     1       4.656  29.533  53.909  1.00  0.00    -0.040 SA
BRANCH   3   5
HETATM    5  N   UNL     1       6.077  27.610  54.883  1.00  0.00    -0.299 N 
HETATM    6  C   UNL     1       7.176  27.347  54.078  1.00  0.00     0.257 C 
HETATM    7  O   UNL     1       7.960  28.196  53.674  1.00  0.00    -0.267 OA
HETATM    8  H   UNL     1       5.618  26.819  55.319  1.00  0.00     0.171 HD
BRANCH   6   9
HETATM    9  C   UNL     1       7.387  25.904  53.809  1.00  0.00     0.032 A 
HETATM   10  C   UNL     1       7.694  25.472  52.511  1.00  0.00     0.020 A 
HETATM   11  C   UNL     1       7.823  24.108  52.246  1.00  0.00     0.038 A 
HETATM   12  C   UNL     1       7.665  23.182  53.276  1.00  0.00     0.068 A 
HETATM   13  C   UNL     1       7.355  23.613  54.568  1.00  0.00     0.038 A 
HETATM   14  C   UNL     1       7.235  24.978  54.843  1.00  0.00     0.020 A 
BRANCH  12  15
HETATM   15  O   UNL     1       7.697  21.832  53.057  1.00  0.00    -0.351 OA
BRANCH  15  16
HETATM   16  C   UNL     1       8.893  21.213  53.547  1.00  0.00     0.175 C 
BRANCH  16  17
HETATM   17  C   UNL     1       8.513  20.132  54.558  1.00  0.00     0.026 C 
BRANCH  17  18
HETATM   18  C   UNL     1       9.215  20.333  55.904  1.00  0.00    -0.002 C 
HETATM   19  C   UNL     1       8.324  21.071  56.893  1.00  0.00     0.005 C 
ENDBRANCH  17  18
ENDBRANCH  16  17
ENDBRANCH  15  16
ENDBRANCH  12  15
ENDBRANCH   6   9
ENDBRANCH   3   5
ENDBRANCH   1   3
BRANCH   1  20
HETATM   20  C   UNL     1       6.706  29.782  57.187  1.00  0.00     0.035 A 
HETATM   21  C   UNL     1       6.422  30.519  58.354  1.00  0.00     0.046 A 
HETATM   22  C   UNL     1       7.441  31.109  59.132  1.00  0.00     0.035 A 
HETATM   23  C   UNL     1       8.768  30.920  58.703  1.00  0.00     0.078 A 
HETATM   24  C   UNL     1       9.065  30.170  57.571  1.00  0.00     0.040 A 
HETATM   25  C   UNL     1       8.038  29.599  56.822  1.00  0.00     0.032 A 
BRANCH  22  26
HETATM   26  C   UNL     1       7.174  31.903  60.353  1.00  0.00     0.112 A 
HETATM   27  S   UNL     1       5.910  33.065  60.465  1.00  0.00    -0.067 SA
HETATM   28  C   UNL     1       6.344  33.412  62.093  1.00  0.00     0.035 A 
HETATM   29  C   UNL     1       7.431  32.615  62.449  1.00  0.00     0.075 A 
HETATM   30  C   UNL     1       5.766  34.321  62.994  1.00  0.00     0.021 A 
HETATM   31  N   UNL     1       7.889  31.765  61.458  1.00  0.00    -0.239 NA
HETATM   32  C   UNL     1       7.964  32.729  63.748  1.00  0.00     0.033 A 
HETATM   33  C   UNL     1       7.398  33.631  64.655  1.00  0.00     0.002 A 
HETATM   34  C   UNL     1       6.312  34.417  64.280  1.00  0.00     0.002 A 
ENDBRANCH  22  26
BRANCH  23  35
HETATM   35  O   UNL     1       9.855  31.441  59.360  1.00  0.00    -0.360 OA
HETATM   36  H   UNL     1      10.614  31.427  58.738  1.00  0.00     0.217 HD
ENDBRANCH  23  35
ENDBRANCH   1  20
TORSDOF 10
ENDMDL
MODEL 6
REMARK VINA RESULT:      -9.0      2.906     11.735
REMARK  10 active torsions:
REMARK  status: ('A' for Active; 'I' for Inactive)
REMARK    1  A    between atoms: C_2  and  C_3 
REMARK    2  A    between atoms: C_3  and  C_4 
REMARK    3  A    between atoms: C_4  and  O_5 
REMARK    4  A    between atoms: O_5  and  C_6 
REMARK    5  A    between atoms: C_9  and  C_10 
REMARK       I    between atoms: C_10  and  N_11 
REMARK    6  A    between atoms: N_11  and  C_12 
REMARK    7  A    between atoms: C_12  and  N_13 
REMARK    8  A    between atoms: N_13  and  C_14 
REMARK    9  A    between atoms: C_16  and  C_17 
REMARK   10  A    between atoms: C_26  and  O_27 
ROOT
HETATM    1  N   UNL     1       6.905  31.889  59.379  1.00  0.00    -0.333 N 
HETATM    2  H   UNL     1       6.984  32.494  58.560  1.00  0.00     0.168 HD
ENDROOT
BRANCH   1   3
HETATM    3  C   UNL     1       7.936  30.983  59.479  1.00  0.00     0.179 C 
HETATM    4  S   UNL     1       9.373  31.079  60.328  1.00  0.00    -0.040 SA
BRANCH   3   5
HETATM    5  N   UNL     1       7.761  29.814  58.758  1.00  0.00    -0.299 N 
HETATM    6  C   UNL     1       6.862  29.519  57.743  1.00  0.00     0.257 C 
HETATM    7  O   UNL     1       6.207  30.353  57.131  1.00  0.00    -0.267 OA
HETATM    8  H   UNL     1       8.389  29.077  59.054  1.00  0.00     0.171 HD
BRANCH   6   9
HETATM    9  C   UNL     1       6.818  28.081  57.384  1.00  0.00     0.032 A 
HETATM   10  C   UNL     1       7.954  27.280  57.564  1.00  0.00     0.020 A 
HETATM   11  C   UNL     1       7.932  25.944  57.161  1.00  0.00     0.038 A 
HETATM   12  C   UNL     1       6.774  25.407  56.598  1.00  0.00     0.068 A 
HETATM   13  C   UNL     1       5.645  26.207  56.415  1.00  0.00     0.038 A 
HETATM   14  C   UNL     1       5.656  27.543  56.827  1.00  0.00     0.020 A 
BRANCH  12  15
HETATM   15  O   UNL     1       6.724  24.130  56.108  1.00  0.00    -0.351 OA
BRANCH  15  16
HETATM   16  C   UNL     1       6.487  24.081  54.696  1.00  0.00     0.175 C 
BRANCH  16  17
HETATM   17  C   UNL     1       7.828  24.133  53.965  1.00  0.00     0.026 C 
BRANCH  17  18
HETATM   18  C   UNL     1       7.889  23.137  52.804  1.00  0.00    -0.002 C 
HETATM   19  C   UNL     1       8.200  21.730  53.291  1.00  0.00     0.005 C 
ENDBRANCH  17  18
ENDBRANCH  16  17
ENDBRANCH  15  16
ENDBRANCH  12  15
ENDBRANCH   6   9
ENDBRANCH   3   5
ENDBRANCH   1   3
BRANCH   1  20
HETATM   20  C   UNL     1       5.817  32.177  60.239  1.00  0.00     0.035 A 
HETATM   21  C   UNL     1       6.127  32.568  61.556  1.00  0.00     0.046 A 
HETATM   22  C   UNL     1       5.123  32.886  62.497  1.00  0.00     0.035 A 
HETATM   23  C   UNL     1       3.787  32.810  62.062  1.00  0.00     0.078 A 
HETATM   24  C   UNL     1       3.468  32.455  60.756  1.00  0.00     0.040 A 
HETATM   25  C   UNL     1       4.480  32.147  59.849  1.00  0.00     0.032 A 
BRANCH  22  26
HETATM   26  C   UNL     1       5.415  33.284  63.893  1.00  0.00     0.112 A 
HETATM   27  S   UNL     1       7.006  33.577  64.477  1.00  0.00    -0.067 SA
HETATM   28  C   UNL     1       6.387  33.954  66.038  1.00  0.00     0.035 A 
HETATM   29  C   UNL     1       4.999  33.831  66.013  1.00  0.00     0.075 A 
HETATM   30  C   UNL     1       7.075  34.333  67.201  1.00  0.00     0.021 A 
HETATM   31  N   UNL     1       4.461  33.454  64.794  1.00  0.00    -0.239 NA
HETATM   32  C   UNL     1       4.269  34.092  67.190  1.00  0.00     0.033 A 
HETATM   33  C   UNL     1       4.944  34.469  68.356  1.00  0.00     0.002 A 
HETATM   34  C   UNL     1       6.330  34.588  68.359  1.00  0.00     0.002 A 
ENDBRANCH  22  26
BRANCH  23  35
HETATM   35  O   UNL     1       2.713  33.087  62.870  1.00  0.00    -0.360 OA
HETATM   36  H   UNL     1       2.786  34.025  63.152  1.00  0.00     0.217 HD
ENDBRANCH  23  35
ENDBRANCH   1  20
TORSDOF 10
ENDMDL
MODEL 7
REMARK VINA RESULT:      -8.7      2.449      3.129
REMARK  10 active torsions:
REMARK  status: ('A' for Active; 'I' for Inactive)
REMARK    1  A    between atoms: C_2  and  C_3 
REMARK    2  A    between atoms: C_3  and  C_4 
REMARK    3  A    between atoms: C_4  and  O_5 
REMARK    4  A    between atoms: O_5  and  C_6 
REMARK    5  A    between atoms: C_9  and  C_10 
REMARK       I    between atoms: C_10  and  N_11 
REMARK    6  A    between atoms: N_11  and  C_12 
REMARK    7  A    between atoms: C_12  and  N_13 
REMARK    8  A    between atoms: N_13  and  C_14 
REMARK    9  A    between atoms: C_16  and  C_17 
REMARK   10  A    between atoms: C_26  and  O_27 
ROOT
HETATM    1  N   UNL     1       6.090  29.718  55.246  1.00  0.00    -0.333 N 
HETATM    2  H   UNL     1       6.621  29.971  54.411  1.00  0.00     0.168 HD
ENDROOT
BRANCH   1   3
HETATM    3  C   UNL     1       4.917  30.426  55.371  1.00  0.00     0.179 C 
HETATM    4  S   UNL     1       3.594  30.502  54.351  1.00  0.00    -0.040 SA
BRANCH   3   5
HETATM    5  N   UNL     1       4.819  31.201  56.513  1.00  0.00    -0.299 N 
HETATM    6  C   UNL     1       5.018  32.563  56.686  1.00  0.00     0.257 C 
HETATM    7  O   UNL     1       5.085  33.377  55.773  1.00  0.00    -0.267 OA
HETATM    8  H   UNL     1       4.580  30.657  57.333  1.00  0.00     0.171 HD
BRANCH   6   9
HETATM    9  C   UNL     1       5.055  32.986  58.107  1.00  0.00     0.032 A 
HETATM   10  C   UNL     1       5.779  32.233  59.041  1.00  0.00     0.020 A 
HETATM   11  C   UNL     1       5.756  32.593  60.390  1.00  0.00     0.038 A 
HETATM   12  C   UNL     1       5.028  33.710  60.798  1.00  0.00     0.068 A 
HETATM   13  C   UNL     1       4.303  34.457  59.867  1.00  0.00     0.038 A 
HETATM   14  C   UNL     1       4.331  34.108  58.513  1.00  0.00     0.020 A 
BRANCH  12  15
HETATM   15  O   UNL     1       4.901  34.058  62.116  1.00  0.00    -0.351 OA
BRANCH  15  16
HETATM   16  C   UNL     1       4.640  32.937  62.968  1.00  0.00     0.175 C 
BRANCH  16  17
HETATM   17  C   UNL     1       5.530  33.037  64.206  1.00  0.00     0.026 C 
BRANCH  17  18
HETATM   18  C   UNL     1       6.874  33.701  63.896  1.00  0.00    -0.002 C 
HETATM   19  C   UNL     1       7.962  32.667  63.643  1.00  0.00     0.005 C 
ENDBRANCH  17  18
ENDBRANCH  16  17
ENDBRANCH  15  16
ENDBRANCH  12  15
ENDBRANCH   6   9
ENDBRANCH   3   5
ENDBRANCH   1   3
BRANCH   1  20
HETATM   20  C   UNL     1       6.642  28.664  56.015  1.00  0.00     0.035 A 
HETATM   21  C   UNL     1       6.791  27.416  55.380  1.00  0.00     0.046 A 
HETATM   22  C   UNL     1       7.335  26.298  56.049  1.00  0.00     0.035 A 
HETATM   23  C   UNL     1       7.741  26.481  57.384  1.00  0.00     0.078 A 
HETATM   24  C   UNL     1       7.628  27.716  58.013  1.00  0.00     0.040 A 
HETATM   25  C   UNL     1       7.087  28.802  57.328  1.00  0.00     0.032 A 
BRANCH  22  26
HETATM   26  C   UNL     1       7.489  24.968  55.415  1.00  0.00     0.112 A 
HETATM   27  S   UNL     1       7.666  24.747  53.718  1.00  0.00    -0.067 SA
HETATM   28  C   UNL     1       7.780  23.044  53.930  1.00  0.00     0.035 A 
HETATM   29  C   UNL     1       7.675  22.751  55.289  1.00  0.00     0.075 A 
HETATM   30  C   UNL     1       7.951  22.036  52.968  1.00  0.00     0.021 A 
HETATM   31  N   UNL     1       7.514  23.848  56.118  1.00  0.00    -0.239 NA
HETATM   32  C   UNL     1       7.740  21.406  55.704  1.00  0.00     0.033 A 
HETATM   33  C   UNL     1       7.909  20.394  54.755  1.00  0.00     0.002 A 
HETATM   34  C   UNL     1       8.013  20.707  53.403  1.00  0.00     0.002 A 
ENDBRANCH  22  26
BRANCH  23  35
HETATM   35  O   UNL     1       8.282  25.481  58.152  1.00  0.00    -0.360 OA
HETATM   36  H   UNL     1       8.736  25.904  58.915  1.00  0.00     0.217 HD
ENDBRANCH  23  35
ENDBRANCH   1  20
TORSDOF 10
ENDMDL
MODEL 8
REMARK VINA RESULT:      -8.6      5.923     10.205
REMARK  10 active torsions:
REMARK  status: ('A' for Active; 'I' for Inactive)
REMARK    1  A    between atoms: C_2  and  C_3 
REMARK    2  A    between atoms: C_3  and  C_4 
REMARK    3  A    between atoms: C_4  and  O_5 
REMARK    4  A    between atoms: O_5  and  C_6 
REMARK    5  A    between atoms: C_9  and  C_10 
REMARK       I    between atoms: C_10  and  N_11 
REMARK    6  A    between atoms: N_11  and  C_12 
REMARK    7  A    between atoms: C_12  and  N_13 
REMARK    8  A    between atoms: N_13  and  C_14 
REMARK    9  A    between atoms: C_16  and  C_17 
REMARK   10  A    between atoms: C_26  and  O_27 
ROOT
HETATM    1  N   UNL     1       5.986  29.442  54.701  1.00  0.00    -0.333 N 
HETATM    2  H   UNL     1       6.700  30.007  54.240  1.00  0.00     0.168 HD
ENDROOT
BRANCH   1   3
HETATM    3  C   UNL     1       4.715  29.702  54.242  1.00  0.00     0.179 C 
HETATM    4  S   UNL     1       3.526  30.694  54.874  1.00  0.00    -0.040 SA
BRANCH   3   5
HETATM    5  N   UNL     1       4.363  29.035  53.082  1.00  0.00    -0.299 N 
HETATM    6  C   UNL     1       5.126  28.725  51.965  1.00  0.00     0.257 C 
HETATM    7  O   UNL     1       6.348  28.786  51.920  1.00  0.00    -0.267 OA
HETATM    8  H   UNL     1       3.389  28.760  53.071  1.00  0.00     0.171 HD
BRANCH   6   9
HETATM    9  C   UNL     1       4.332  28.214  50.822  1.00  0.00     0.032 A 
HETATM   10  C   UNL     1       4.839  27.180  50.024  1.00  0.00     0.020 A 
HETATM   11  C   UNL     1       4.121  26.748  48.907  1.00  0.00     0.038 A 
HETATM   12  C   UNL     1       2.894  27.335  48.601  1.00  0.00     0.068 A 
HETATM   13  C   UNL     1       2.391  28.368  49.395  1.00  0.00     0.038 A 
HETATM   14  C   UNL     1       3.099  28.798  50.520  1.00  0.00     0.020 A 
BRANCH  12  15
HETATM   15  O   UNL     1       2.190  27.011  47.474  1.00  0.00    -0.351 OA
BRANCH  15  16
HETATM   16  C   UNL     1       0.797  27.330  47.573  1.00  0.00     0.175 C 
BRANCH  16  17
HETATM   17  C   UNL     1       0.291  27.777  46.202  1.00  0.00     0.026 C 
BRANCH  17  18
HETATM   18  C   UNL     1      -0.487  29.094  46.278  1.00  0.00    -0.002 C 
HETATM   19  C   UNL     1      -1.561  29.169  45.203  1.00  0.00     0.005 C 
ENDBRANCH  17  18
ENDBRANCH  16  17
ENDBRANCH  15  16
ENDBRANCH  12  15
ENDBRANCH   6   9
ENDBRANCH   3   5
ENDBRANCH   1   3
BRANCH   1  20
HETATM   20  C   UNL     1       6.476  28.488  55.627  1.00  0.00     0.035 A 
HETATM   21  C   UNL     1       6.705  27.184  55.145  1.00  0.00     0.046 A 
HETATM   22  C   UNL     1       7.199  26.156  55.976  1.00  0.00     0.035 A 
HETATM   23  C   UNL     1       7.471  26.488  57.317  1.00  0.00     0.078 A 
HETATM   24  C   UNL     1       7.279  27.778  57.798  1.00  0.00     0.040 A 
HETATM   25  C   UNL     1       6.790  28.773  56.954  1.00  0.00     0.032 A 
BRANCH  22  26
HETATM   26  C   UNL     1       7.434  24.772  55.504  1.00  0.00     0.112 A 
HETATM   27  S   UNL     1       7.464  24.335  53.841  1.00  0.00    -0.067 SA
HETATM   28  C   UNL     1       7.784  22.696  54.255  1.00  0.00     0.035 A 
HETATM   29  C   UNL     1       7.847  22.587  55.643  1.00  0.00     0.075 A 
HETATM   30  C   UNL     1       7.967  21.585  53.417  1.00  0.00     0.021 A 
HETATM   31  N   UNL     1       7.650  23.768  56.338  1.00  0.00    -0.239 NA
HETATM   32  C   UNL     1       8.100  21.325  56.218  1.00  0.00     0.033 A 
HETATM   33  C   UNL     1       8.283  20.211  55.393  1.00  0.00     0.002 A 
HETATM   34  C   UNL     1       8.217  20.342  54.009  1.00  0.00     0.002 A 
ENDBRANCH  22  26
BRANCH  23  35
HETATM   35  O   UNL     1       7.950  25.588  58.235  1.00  0.00    -0.360 OA
HETATM   36  H   UNL     1       7.533  24.718  58.045  1.00  0.00     0.217 HD
ENDBRANCH  23  35
ENDBRANCH   1  20
TORSDOF 10
ENDMDL
MODEL 9
REMARK VINA RESULT:      -8.4      2.994      5.230
REMARK  10 active torsions:
REMARK  status: ('A' for Active; 'I' for Inactive)
REMARK    1  A    between atoms: C_2  and  C_3 
REMARK    2  A    between atoms: C_3  and  C_4 
REMARK    3  A    between atoms: C_4  and  O_5 
REMARK    4  A    between atoms: O_5  and  C_6 
REMARK    5  A    between atoms: C_9  and  C_10 
REMARK       I    between atoms: C_10  and  N_11 
REMARK    6  A    between atoms: N_11  and  C_12 
REMARK    7  A    between atoms: C_12  and  N_13 
REMARK    8  A    between atoms: N_13  and  C_14 
REMARK    9  A    between atoms: C_16  and  C_17 
REMARK   10  A    between atoms: C_26  and  O_27 
ROOT
HETATM    1  N   UNL     1       7.592  31.290  60.679  1.00  0.00    -0.333 N 
HETATM    2  H   UNL     1       7.942  30.977  61.586  1.00  0.00     0.168 HD
ENDROOT
BRANCH   1   3
HETATM    3  C   UNL     1       6.443  32.040  60.777  1.00  0.00     0.179 C 
HETATM    4  S   UNL     1       5.366  32.517  59.590  1.00  0.00    -0.040 SA
BRANCH   3   5
HETATM    5  N   UNL     1       6.133  32.474  62.054  1.00  0.00    -0.299 N 
HETATM    6  C   UNL     1       6.045  33.763  62.561  1.00  0.00     0.257 C 
HETATM    7  O   UNL     1       5.993  34.777  61.876  1.00  0.00    -0.267 OA
HETATM    8  H   UNL     1       5.968  31.709  62.696  1.00  0.00     0.171 HD
BRANCH   6   9
HETATM    9  C   UNL     1       5.925  33.817  64.038  1.00  0.00     0.032 A 
HETATM   10  C   UNL     1       4.660  33.893  64.635  1.00  0.00     0.020 A 
HETATM   11  C   UNL     1       4.552  34.014  66.021  1.00  0.00     0.038 A 
HETATM   12  C   UNL     1       5.704  34.040  66.808  1.00  0.00     0.068 A 
HETATM   13  C   UNL     1       6.964  33.968  66.211  1.00  0.00     0.038 A 
HETATM   14  C   UNL     1       7.079  33.835  64.825  1.00  0.00     0.020 A 
BRANCH  12  15
HETATM   15  O   UNL     1       5.661  34.242  68.160  1.00  0.00    -0.351 OA
BRANCH  15  16
HETATM   16  C   UNL     1       6.748  35.041  68.642  1.00  0.00     0.175 C 
BRANCH  16  17
HETATM   17  C   UNL     1       7.388  34.338  69.839  1.00  0.00     0.026 C 
BRANCH  17  18
HETATM   18  C   UNL     1       8.114  35.321  70.761  1.00  0.00    -0.002 C 
HETATM   19  C   UNL     1       7.144  36.024  71.699  1.00  0.00     0.005 C 
ENDBRANCH  17  18
ENDBRANCH  16  17
ENDBRANCH  15  16
ENDBRANCH  12  15
ENDBRANCH   6   9
ENDBRANCH   3   5
ENDBRANCH   1   3
BRANCH   1  20
HETATM   20  C   UNL     1       8.403  30.949  59.569  1.00  0.00     0.035 A 
HETATM   21  C   UNL     1       7.947  29.909  58.735  1.00  0.00     0.046 A 
HETATM   22  C   UNL     1       8.671  29.491  57.598  1.00  0.00     0.035 A 
HETATM   23  C   UNL     1       9.872  30.167  57.315  1.00  0.00     0.078 A 
HETATM   24  C   UNL     1      10.319  31.215  58.113  1.00  0.00     0.040 A 
HETATM   25  C   UNL     1       9.584  31.606  59.229  1.00  0.00     0.032 A 
BRANCH  22  26
HETATM   26  C   UNL     1       8.226  28.391  56.712  1.00  0.00     0.112 A 
HETATM   27  S   UNL     1       7.909  26.797  57.274  1.00  0.00    -0.067 SA
HETATM   28  C   UNL     1       7.483  26.297  55.684  1.00  0.00     0.035 A 
HETATM   29  C   UNL     1       7.611  27.384  54.821  1.00  0.00     0.075 A 
HETATM   30  C   UNL     1       7.065  25.037  55.228  1.00  0.00     0.021 A 
HETATM   31  N   UNL     1       8.030  28.563  55.414  1.00  0.00    -0.239 NA
HETATM   32  C   UNL     1       7.315  27.210  53.455  1.00  0.00     0.033 A 
HETATM   33  C   UNL     1       6.898  25.959  52.989  1.00  0.00     0.002 A 
HETATM   34  C   UNL     1       6.775  24.887  53.867  1.00  0.00     0.002 A 
ENDBRANCH  22  26
BRANCH  23  35
HETATM   35  O   UNL     1      10.676  29.862  56.247  1.00  0.00    -0.360 OA
HETATM   36  H   UNL     1      10.101  29.777  55.455  1.00  0.00     0.217 HD
ENDBRANCH  23  35
ENDBRANCH   1  20
TORSDOF 10
ENDMDL
MODEL 10
REMARK VINA RESULT:      -8.3      3.176      4.070
REMARK  10 active torsions:
REMARK  status: ('A' for Active; 'I' for Inactive)
REMARK    1  A    between atoms: C_2  and  C_3 
REMARK    2  A    between atoms: C_3  and  C_4 
REMARK    3  A    between atoms: C_4  and  O_5 
REMARK    4  A    between atoms: O_5  and  C_6 
REMARK    5  A    between atoms: C_9  and  C_10 
REMARK       I    between atoms: C_10  and  N_11 
REMARK    6  A    between atoms: N_11  and  C_12 
REMARK    7  A    between atoms: C_12  and  N_13 
REMARK    8  A    between atoms: N_13  and  C_14 
REMARK    9  A    between atoms: C_16  and  C_17 
REMARK   10  A    between atoms: C_26  and  O_27 
ROOT
HETATM    1  N   UNL     1       3.839  29.372  54.143  1.00  0.00    -0.333 N 
HETATM    2  H   UNL     1       2.987  29.030  54.589  1.00  0.00     0.168 HD
ENDROOT
BRANCH   1   3
HETATM    3  C   UNL     1       4.258  30.583  54.643  1.00  0.00     0.179 C 
HETATM    4  S   UNL     1       3.793  32.135  54.230  1.00  0.00    -0.040 SA
BRANCH   3   5
HETATM    5  N   UNL     1       5.218  30.506  55.637  1.00  0.00    -0.299 N 
HETATM    6  C   UNL     1       5.288  29.676  56.746  1.00  0.00     0.257 C 
HETATM    7  O   UNL     1       4.605  28.672  56.908  1.00  0.00    -0.267 OA
HETATM    8  H   UNL     1       5.960  31.184  55.515  1.00  0.00     0.171 HD
BRANCH   6   9
HETATM    9  C   UNL     1       6.348  30.056  57.711  1.00  0.00     0.032 A 
HETATM   10  C   UNL     1       6.212  31.223  58.476  1.00  0.00     0.020 A 
HETATM   11  C   UNL     1       7.242  31.616  59.332  1.00  0.00     0.038 A 
HETATM   12  C   UNL     1       8.394  30.837  59.437  1.00  0.00     0.068 A 
HETATM   13  C   UNL     1       8.531  29.677  58.671  1.00  0.00     0.038 A 
HETATM   14  C   UNL     1       7.499  29.272  57.820  1.00  0.00     0.020 A 
BRANCH  12  15
HETATM   15  O   UNL     1       9.468  31.219  60.194  1.00  0.00    -0.351 OA
BRANCH  15  16
HETATM   16  C   UNL     1       9.234  31.089  61.602  1.00  0.00     0.175 C 
BRANCH  16  17
HETATM   17  C   UNL     1       8.863  32.457  62.172  1.00  0.00     0.026 C 
BRANCH  17  18
HETATM   18  C   UNL     1       7.917  32.343  63.370  1.00  0.00    -0.002 C 
HETATM   19  C   UNL     1       6.471  32.182  62.925  1.00  0.00     0.005 C 
ENDBRANCH  17  18
ENDBRANCH  16  17
ENDBRANCH  15  16
ENDBRANCH  12  15
ENDBRANCH   6   9
ENDBRANCH   3   5
ENDBRANCH   1   3
BRANCH   1  20
HETATM   20  C   UNL     1       4.416  28.495  53.192  1.00  0.00     0.035 A 
HETATM   21  C   UNL     1       5.160  27.407  53.690  1.00  0.00     0.046 A 
HETATM   22  C   UNL     1       5.773  26.467  52.834  1.00  0.00     0.035 A 
HETATM   23  C   UNL     1       5.600  26.649  51.449  1.00  0.00     0.078 A 
HETATM   24  C   UNL     1       4.843  27.700  50.944  1.00  0.00     0.040 A 
HETATM   25  C   UNL     1       4.249  28.613  51.814  1.00  0.00     0.032 A 
BRANCH  22  26
HETATM   26  C   UNL     1       6.576  25.323  53.325  1.00  0.00     0.112 A 
HETATM   27  S   UNL     1       7.460  25.357  54.800  1.00  0.00    -0.067 SA
HETATM   28  C   UNL     1       7.996  23.743  54.541  1.00  0.00     0.035 A 
HETATM   29  C   UNL     1       7.463  23.280  53.339  1.00  0.00     0.075 A 
HETATM   30  C   UNL     1       8.826  22.940  55.340  1.00  0.00     0.021 A 
HETATM   31  N   UNL     1       6.660  24.181  52.662  1.00  0.00    -0.239 NA
HETATM   32  C   UNL     1       7.770  21.971  52.916  1.00  0.00     0.033 A 
HETATM   33  C   UNL     1       8.596  21.162  53.703  1.00  0.00     0.002 A 
HETATM   34  C   UNL     1       9.117  21.644  54.901  1.00  0.00     0.002 A 
ENDBRANCH  22  26
BRANCH  23  35
HETATM   35  O   UNL     1       6.143  25.814  50.504  1.00  0.00    -0.360 OA
HETATM   36  H   UNL     1       6.958  26.243  50.161  1.00  0.00     0.217 HD
ENDBRANCH  23  35
ENDBRANCH   1  20
TORSDOF 10
ENDMDL
