MODEL 1
REMARK VINA RESULT:      -9.1      0.000      0.000
REMARK  14 active torsions:
REMARK  status: ('A' for Active; 'I' for Inactive)
REMARK    1  A    between atoms: C_2  and  O_3 
REMARK    2  A    between atoms: O_3  and  C_4 
REMARK    3  A    between atoms: C_5  and  O_6 
REMARK    4  A    between atoms: C_9  and  C_10 
REMARK    5  A    between atoms: N_11  and  C_12 
REMARK    6  A    between atoms: C_12  and  C_13 
REMARK    7  A    between atoms: C_13  and  C_14 
REMARK    8  A    between atoms: C_14  and  N_15 
REMARK    9  A    between atoms: C_24  and  O_25 
REMARK   10  A    between atoms: C_26  and  C_27 
REMARK   11  A    between atoms: C_27  and  C_28 
REMARK   12  A    between atoms: C_32  and  O_33 
REMARK   13  A    between atoms: O_33  and  C_34 
REMARK   14  A    between atoms: C_34  and  C_35 
ROOT
HETATM    1  C   UNL     1       6.683  27.269  54.716  1.00  0.00     0.161 C 
HETATM    2  N   UNL     1       6.093  26.016  55.180  1.00  0.00    -0.333 N 
HETATM    3  C   UNL     1       6.374  25.800  56.514  1.00  0.00     0.278 C 
HETATM    4  O   UNL     1       6.022  24.869  57.218  1.00  0.00    -0.265 OA
HETATM    5  C   UNL     1       7.242  26.905  56.975  1.00  0.00     0.146 C 
HETATM    6  C   UNL     1       7.478  27.685  55.915  1.00  0.00     0.059 C 
ENDROOT
BRANCH   6   7
HETATM    7  C   UNL     1       8.423  28.813  55.782  1.00  0.00     0.193 C 
HETATM    8  O   UNL     1       9.095  28.915  54.760  1.00  0.00    -0.287 OA
BRANCH   7   9
HETATM    9  C   UNL     1       8.658  29.753  56.911  1.00  0.00     0.015 A 
HETATM   10  C   UNL     1       7.547  30.353  57.519  1.00  0.00     0.025 A 
HETATM   11  C   UNL     1       7.713  31.298  58.546  1.00  0.00    -0.028 A 
HETATM   12  C   UNL     1       6.505  31.938  59.175  1.00  0.00     0.051 C 
HETATM   13  C   UNL     1       9.008  31.642  58.972  1.00  0.00     0.074 A 
HETATM   14  C   UNL     1      10.114  31.064  58.343  1.00  0.00     0.038 A 
HETATM   15  C   UNL     1       9.941  30.137  57.310  1.00  0.00     0.018 A 
BRANCH  13  16
HETATM   16  O   UNL     1       9.081  32.567  59.980  1.00  0.00    -0.350 OA
BRANCH  16  17
HETATM   17  C   UNL     1       9.616  32.135  61.233  1.00  0.00     0.179 C 
BRANCH  17  18
HETATM   18  C   UNL     1       8.487  31.541  62.086  1.00  0.00     0.002 C 
HETATM   19  C   UNL     1       8.841  30.138  62.585  1.00  0.00     0.011 C 
HETATM   20  C   UNL     1       8.172  32.461  63.264  1.00  0.00     0.011 C 
ENDBRANCH  17  18
ENDBRANCH  16  17
ENDBRANCH  13  16
ENDBRANCH   7   9
ENDBRANCH   6   7
BRANCH   1  21
HETATM   21  C   UNL     1       5.561  28.208  54.293  1.00  0.00    -0.028 A 
HETATM   22  C   UNL     1       5.250  28.419  52.935  1.00  0.00     0.012 A 
HETATM   23  C   UNL     1       4.280  29.347  52.562  1.00  0.00     0.040 A 
HETATM   24  C   UNL     1       3.612  30.059  53.546  1.00  0.00     0.099 A 
HETATM   25  C   UNL     1       3.870  29.854  54.904  1.00  0.00     0.102 A 
HETATM   26  C   UNL     1       4.850  28.930  55.273  1.00  0.00     0.049 A 
BRANCH  24  27
HETATM   27  O   UNL     1       2.678  30.977  53.151  1.00  0.00    -0.358 OA
HETATM   28  H   UNL     1       1.820  30.513  53.205  1.00  0.00     0.218 HD
ENDBRANCH  24  27
BRANCH  25  29
HETATM   29  O   UNL     1       3.128  30.627  55.757  1.00  0.00    -0.349 OA
BRANCH  29  30
HETATM   30  C   UNL     1       3.848  31.398  56.719  1.00  0.00     0.171 C 
HETATM   31  C   UNL     1       4.607  32.482  55.975  1.00  0.00     0.034 C 
ENDBRANCH  29  30
ENDBRANCH  25  29
ENDBRANCH   1  21
BRANCH   5  32
HETATM   32  O   UNL     1       7.754  26.984  58.234  1.00  0.00    -0.355 OA
HETATM   33  H   UNL     1       8.711  26.792  58.164  1.00  0.00     0.218 HD
ENDBRANCH   5  32
BRANCH   2  34
HETATM   34  C   UNL     1       5.719  24.978  54.232  1.00  0.00     0.129 C 
BRANCH  34  35
HETATM   35  C   UNL     1       6.885  24.334  53.483  1.00  0.00     0.048 C 
BRANCH  35  36
HETATM   36  C   UNL     1       8.095  24.120  54.384  1.00  0.00     0.236 C 
BRANCH  36  37
HETATM   37  N   UNL     1       8.616  22.708  54.212  1.00  0.00    -0.067 N 
HETATM   38  H   UNL     1       9.602  22.760  53.926  1.00  0.00     0.280 HD
HETATM   39  C   UNL     1       8.554  21.898  55.512  1.00  0.00     0.261 C 
HETATM   40  C   UNL     1       9.099  20.488  55.259  1.00  0.00     0.195 C 
HETATM   41  O   UNL     1       8.371  19.834  54.213  1.00  0.00    -0.388 OA
HETATM   42  C   UNL     1       8.458  20.546  52.974  1.00  0.00     0.195 C 
HETATM   43  C   UNL     1       7.874  21.957  53.109  1.00  0.00     0.261 C 
ENDBRANCH  36  37
ENDBRANCH  35  36
ENDBRANCH  34  35
ENDBRANCH   2  34
TORSDOF 14
ENDMDL
MODEL 2
REMARK VINA RESULT:      -9.1      1.712      2.887
REMARK  14 active torsions:
REMARK  status: ('A' for Active; 'I' for Inactive)
REMARK    1  A    between atoms: C_2  and  O_3 
REMARK    2  A    between atoms: O_3  and  C_4 
REMARK    3  A    between atoms: C_5  and  O_6 
REMARK    4  A    between atoms: C_9  and  C_10 
REMARK    5  A    between atoms: N_11  and  C_12 
REMARK    6  A    between atoms: C_12  and  C_13 
REMARK    7  A    between atoms: C_13  and  C_14 
REMARK    8  A    between atoms: C_14  and  N_15 
REMARK    9  A    between atoms: C_24  and  O_25 
REMARK   10  A    between atoms: C_26  and  C_27 
REMARK   11  A    between atoms: C_27  and  C_28 
REMARK   12  A    between atoms: C_32  and  O_33 
REMARK   13  A    between atoms: O_33  and  C_34 
REMARK   14  A    between atoms: C_34  and  C_35 
ROOT
HETATM    1  C   UNL     1       6.797  26.671  53.970  1.00  0.00     0.161 C 
HETATM    2  N   UNL     1       6.327  25.349  54.379  1.00  0.00    -0.333 N 
HETATM    3  C   UNL     1       6.394  25.202  55.750  1.00  0.00     0.278 C 
HETATM    4  O   UNL     1       6.063  24.240  56.422  1.00  0.00    -0.265 OA
HETATM    5  C   UNL     1       6.992  26.435  56.306  1.00  0.00     0.146 C 
HETATM    6  C   UNL     1       7.294  27.224  55.270  1.00  0.00     0.059 C 
ENDROOT
BRANCH   6   7
HETATM    7  C   UNL     1       8.070  28.481  55.254  1.00  0.00     0.193 C 
HETATM    8  O   UNL     1       8.728  28.768  54.258  1.00  0.00    -0.287 OA
BRANCH   7   9
HETATM    9  C   UNL     1       8.161  29.341  56.465  1.00  0.00     0.015 A 
HETATM   10  C   UNL     1       7.015  30.037  56.874  1.00  0.00     0.025 A 
HETATM   11  C   UNL     1       7.061  30.914  57.972  1.00  0.00    -0.028 A 
HETATM   12  C   UNL     1       5.821  31.661  58.384  1.00  0.00     0.051 C 
HETATM   13  C   UNL     1       8.268  31.091  58.671  1.00  0.00     0.074 A 
HETATM   14  C   UNL     1       9.414  30.418  58.243  1.00  0.00     0.038 A 
HETATM   15  C   UNL     1       9.365  29.559  57.138  1.00  0.00     0.018 A 
BRANCH  13  16
HETATM   16  O   UNL     1       8.225  31.958  59.730  1.00  0.00    -0.350 OA
BRANCH  16  17
HETATM   17  C   UNL     1       9.448  32.214  60.423  1.00  0.00     0.179 C 
BRANCH  17  18
HETATM   18  C   UNL     1       9.296  31.788  61.890  1.00  0.00     0.002 C 
HETATM   19  C   UNL     1       7.982  32.295  62.488  1.00  0.00     0.011 C 
HETATM   20  C   UNL     1       9.383  30.268  62.012  1.00  0.00     0.011 C 
ENDBRANCH  17  18
ENDBRANCH  16  17
ENDBRANCH  13  16
ENDBRANCH   7   9
ENDBRANCH   6   7
BRANCH   1  21
HETATM   21  C   UNL     1       5.642  27.418  53.318  1.00  0.00    -0.028 A 
HETATM   22  C   UNL     1       4.636  28.034  54.088  1.00  0.00     0.012 A 
HETATM   23  C   UNL     1       3.540  28.638  53.476  1.00  0.00     0.040 A 
HETATM   24  C   UNL     1       3.452  28.636  52.092  1.00  0.00     0.099 A 
HETATM   25  C   UNL     1       4.447  28.064  51.294  1.00  0.00     0.102 A 
HETATM   26  C   UNL     1       5.538  27.451  51.913  1.00  0.00     0.049 A 
BRANCH  24  27
HETATM   27  O   UNL     1       2.356  29.219  51.518  1.00  0.00    -0.358 OA
HETATM   28  H   UNL     1       2.328  28.873  50.605  1.00  0.00     0.218 HD
ENDBRANCH  24  27
BRANCH  25  29
HETATM   29  O   UNL     1       4.223  28.144  49.946  1.00  0.00    -0.349 OA
BRANCH  29  30
HETATM   30  C   UNL     1       4.186  26.913  49.224  1.00  0.00     0.171 C 
HETATM   31  C   UNL     1       4.570  27.204  47.784  1.00  0.00     0.034 C 
ENDBRANCH  29  30
ENDBRANCH  25  29
ENDBRANCH   1  21
BRANCH   5  32
HETATM   32  O   UNL     1       7.252  26.613  57.630  1.00  0.00    -0.355 OA
HETATM   33  H   UNL     1       8.203  26.831  57.706  1.00  0.00     0.218 HD
ENDBRANCH   5  32
BRANCH   2  34
HETATM   34  C   UNL     1       6.287  24.250  53.427  1.00  0.00     0.129 C 
BRANCH  34  35
HETATM   35  C   UNL     1       7.578  24.025  52.643  1.00  0.00     0.048 C 
BRANCH  35  36
HETATM   36  C   UNL     1       8.177  22.649  52.910  1.00  0.00     0.236 C 
BRANCH  36  37
HETATM   37  N   UNL     1       7.924  22.253  54.350  1.00  0.00    -0.067 N 
HETATM   38  H   UNL     1       7.044  22.685  54.656  1.00  0.00     0.280 HD
HETATM   39  C   UNL     1       7.779  20.737  54.524  1.00  0.00     0.261 C 
HETATM   40  C   UNL     1       7.525  20.417  56.002  1.00  0.00     0.195 C 
HETATM   41  O   UNL     1       8.576  20.928  56.829  1.00  0.00    -0.388 OA
HETATM   42  C   UNL     1       8.697  22.350  56.722  1.00  0.00     0.195 C 
HETATM   43  C   UNL     1       9.018  22.768  55.283  1.00  0.00     0.261 C 
ENDBRANCH  36  37
ENDBRANCH  35  36
ENDBRANCH  34  35
ENDBRANCH   2  34
TORSDOF 14
ENDMDL
MODEL 3
REMARK VINA RESULT:      -8.9      2.697      8.922
REMARK  14 active torsions:
REMARK  status: ('A' for Active; 'I' for Inactive)
REMARK    1  A    between atoms: C_2  and  O_3 
REMARK    2  A    between atoms: O_3  and  C_4 
REMARK    3  A    between atoms: C_5  and  O_6 
REMARK    4  A    between atoms: C_9  and  C_10 
REMARK    5  A    between atoms: N_11  and  C_12 
REMARK    6  A    between atoms: C_12  and  C_13 
REMARK    7  A    between atoms: C_13  and  C_14 
REMARK    8  A    between atoms: C_14  and  N_15 
REMARK    9  A    between atoms: C_24  and  O_25 
REMARK   10  A    between atoms: C_26  and  C_27 
REMARK   11  A    between atoms: C_27  and  C_28 
REMARK   12  A    between atoms: C_32  and  O_33 
REMARK   13  A    between atoms: O_33  and  C_34 
REMARK   14  A    between atoms: C_34  and  C_35 
ROOT
HETATM    1  C   UNL     1       7.675  29.857  58.235  1.00  0.00     0.161 C 
HETATM    2  N   UNL     1       8.815  30.530  58.853  1.00  0.00    -0.333 N 
HETATM    3  C   UNL     1       9.842  30.697  57.947  1.00  0.00     0.278 C 
HETATM    4  O   UNL     1      10.923  31.234  58.122  1.00  0.00    -0.265 OA
HETATM    5  C   UNL     1       9.429  30.063  56.677  1.00  0.00     0.146 C 
HETATM    6  C   UNL     1       8.228  29.514  56.887  1.00  0.00     0.059 C 
ENDROOT
BRANCH   6   7
HETATM    7  C   UNL     1       7.452  28.612  56.011  1.00  0.00     0.193 C 
HETATM    8  O   UNL     1       6.563  29.079  55.305  1.00  0.00    -0.287 OA
BRANCH   7   9
HETATM    9  C   UNL     1       7.650  27.138  56.061  1.00  0.00     0.015 A 
HETATM   10  C   UNL     1       7.080  26.356  55.047  1.00  0.00     0.025 A 
HETATM   11  C   UNL     1       7.180  24.954  55.079  1.00  0.00    -0.028 A 
HETATM   12  C   UNL     1       6.548  24.134  53.987  1.00  0.00     0.051 C 
HETATM   13  C   UNL     1       7.865  24.330  56.137  1.00  0.00     0.074 A 
HETATM   14  C   UNL     1       8.407  25.111  57.160  1.00  0.00     0.038 A 
HETATM   15  C   UNL     1       8.289  26.505  57.130  1.00  0.00     0.018 A 
BRANCH  13  16
HETATM   16  O   UNL     1       7.921  22.962  56.090  1.00  0.00    -0.350 OA
BRANCH  16  17
HETATM   17  C   UNL     1       9.072  22.369  55.486  1.00  0.00     0.179 C 
BRANCH  17  18
HETATM   18  C   UNL     1       8.751  20.917  55.105  1.00  0.00     0.002 C 
HETATM   19  C   UNL     1       7.711  20.307  56.047  1.00  0.00     0.011 C 
HETATM   20  C   UNL     1       8.265  20.843  53.659  1.00  0.00     0.011 C 
ENDBRANCH  17  18
ENDBRANCH  16  17
ENDBRANCH  13  16
ENDBRANCH   7   9
ENDBRANCH   6   7
BRANCH   1  21
HETATM   21  C   UNL     1       6.483  30.804  58.253  1.00  0.00    -0.028 A 
HETATM   22  C   UNL     1       6.557  32.069  58.872  1.00  0.00     0.012 A 
HETATM   23  C   UNL     1       5.433  32.887  58.956  1.00  0.00     0.040 A 
HETATM   24  C   UNL     1       4.234  32.447  58.415  1.00  0.00     0.099 A 
HETATM   25  C   UNL     1       4.130  31.214  57.766  1.00  0.00     0.102 A 
HETATM   26  C   UNL     1       5.258  30.393  57.692  1.00  0.00     0.049 A 
BRANCH  24  27
HETATM   27  O   UNL     1       3.142  33.262  58.529  1.00  0.00    -0.358 OA
HETATM   28  H   UNL     1       3.029  33.668  57.647  1.00  0.00     0.218 HD
ENDBRANCH  24  27
BRANCH  25  29
HETATM   29  O   UNL     1       2.884  30.920  57.279  1.00  0.00    -0.349 OA
BRANCH  29  30
HETATM   30  C   UNL     1       2.760  30.787  55.863  1.00  0.00     0.171 C 
HETATM   31  C   UNL     1       2.259  32.109  55.312  1.00  0.00     0.034 C 
ENDBRANCH  29  30
ENDBRANCH  25  29
ENDBRANCH   1  21
BRANCH   5  32
HETATM   32  O   UNL     1      10.226  29.997  55.575  1.00  0.00    -0.355 OA
HETATM   33  H   UNL     1      10.388  29.049  55.398  1.00  0.00     0.218 HD
ENDBRANCH   5  32
BRANCH   2  34
HETATM   34  C   UNL     1       8.974  30.539  60.300  1.00  0.00     0.129 C 
BRANCH  34  35
HETATM   35  C   UNL     1       9.024  31.926  60.937  1.00  0.00     0.048 C 
BRANCH  35  36
HETATM   36  C   UNL     1       8.831  31.869  62.447  1.00  0.00     0.236 C 
BRANCH  36  37
HETATM   37  N   UNL     1       7.502  32.496  62.817  1.00  0.00    -0.067 N 
HETATM   38  H   UNL     1       7.360  33.325  62.227  1.00  0.00     0.280 HD
HETATM   39  C   UNL     1       6.321  31.549  62.578  1.00  0.00     0.261 C 
HETATM   40  C   UNL     1       5.017  32.254  62.972  1.00  0.00     0.195 C 
HETATM   41  O   UNL     1       5.058  32.687  64.337  1.00  0.00    -0.388 OA
HETATM   42  C   UNL     1       6.123  33.613  64.573  1.00  0.00     0.195 C 
HETATM   43  C   UNL     1       7.483  32.975  64.267  1.00  0.00     0.261 C 
ENDBRANCH  36  37
ENDBRANCH  35  36
ENDBRANCH  34  35
ENDBRANCH   2  34
TORSDOF 14
ENDMDL
MODEL 4
REMARK VINA RESULT:      -8.7      3.006      9.000
REMARK  14 active torsions:
REMARK  status: ('A' for Active; 'I' for Inactive)
REMARK    1  A    between atoms: C_2  and  O_3 
REMARK    2  A    between atoms: O_3  and  C_4 
REMARK    3  A    between atoms: C_5  and  O_6 
REMARK    4  A    between atoms: C_9  and  C_10 
REMARK    5  A    between atoms: N_11  and  C_12 
REMARK    6  A    between atoms: C_12  and  C_13 
REMARK    7  A    between atoms: C_13  and  C_14 
REMARK    8  A    between atoms: C_14  and  N_15 
REMARK    9  A    between atoms: C_24  and  O_25 
REMARK   10  A    between atoms: C_26  and  C_27 
REMARK   11  A    between atoms: C_27  and  C_28 
REMARK   12  A    between atoms: C_32  and  O_33 
REMARK   13  A    between atoms: O_33  and  C_34 
REMARK   14  A    between atoms: C_34  and  C_35 
ROOT
HETATM    1  C   UNL     1       7.562  30.110  58.518  1.00  0.00     0.161 C 
HETATM    2  N   UNL     1       8.479  31.219  58.773  1.00  0.00    -0.333 N 
HETATM    3  C   UNL     1       9.656  31.059  58.069  1.00  0.00     0.278 C 
HETATM    4  O   UNL     1      10.622  31.803  58.036  1.00  0.00    -0.265 OA
HETATM    5  C   UNL     1       9.581  29.766  57.355  1.00  0.00     0.146 C 
HETATM    6  C   UNL     1       8.418  29.201  57.692  1.00  0.00     0.059 C 
ENDROOT
BRANCH   6   7
HETATM    7  C   UNL     1       7.931  27.836  57.406  1.00  0.00     0.193 C 
HETATM    8  O   UNL     1       7.863  27.019  58.320  1.00  0.00    -0.287 OA
BRANCH   7   9
HETATM    9  C   UNL     1       7.635  27.403  56.013  1.00  0.00     0.015 A 
HETATM   10  C   UNL     1       7.440  26.037  55.768  1.00  0.00     0.025 A 
HETATM   11  C   UNL     1       7.223  25.565  54.462  1.00  0.00    -0.028 A 
HETATM   12  C   UNL     1       7.029  24.093  54.221  1.00  0.00     0.051 C 
HETATM   13  C   UNL     1       7.195  26.475  53.389  1.00  0.00     0.074 A 
HETATM   14  C   UNL     1       7.419  27.832  53.634  1.00  0.00     0.038 A 
HETATM   15  C   UNL     1       7.652  28.292  54.935  1.00  0.00     0.018 A 
BRANCH  13  16
HETATM   16  O   UNL     1       6.973  25.934  52.151  1.00  0.00    -0.350 OA
BRANCH  16  17
HETATM   17  C   UNL     1       5.618  25.837  51.707  1.00  0.00     0.179 C 
BRANCH  17  18
HETATM   18  C   UNL     1       5.322  26.989  50.737  1.00  0.00     0.002 C 
HETATM   19  C   UNL     1       4.628  26.490  49.468  1.00  0.00     0.011 C 
HETATM   20  C   UNL     1       4.470  28.055  51.424  1.00  0.00     0.011 C 
ENDBRANCH  17  18
ENDBRANCH  16  17
ENDBRANCH  13  16
ENDBRANCH   7   9
ENDBRANCH   6   7
BRANCH   1  21
HETATM   21  C   UNL     1       6.313  30.658  57.842  1.00  0.00    -0.028 A 
HETATM   22  C   UNL     1       6.212  30.742  56.438  1.00  0.00     0.012 A 
HETATM   23  C   UNL     1       5.099  31.326  55.838  1.00  0.00     0.040 A 
HETATM   24  C   UNL     1       4.080  31.820  56.638  1.00  0.00     0.099 A 
HETATM   25  C   UNL     1       4.130  31.726  58.032  1.00  0.00     0.102 A 
HETATM   26  C   UNL     1       5.252  31.148  58.630  1.00  0.00     0.049 A 
BRANCH  24  27
HETATM   27  O   UNL     1       3.008  32.405  56.023  1.00  0.00    -0.358 OA
HETATM   28  H   UNL     1       2.419  32.693  56.748  1.00  0.00     0.218 HD
ENDBRANCH  24  27
BRANCH  25  29
HETATM   29  O   UNL     1       3.048  32.253  58.685  1.00  0.00    -0.349 OA
BRANCH  29  30
HETATM   30  C   UNL     1       3.205  32.525  60.078  1.00  0.00     0.171 C 
HETATM   31  C   UNL     1       3.144  34.029  60.269  1.00  0.00     0.034 C 
ENDBRANCH  29  30
ENDBRANCH  25  29
ENDBRANCH   1  21
BRANCH   5  32
HETATM   32  O   UNL     1      10.597  29.265  56.599  1.00  0.00    -0.355 OA
HETATM   33  H   UNL     1      11.142  28.707  57.189  1.00  0.00     0.218 HD
ENDBRANCH   5  32
BRANCH   2  34
HETATM   34  C   UNL     1       8.326  32.049  59.957  1.00  0.00     0.129 C 
BRANCH  34  35
HETATM   35  C   UNL     1       8.153  31.284  61.268  1.00  0.00     0.048 C 
BRANCH  35  36
HETATM   36  C   UNL     1       8.515  32.134  62.479  1.00  0.00     0.236 C 
BRANCH  36  37
HETATM   37  N   UNL     1       7.265  32.777  63.044  1.00  0.00    -0.067 N 
HETATM   38  H   UNL     1       7.134  33.688  62.587  1.00  0.00     0.280 HD
HETATM   39  C   UNL     1       6.007  31.942  62.781  1.00  0.00     0.261 C 
HETATM   40  C   UNL     1       4.789  32.656  63.379  1.00  0.00     0.195 C 
HETATM   41  O   UNL     1       4.964  32.890  64.781  1.00  0.00    -0.388 OA
HETATM   42  C   UNL     1       6.105  33.712  65.047  1.00  0.00     0.195 C 
HETATM   43  C   UNL     1       7.391  33.048  64.542  1.00  0.00     0.261 C 
ENDBRANCH  36  37
ENDBRANCH  35  36
ENDBRANCH  34  35
ENDBRANCH   2  34
TORSDOF 14
ENDMDL
MODEL 5
REMARK VINA RESULT:      -8.6      2.504      8.610
REMARK  14 active torsions:
REMARK  status: ('A' for Active; 'I' for Inactive)
REMARK    1  A    between atoms: C_2  and  O_3 
REMARK    2  A    between atoms: O_3  and  C_4 
REMARK    3  A    between atoms: C_5  and  O_6 
REMARK    4  A    between atoms: C_9  and  C_10 
REMARK    5  A    between atoms: N_11  and  C_12 
REMARK    6  A    between atoms: C_12  and  C_13 
REMARK    7  A    between atoms: C_13  and  C_14 
REMARK    8  A    between atoms: C_14  and  N_15 
REMARK    9  A    between atoms: C_24  and  O_25 
REMARK   10  A    between atoms: C_26  and  C_27 
REMARK   11  A    between atoms: C_27  and  C_28 
REMARK   12  A    between atoms: C_32  and  O_33 
REMARK   13  A    between atoms: O_33  and  C_34 
REMARK   14  A    between atoms: C_34  and  C_35 
ROOT
HETATM    1  C   UNL     1       5.045  29.071  56.555  1.00  0.00     0.161 C 
HETATM    2  N   UNL     1       5.709  30.264  57.077  1.00  0.00    -0.333 N 
HETATM    3  C   UNL     1       6.987  29.971  57.507  1.00  0.00     0.278 C 
HETATM    4  O   UNL     1       7.817  30.731  57.976  1.00  0.00    -0.265 OA
HETATM    5  C   UNL     1       7.196  28.516  57.341  1.00  0.00     0.146 C 
HETATM    6  C   UNL     1       6.049  28.008  56.879  1.00  0.00     0.059 C 
ENDROOT
BRANCH   6   7
HETATM    7  C   UNL     1       5.660  26.592  56.714  1.00  0.00     0.193 C 
HETATM    8  O   UNL     1       4.559  26.222  57.112  1.00  0.00    -0.287 OA
BRANCH   7   9
HETATM    9  C   UNL     1       6.622  25.589  56.184  1.00  0.00     0.015 A 
HETATM   10  C   UNL     1       6.677  25.387  54.798  1.00  0.00     0.025 A 
HETATM   11  C   UNL     1       7.521  24.407  54.247  1.00  0.00    -0.028 A 
HETATM   12  C   UNL     1       7.552  24.199  52.757  1.00  0.00     0.051 C 
HETATM   13  C   UNL     1       8.324  23.624  55.096  1.00  0.00     0.074 A 
HETATM   14  C   UNL     1       8.245  23.808  56.478  1.00  0.00     0.038 A 
HETATM   15  C   UNL     1       7.390  24.775  57.020  1.00  0.00     0.018 A 
BRANCH  13  16
HETATM   16  O   UNL     1       9.120  22.696  54.479  1.00  0.00    -0.350 OA
BRANCH  16  17
HETATM   17  C   UNL     1       9.516  21.554  55.242  1.00  0.00     0.179 C 
BRANCH  17  18
HETATM   18  C   UNL     1       8.616  20.366  54.876  1.00  0.00     0.002 C 
HETATM   19  C   UNL     1       7.475  20.196  55.881  1.00  0.00     0.011 C 
HETATM   20  C   UNL     1       8.059  20.538  53.464  1.00  0.00     0.011 C 
ENDBRANCH  17  18
ENDBRANCH  16  17
ENDBRANCH  13  16
ENDBRANCH   7   9
ENDBRANCH   6   7
BRANCH   1  21
HETATM   21  C   UNL     1       4.746  29.287  55.078  1.00  0.00    -0.028 A 
HETATM   22  C   UNL     1       3.748  30.187  54.653  1.00  0.00     0.012 A 
HETATM   23  C   UNL     1       3.426  30.308  53.303  1.00  0.00     0.040 A 
HETATM   24  C   UNL     1       4.108  29.538  52.374  1.00  0.00     0.099 A 
HETATM   25  C   UNL     1       5.126  28.659  52.754  1.00  0.00     0.102 A 
HETATM   26  C   UNL     1       5.438  28.533  54.109  1.00  0.00     0.049 A 
BRANCH  24  27
HETATM   27  O   UNL     1       3.759  29.663  51.057  1.00  0.00    -0.358 OA
HETATM   28  H   UNL     1       4.443  30.239  50.662  1.00  0.00     0.218 HD
ENDBRANCH  24  27
BRANCH  25  29
HETATM   29  O   UNL     1       5.710  27.971  51.724  1.00  0.00    -0.349 OA
BRANCH  29  30
HETATM   30  C   UNL     1       5.309  26.613  51.546  1.00  0.00     0.171 C 
HETATM   31  C   UNL     1       4.971  26.414  50.079  1.00  0.00     0.034 C 
ENDBRANCH  29  30
ENDBRANCH  25  29
ENDBRANCH   1  21
BRANCH   5  32
HETATM   32  O   UNL     1       8.336  27.873  57.715  1.00  0.00    -0.355 OA
HETATM   33  H   UNL     1       8.903  28.534  58.159  1.00  0.00     0.218 HD
ENDBRANCH   5  32
BRANCH   2  34
HETATM   34  C   UNL     1       4.930  31.415  57.508  1.00  0.00     0.129 C 
BRANCH  34  35
HETATM   35  C   UNL     1       3.787  31.100  58.470  1.00  0.00     0.048 C 
BRANCH  35  36
HETATM   36  C   UNL     1       3.657  32.151  59.566  1.00  0.00     0.236 C 
BRANCH  36  37
HETATM   37  N   UNL     1       4.714  31.918  60.626  1.00  0.00    -0.067 N 
HETATM   38  H   UNL     1       5.024  30.940  60.564  1.00  0.00     0.280 HD
HETATM   39  C   UNL     1       5.946  32.808  60.431  1.00  0.00     0.261 C 
HETATM   40  C   UNL     1       6.966  32.513  61.538  1.00  0.00     0.195 C 
HETATM   41  O   UNL     1       6.392  32.710  62.835  1.00  0.00    -0.388 OA
HETATM   42  C   UNL     1       5.270  31.851  63.059  1.00  0.00     0.195 C 
HETATM   43  C   UNL     1       4.160  32.118  62.036  1.00  0.00     0.261 C 
ENDBRANCH  36  37
ENDBRANCH  35  36
ENDBRANCH  34  35
ENDBRANCH   2  34
TORSDOF 14
ENDMDL
MODEL 6
REMARK VINA RESULT:      -8.6      3.286      9.931
REMARK  14 active torsions:
REMARK  status: ('A' for Active; 'I' for Inactive)
REMARK    1  A    between atoms: C_2  and  O_3 
REMARK    2  A    between atoms: O_3  and  C_4 
REMARK    3  A    between atoms: C_5  and  O_6 
REMARK    4  A    between atoms: C_9  and  C_10 
REMARK    5  A    between atoms: N_11  and  C_12 
REMARK    6  A    between atoms: C_12  and  C_13 
REMARK    7  A    between atoms: C_13  and  C_14 
REMARK    8  A    between atoms: C_14  and  N_15 
REMARK    9  A    between atoms: C_24  and  O_25 
REMARK   10  A    between atoms: C_26  and  C_27 
REMARK   11  A    between atoms: C_27  and  C_28 
REMARK   12  A    between atoms: C_32  and  O_33 
REMARK   13  A    between atoms: O_33  and  C_34 
REMARK   14  A    between atoms: C_34  and  C_35 
ROOT
HETATM    1  C   UNL     1       6.974  26.791  54.110  1.00  0.00     0.161 C 
HETATM    2  N   UNL     1       6.925  27.897  55.063  1.00  0.00    -0.333 N 
HETATM    3  C   UNL     1       5.660  28.447  55.119  1.00  0.00     0.278 C 
HETATM    4  O   UNL     1       5.267  29.364  55.819  1.00  0.00    -0.265 OA
HETATM    5  C   UNL     1       4.820  27.745  54.124  1.00  0.00     0.146 C 
HETATM    6  C   UNL     1       5.609  26.865  53.499  1.00  0.00     0.059 C 
ENDROOT
BRANCH   6   7
HETATM    7  C   UNL     1       5.321  26.043  52.305  1.00  0.00     0.193 C 
HETATM    8  O   UNL     1       5.452  24.824  52.371  1.00  0.00    -0.287 OA
BRANCH   7   9
HETATM    9  C   UNL     1       4.993  26.676  51.000  1.00  0.00     0.015 A 
HETATM   10  C   UNL     1       4.405  25.883  50.005  1.00  0.00     0.025 A 
HETATM   11  C   UNL     1       4.134  26.412  48.731  1.00  0.00    -0.028 A 
HETATM   12  C   UNL     1       3.515  25.537  47.674  1.00  0.00     0.051 C 
HETATM   13  C   UNL     1       4.450  27.754  48.454  1.00  0.00     0.074 A 
HETATM   14  C   UNL     1       5.062  28.533  49.438  1.00  0.00     0.038 A 
HETATM   15  C   UNL     1       5.345  27.994  50.699  1.00  0.00     0.018 A 
BRANCH  13  16
HETATM   16  O   UNL     1       4.148  28.192  47.191  1.00  0.00    -0.350 OA
BRANCH  16  17
HETATM   17  C   UNL     1       3.240  29.288  47.073  1.00  0.00     0.179 C 
BRANCH  17  18
HETATM   18  C   UNL     1       1.901  28.906  47.718  1.00  0.00     0.002 C 
HETATM   19  C   UNL     1       1.293  30.081  48.486  1.00  0.00     0.011 C 
HETATM   20  C   UNL     1       0.925  28.403  46.656  1.00  0.00     0.011 C 
ENDBRANCH  17  18
ENDBRANCH  16  17
ENDBRANCH  13  16
ENDBRANCH   7   9
ENDBRANCH   6   7
BRANCH   1  21
HETATM   21  C   UNL     1       7.306  25.511  54.865  1.00  0.00    -0.028 A 
HETATM   22  C   UNL     1       6.916  25.326  56.207  1.00  0.00     0.012 A 
HETATM   23  C   UNL     1       7.303  24.188  56.910  1.00  0.00     0.040 A 
HETATM   24  C   UNL     1       8.073  23.227  56.272  1.00  0.00     0.099 A 
HETATM   25  C   UNL     1       8.451  23.360  54.933  1.00  0.00     0.102 A 
HETATM   26  C   UNL     1       8.070  24.508  54.235  1.00  0.00     0.049 A 
BRANCH  24  27
HETATM   27  O   UNL     1       8.454  22.129  56.992  1.00  0.00    -0.358 OA
HETATM   28  H   UNL     1       9.406  22.257  57.175  1.00  0.00     0.218 HD
ENDBRANCH  24  27
BRANCH  25  29
HETATM   29  O   UNL     1       9.206  22.329  54.441  1.00  0.00    -0.349 OA
BRANCH  29  30
HETATM   30  C   UNL     1       8.750  21.716  53.235  1.00  0.00     0.171 C 
HETATM   31  C   UNL     1       7.906  20.512  53.614  1.00  0.00     0.034 C 
ENDBRANCH  29  30
ENDBRANCH  25  29
ENDBRANCH   1  21
BRANCH   5  32
HETATM   32  O   UNL     1       3.521  28.067  53.876  1.00  0.00    -0.355 OA
HETATM   33  H   UNL     1       3.497  29.028  53.694  1.00  0.00     0.218 HD
ENDBRANCH   5  32
BRANCH   2  34
HETATM   34  C   UNL     1       8.145  28.575  55.473  1.00  0.00     0.129 C 
BRANCH  34  35
HETATM   35  C   UNL     1       8.434  28.539  56.973  1.00  0.00     0.048 C 
BRANCH  35  36
HETATM   36  C   UNL     1       9.482  29.568  57.378  1.00  0.00     0.236 C 
BRANCH  36  37
HETATM   37  N   UNL     1       8.813  30.726  58.090  1.00  0.00    -0.067 N 
HETATM   38  H   UNL     1       8.860  31.552  57.480  1.00  0.00     0.280 HD
HETATM   39  C   UNL     1       7.334  30.455  58.388  1.00  0.00     0.261 C 
HETATM   40  C   UNL     1       6.730  31.669  59.104  1.00  0.00     0.195 C 
HETATM   41  O   UNL     1       7.448  31.969  60.306  1.00  0.00    -0.388 OA
HETATM   42  C   UNL     1       8.821  32.277  60.046  1.00  0.00     0.195 C 
HETATM   43  C   UNL     1       9.534  31.091  59.386  1.00  0.00     0.261 C 
ENDBRANCH  36  37
ENDBRANCH  35  36
ENDBRANCH  34  35
ENDBRANCH   2  34
TORSDOF 14
ENDMDL
MODEL 7
REMARK VINA RESULT:      -8.5      1.554      2.689
REMARK  14 active torsions:
REMARK  status: ('A' for Active; 'I' for Inactive)
REMARK    1  A    between atoms: C_2  and  O_3 
REMARK    2  A    between atoms: O_3  and  C_4 
REMARK    3  A    between atoms: C_5  and  O_6 
REMARK    4  A    between atoms: C_9  and  C_10 
REMARK    5  A    between atoms: N_11  and  C_12 
REMARK    6  A    between atoms: C_12  and  C_13 
REMARK    7  A    between atoms: C_13  and  C_14 
REMARK    8  A    between atoms: C_14  and  N_15 
REMARK    9  A    between atoms: C_24  and  O_25 
REMARK   10  A    between atoms: C_26  and  C_27 
REMARK   11  A    between atoms: C_27  and  C_28 
REMARK   12  A    between atoms: C_32  and  O_33 
REMARK   13  A    between atoms: O_33  and  C_34 
REMARK   14  A    between atoms: C_34  and  C_35 
ROOT
HETATM    1  C   UNL     1       6.284  28.427  55.430  1.00  0.00     0.161 C 
HETATM    2  N   UNL     1       5.786  27.055  55.359  1.00  0.00    -0.333 N 
HETATM    3  C   UNL     1       6.193  26.324  56.457  1.00  0.00     0.278 C 
HETATM    4  O   UNL     1       5.941  25.161  56.724  1.00  0.00    -0.265 OA
HETATM    5  C   UNL     1       7.056  27.195  57.283  1.00  0.00     0.146 C 
HETATM    6  C   UNL     1       7.166  28.360  56.638  1.00  0.00     0.059 C 
ENDROOT
BRANCH   6   7
HETATM    7  C   UNL     1       8.052  29.506  56.932  1.00  0.00     0.193 C 
HETATM    8  O   UNL     1       9.005  29.733  56.193  1.00  0.00    -0.287 OA
BRANCH   7   9
HETATM    9  C   UNL     1       7.876  30.313  58.170  1.00  0.00     0.015 A 
HETATM   10  C   UNL     1       8.717  30.050  59.260  1.00  0.00     0.025 A 
HETATM   11  C   UNL     1       8.554  30.736  60.476  1.00  0.00    -0.028 A 
HETATM   12  C   UNL     1       9.460  30.426  61.637  1.00  0.00     0.051 C 
HETATM   13  C   UNL     1       7.538  31.701  60.598  1.00  0.00     0.074 A 
HETATM   14  C   UNL     1       6.684  31.940  59.520  1.00  0.00     0.038 A 
HETATM   15  C   UNL     1       6.842  31.241  58.318  1.00  0.00     0.018 A 
BRANCH  13  16
HETATM   16  O   UNL     1       7.451  32.326  61.814  1.00  0.00    -0.350 OA
BRANCH  16  17
HETATM   17  C   UNL     1       6.407  33.287  61.988  1.00  0.00     0.179 C 
BRANCH  17  18
HETATM   18  C   UNL     1       6.389  33.753  63.450  1.00  0.00     0.002 C 
HETATM   19  C   UNL     1       5.092  33.343  64.153  1.00  0.00     0.011 C 
HETATM   20  C   UNL     1       7.598  33.196  64.200  1.00  0.00     0.011 C 
ENDBRANCH  17  18
ENDBRANCH  16  17
ENDBRANCH  13  16
ENDBRANCH   7   9
ENDBRANCH   6   7
BRANCH   1  21
HETATM   21  C   UNL     1       5.094  29.372  55.516  1.00  0.00    -0.028 A 
HETATM   22  C   UNL     1       4.370  29.538  56.714  1.00  0.00     0.012 A 
HETATM   23  C   UNL     1       3.231  30.339  56.753  1.00  0.00     0.040 A 
HETATM   24  C   UNL     1       2.817  30.984  55.598  1.00  0.00     0.099 A 
HETATM   25  C   UNL     1       3.527  30.870  54.399  1.00  0.00     0.102 A 
HETATM   26  C   UNL     1       4.663  30.058  54.362  1.00  0.00     0.049 A 
BRANCH  24  27
HETATM   27  O   UNL     1       1.685  31.749  55.661  1.00  0.00    -0.358 OA
HETATM   28  H   UNL     1       1.999  32.674  55.671  1.00  0.00     0.218 HD
ENDBRANCH  24  27
BRANCH  25  29
HETATM   29  O   UNL     1       3.000  31.568  53.347  1.00  0.00    -0.349 OA
BRANCH  29  30
HETATM   30  C   UNL     1       3.243  31.047  52.040  1.00  0.00     0.171 C 
HETATM   31  C   UNL     1       3.241  32.211  51.066  1.00  0.00     0.034 C 
ENDBRANCH  29  30
ENDBRANCH  25  29
ENDBRANCH   1  21
BRANCH   5  32
HETATM   32  O   UNL     1       7.674  26.779  58.422  1.00  0.00    -0.355 OA
HETATM   33  H   UNL     1       7.211  25.970  58.718  1.00  0.00     0.218 HD
ENDBRANCH   5  32
BRANCH   2  34
HETATM   34  C   UNL     1       5.370  26.483  54.088  1.00  0.00     0.129 C 
BRANCH  34  35
HETATM   35  C   UNL     1       6.484  25.821  53.279  1.00  0.00     0.048 C 
BRANCH  35  36
HETATM   36  C   UNL     1       6.194  24.351  53.005  1.00  0.00     0.236 C 
BRANCH  36  37
HETATM   37  N   UNL     1       7.019  23.485  53.935  1.00  0.00    -0.067 N 
HETATM   38  H   UNL     1       6.425  23.198  54.722  1.00  0.00     0.280 HD
HETATM   39  C   UNL     1       7.529  22.211  53.252  1.00  0.00     0.261 C 
HETATM   40  C   UNL     1       8.349  21.390  54.254  1.00  0.00     0.195 C 
HETATM   41  O   UNL     1       9.437  22.158  54.781  1.00  0.00    -0.388 OA
HETATM   42  C   UNL     1       8.982  23.328  55.469  1.00  0.00     0.195 C 
HETATM   43  C   UNL     1       8.201  24.251  54.527  1.00  0.00     0.261 C 
ENDBRANCH  36  37
ENDBRANCH  35  36
ENDBRANCH  34  35
ENDBRANCH   2  34
TORSDOF 14
ENDMDL
MODEL 8
REMARK VINA RESULT:      -8.5      3.165      9.126
REMARK  14 active torsions:
REMARK  status: ('A' for Active; 'I' for Inactive)
REMARK    1  A    between atoms: C_2  and  O_3 
REMARK    2  A    between atoms: O_3  and  C_4 
REMARK    3  A    between atoms: C_5  and  O_6 
REMARK    4  A    between atoms: C_9  and  C_10 
REMARK    5  A    between atoms: N_11  and  C_12 
REMARK    6  A    between atoms: C_12  and  C_13 
REMARK    7  A    between atoms: C_13  and  C_14 
REMARK    8  A    between atoms: C_14  and  N_15 
REMARK    9  A    between atoms: C_24  and  O_25 
REMARK   10  A    between atoms: C_26  and  C_27 
REMARK   11  A    between atoms: C_27  and  C_28 
REMARK   12  A    between atoms: C_32  and  O_33 
REMARK   13  A    between atoms: O_33  and  C_34 
REMARK   14  A    between atoms: C_34  and  C_35 
ROOT
HETATM    1  C   UNL     1       7.243  30.657  58.669  1.00  0.00     0.161 C 
HETATM    2  N   UNL     1       8.525  31.345  58.812  1.00  0.00    -0.333 N 
HETATM    3  C   UNL     1       9.414  30.942  57.836  1.00  0.00     0.278 C 
HETATM    4  O   UNL     1      10.557  31.327  57.652  1.00  0.00    -0.265 OA
HETATM    5  C   UNL     1       8.754  29.892  57.030  1.00  0.00     0.146 C 
HETATM    6  C   UNL     1       7.551  29.683  57.574  1.00  0.00     0.059 C 
ENDROOT
BRANCH   6   7
HETATM    7  C   UNL     1       6.566  28.623  57.272  1.00  0.00     0.193 C 
HETATM    8  O   UNL     1       5.413  28.742  57.675  1.00  0.00    -0.287 OA
BRANCH   7   9
HETATM    9  C   UNL     1       6.979  27.364  56.594  1.00  0.00     0.015 A 
HETATM   10  C   UNL     1       7.682  26.407  57.338  1.00  0.00     0.025 A 
HETATM   11  C   UNL     1       8.153  25.229  56.732  1.00  0.00    -0.028 A 
HETATM   12  C   UNL     1       8.918  24.223  57.548  1.00  0.00     0.051 C 
HETATM   13  C   UNL     1       7.910  25.006  55.365  1.00  0.00     0.074 A 
HETATM   14  C   UNL     1       7.233  25.975  54.620  1.00  0.00     0.038 A 
HETATM   15  C   UNL     1       6.783  27.153  55.227  1.00  0.00     0.018 A 
BRANCH  13  16
HETATM   16  O   UNL     1       8.397  23.832  54.854  1.00  0.00    -0.350 OA
BRANCH  16  17
HETATM   17  C   UNL     1       7.454  22.804  54.546  1.00  0.00     0.179 C 
BRANCH  17  18
HETATM   18  C   UNL     1       8.171  21.447  54.537  1.00  0.00     0.002 C 
HETATM   19  C   UNL     1       7.746  20.580  55.724  1.00  0.00     0.011 C 
HETATM   20  C   UNL     1       7.904  20.716  53.222  1.00  0.00     0.011 C 
ENDBRANCH  17  18
ENDBRANCH  16  17
ENDBRANCH  13  16
ENDBRANCH   7   9
ENDBRANCH   6   7
BRANCH   1  21
HETATM   21  C   UNL     1       6.167  31.690  58.369  1.00  0.00    -0.028 A 
HETATM   22  C   UNL     1       5.818  32.027  57.045  1.00  0.00     0.012 A 
HETATM   23  C   UNL     1       4.894  33.037  56.787  1.00  0.00     0.040 A 
HETATM   24  C   UNL     1       4.310  33.707  57.850  1.00  0.00     0.099 A 
HETATM   25  C   UNL     1       4.606  33.379  59.177  1.00  0.00     0.102 A 
HETATM   26  C   UNL     1       5.540  32.373  59.431  1.00  0.00     0.049 A 
BRANCH  24  27
HETATM   27  O   UNL     1       3.420  34.707  57.568  1.00  0.00    -0.358 OA
HETATM   28  H   UNL     1       2.900  34.383  56.807  1.00  0.00     0.218 HD
ENDBRANCH  24  27
BRANCH  25  29
HETATM   29  O   UNL     1       3.947  34.125  60.117  1.00  0.00    -0.349 OA
BRANCH  29  30
HETATM   30  C   UNL     1       2.687  33.627  60.567  1.00  0.00     0.171 C 
HETATM   31  C   UNL     1       1.978  34.750  61.304  1.00  0.00     0.034 C 
ENDBRANCH  29  30
ENDBRANCH  25  29
ENDBRANCH   1  21
BRANCH   5  32
HETATM   32  O   UNL     1       9.365  29.234  56.008  1.00  0.00    -0.355 OA
HETATM   33  H   UNL     1       8.951  28.349  55.952  1.00  0.00     0.218 HD
ENDBRANCH   5  32
BRANCH   2  34
HETATM   34  C   UNL     1       8.900  31.954  60.078  1.00  0.00     0.129 C 
BRANCH  34  35
HETATM   35  C   UNL     1       8.488  31.170  61.322  1.00  0.00     0.048 C 
BRANCH  35  36
HETATM   36  C   UNL     1       8.680  31.980  62.598  1.00  0.00     0.236 C 
BRANCH  36  37
HETATM   37  N   UNL     1       7.363  32.605  63.010  1.00  0.00    -0.067 N 
HETATM   38  H   UNL     1       7.196  33.428  62.419  1.00  0.00     0.280 HD
HETATM   39  C   UNL     1       6.178  31.652  62.821  1.00  0.00     0.261 C 
HETATM   40  C   UNL     1       4.886  32.354  63.256  1.00  0.00     0.195 C 
HETATM   41  O   UNL     1       4.973  32.799  64.614  1.00  0.00    -0.388 OA
HETATM   42  C   UNL     1       6.043  33.731  64.805  1.00  0.00     0.195 C 
HETATM   43  C   UNL     1       7.394  33.096  64.456  1.00  0.00     0.261 C 
ENDBRANCH  36  37
ENDBRANCH  35  36
ENDBRANCH  34  35
ENDBRANCH   2  34
TORSDOF 14
ENDMDL
MODEL 9
REMARK VINA RESULT:      -8.5      1.856      4.546
REMARK  14 active torsions:
REMARK  status: ('A' for Active; 'I' for Inactive)
REMARK    1  A    between atoms: C_2  and  O_3 
REMARK    2  A    between atoms: O_3  and  C_4 
REMARK    3  A    between atoms: C_5  and  O_6 
REMARK    4  A    between atoms: C_9  and  C_10 
REMARK    5  A    between atoms: N_11  and  C_12 
REMARK    6  A    between atoms: C_12  and  C_13 
REMARK    7  A    between atoms: C_13  and  C_14 
REMARK    8  A    between atoms: C_14  and  N_15 
REMARK    9  A    between atoms: C_24  and  O_25 
REMARK   10  A    between atoms: C_26  and  C_27 
REMARK   11  A    between atoms: C_27  and  C_28 
REMARK   12  A    between atoms: C_32  and  O_33 
REMARK   13  A    between atoms: O_33  and  C_34 
REMARK   14  A    between atoms: C_34  and  C_35 
ROOT
HETATM    1  C   UNL     1       5.557  27.350  55.309  1.00  0.00     0.161 C 
HETATM    2  N   UNL     1       5.823  25.928  55.100  1.00  0.00    -0.333 N 
HETATM    3  C   UNL     1       5.479  25.543  53.820  1.00  0.00     0.278 C 
HETATM    4  O   UNL     1       5.588  24.441  53.309  1.00  0.00    -0.265 OA
HETATM    5  C   UNL     1       4.893  26.718  53.139  1.00  0.00     0.146 C 
HETATM    6  C   UNL     1       4.866  27.713  54.031  1.00  0.00     0.059 C 
ENDROOT
BRANCH   6   7
HETATM    7  C   UNL     1       4.220  29.038  53.926  1.00  0.00     0.193 C 
HETATM    8  O   UNL     1       3.936  29.481  52.817  1.00  0.00    -0.287 OA
BRANCH   7   9
HETATM    9  C   UNL     1       4.018  29.889  55.130  1.00  0.00     0.015 A 
HETATM   10  C   UNL     1       4.524  31.196  55.113  1.00  0.00     0.025 A 
HETATM   11  C   UNL     1       4.420  32.022  56.245  1.00  0.00    -0.028 A 
HETATM   12  C   UNL     1       4.983  33.417  56.207  1.00  0.00     0.051 C 
HETATM   13  C   UNL     1       3.795  31.534  57.406  1.00  0.00     0.074 A 
HETATM   14  C   UNL     1       3.317  30.222  57.429  1.00  0.00     0.038 A 
HETATM   15  C   UNL     1       3.440  29.399  56.304  1.00  0.00     0.018 A 
BRANCH  13  16
HETATM   16  O   UNL     1       3.730  32.405  58.462  1.00  0.00    -0.350 OA
BRANCH  16  17
HETATM   17  C   UNL     1       3.457  31.856  59.753  1.00  0.00     0.179 C 
BRANCH  17  18
HETATM   18  C   UNL     1       4.278  32.613  60.806  1.00  0.00     0.002 C 
HETATM   19  C   UNL     1       5.705  32.877  60.321  1.00  0.00     0.011 C 
HETATM   20  C   UNL     1       3.590  33.926  61.173  1.00  0.00     0.011 C 
ENDBRANCH  17  18
ENDBRANCH  16  17
ENDBRANCH  13  16
ENDBRANCH   7   9
ENDBRANCH   6   7
BRANCH   1  21
HETATM   21  C   UNL     1       6.876  28.056  55.586  1.00  0.00    -0.028 A 
HETATM   22  C   UNL     1       7.810  28.302  54.558  1.00  0.00     0.012 A 
HETATM   23  C   UNL     1       9.049  28.870  54.844  1.00  0.00     0.040 A 
HETATM   24  C   UNL     1       9.356  29.203  56.154  1.00  0.00     0.099 A 
HETATM   25  C   UNL     1       8.444  29.004  57.194  1.00  0.00     0.102 A 
HETATM   26  C   UNL     1       7.206  28.425  56.906  1.00  0.00     0.049 A 
BRANCH  24  27
HETATM   27  O   UNL     1      10.587  29.742  56.408  1.00  0.00    -0.358 OA
HETATM   28  H   UNL     1      10.596  30.600  55.939  1.00  0.00     0.218 HD
ENDBRANCH  24  27
BRANCH  25  29
HETATM   29  O   UNL     1       8.887  29.386  58.433  1.00  0.00    -0.349 OA
BRANCH  29  30
HETATM   30  C   UNL     1       8.228  30.498  59.039  1.00  0.00     0.171 C 
HETATM   31  C   UNL     1       9.225  31.639  59.128  1.00  0.00     0.034 C 
ENDBRANCH  29  30
ENDBRANCH  25  29
ENDBRANCH   1  21
BRANCH   5  32
HETATM   32  O   UNL     1       4.396  26.682  51.872  1.00  0.00    -0.355 OA
HETATM   33  H   UNL     1       3.689  27.356  51.825  1.00  0.00     0.218 HD
ENDBRANCH   5  32
BRANCH   2  34
HETATM   34  C   UNL     1       5.952  25.025  56.233  1.00  0.00     0.129 C 
BRANCH  34  35
HETATM   35  C   UNL     1       7.387  24.678  56.625  1.00  0.00     0.048 C 
BRANCH  35  36
HETATM   36  C   UNL     1       8.204  24.196  55.433  1.00  0.00     0.236 C 
BRANCH  36  37
HETATM   37  N   UNL     1       7.814  22.773  55.088  1.00  0.00    -0.067 N 
HETATM   38  H   UNL     1       6.789  22.718  55.052  1.00  0.00     0.280 HD
HETATM   39  C   UNL     1       8.349  22.334  53.720  1.00  0.00     0.261 C 
HETATM   40  C   UNL     1       7.913  20.891  53.443  1.00  0.00     0.195 C 
HETATM   41  O   UNL     1       8.365  20.008  54.476  1.00  0.00    -0.388 OA
HETATM   42  C   UNL     1       7.836  20.368  55.756  1.00  0.00     0.195 C 
HETATM   43  C   UNL     1       8.274  21.782  56.155  1.00  0.00     0.261 C 
ENDBRANCH  36  37
ENDBRANCH  35  36
ENDBRANCH  34  35
ENDBRANCH   2  34
TORSDOF 14
ENDMDL
MODEL 10
REMARK VINA RESULT:      -8.3      2.488      5.170
REMARK  14 active torsions:
REMARK  status: ('A' for Active; 'I' for Inactive)
REMARK    1  A    between atoms: C_2  and  O_3 
REMARK    2  A    between atoms: O_3  and  C_4 
REMARK    3  A    between atoms: C_5  and  O_6 
REMARK    4  A    between atoms: C_9  and  C_10 
REMARK    5  A    between atoms: N_11  and  C_12 
REMARK    6  A    between atoms: C_12  and  C_13 
REMARK    7  A    between atoms: C_13  and  C_14 
REMARK    8  A    between atoms: C_14  and  N_15 
REMARK    9  A    between atoms: C_24  and  O_25 
REMARK   10  A    between atoms: C_26  and  C_27 
REMARK   11  A    between atoms: C_27  and  C_28 
REMARK   12  A    between atoms: C_32  and  O_33 
REMARK   13  A    between atoms: O_33  and  C_34 
REMARK   14  A    between atoms: C_34  and  C_35 
ROOT
HETATM    1  C   UNL     1       5.796  29.692  57.111  1.00  0.00     0.161 C 
HETATM    2  N   UNL     1       5.393  28.527  56.326  1.00  0.00    -0.333 N 
HETATM    3  C   UNL     1       4.622  28.902  55.244  1.00  0.00     0.278 C 
HETATM    4  O   UNL     1       4.140  28.190  54.379  1.00  0.00    -0.265 OA
HETATM    5  C   UNL     1       4.428  30.366  55.315  1.00  0.00     0.146 C 
HETATM    6  C   UNL     1       5.031  30.786  56.432  1.00  0.00     0.059 C 
ENDROOT
BRANCH   6   7
HETATM    7  C   UNL     1       4.985  32.119  57.068  1.00  0.00     0.193 C 
HETATM    8  O   UNL     1       5.309  33.107  56.415  1.00  0.00    -0.287 OA
BRANCH   7   9
HETATM    9  C   UNL     1       4.668  32.267  58.514  1.00  0.00     0.015 A 
HETATM   10  C   UNL     1       5.665  32.759  59.367  1.00  0.00     0.025 A 
HETATM   11  C   UNL     1       5.443  32.859  60.751  1.00  0.00    -0.028 A 
HETATM   12  C   UNL     1       6.534  33.378  61.648  1.00  0.00     0.051 C 
HETATM   13  C   UNL     1       4.203  32.466  61.286  1.00  0.00     0.074 A 
HETATM   14  C   UNL     1       3.222  31.949  60.438  1.00  0.00     0.038 A 
HETATM   15  C   UNL     1       3.457  31.837  59.062  1.00  0.00     0.018 A 
BRANCH  13  16
HETATM   16  O   UNL     1       4.067  32.600  62.643  1.00  0.00    -0.350 OA
BRANCH  16  17
HETATM   17  C   UNL     1       3.139  33.576  63.119  1.00  0.00     0.179 C 
BRANCH  17  18
HETATM   18  C   UNL     1       3.795  34.388  64.245  1.00  0.00     0.002 C 
HETATM   19  C   UNL     1       4.872  33.576  64.967  1.00  0.00     0.011 C 
HETATM   20  C   UNL     1       4.387  35.682  63.689  1.00  0.00     0.011 C 
ENDBRANCH  17  18
ENDBRANCH  16  17
ENDBRANCH  13  16
ENDBRANCH   7   9
ENDBRANCH   6   7
BRANCH   1  21
HETATM   21  C   UNL     1       7.313  29.806  57.069  1.00  0.00    -0.028 A 
HETATM   22  C   UNL     1       8.057  29.332  55.969  1.00  0.00     0.012 A 
HETATM   23  C   UNL     1       9.449  29.363  55.985  1.00  0.00     0.040 A 
HETATM   24  C   UNL     1      10.102  29.876  57.095  1.00  0.00     0.099 A 
HETATM   25  C   UNL     1       9.399  30.384  58.191  1.00  0.00     0.102 A 
HETATM   26  C   UNL     1       8.003  30.342  58.175  1.00  0.00     0.049 A 
BRANCH  24  27
HETATM   27  O   UNL     1      11.470  29.877  57.092  1.00  0.00    -0.358 OA
HETATM   28  H   UNL     1      11.731  29.290  57.828  1.00  0.00     0.218 HD
ENDBRANCH  24  27
BRANCH  25  29
HETATM   29  O   UNL     1      10.180  30.861  59.209  1.00  0.00    -0.349 OA
BRANCH  29  30
HETATM   30  C   UNL     1       9.560  31.751  60.137  1.00  0.00     0.171 C 
HETATM   31  C   UNL     1       9.421  31.022  61.461  1.00  0.00     0.034 C 
ENDBRANCH  29  30
ENDBRANCH  25  29
ENDBRANCH   1  21
BRANCH   5  32
HETATM   32  O   UNL     1       3.672  31.068  54.427  1.00  0.00    -0.355 OA
HETATM   33  H   UNL     1       3.043  30.435  54.026  1.00  0.00     0.218 HD
ENDBRANCH   5  32
BRANCH   2  34
HETATM   34  C   UNL     1       5.406  27.197  56.916  1.00  0.00     0.129 C 
BRANCH  34  35
HETATM   35  C   UNL     1       6.613  26.337  56.545  1.00  0.00     0.048 C 
BRANCH  35  36
HETATM   36  C   UNL     1       6.623  25.973  55.065  1.00  0.00     0.236 C 
BRANCH  36  37
HETATM   37  N   UNL     1       7.487  24.749  54.845  1.00  0.00    -0.067 N 
HETATM   38  H   UNL     1       8.386  25.053  54.452  1.00  0.00     0.280 HD
HETATM   39  C   UNL     1       7.783  23.998  56.149  1.00  0.00     0.261 C 
HETATM   40  C   UNL     1       8.660  22.778  55.845  1.00  0.00     0.195 C 
HETATM   41  O   UNL     1       8.032  21.916  54.889  1.00  0.00    -0.388 OA
HETATM   42  C   UNL     1       7.792  22.581  53.645  1.00  0.00     0.195 C 
HETATM   43  C   UNL     1       6.865  23.786  53.835  1.00  0.00     0.261 C 
ENDBRANCH  36  37
ENDBRANCH  35  36
ENDBRANCH  34  35
ENDBRANCH   2  34
TORSDOF 14
ENDMDL
