MODEL 1
REMARK VINA RESULT:      -7.9      0.000      0.000
REMARK  4 active torsions:
REMARK  status: ('A' for Active; 'I' for Inactive)
REMARK    1  A    between atoms: O_2  and  C_3 
REMARK    2  A    between atoms: C_5  and  N_6 
REMARK    3  A    between atoms: N_6  and  C_7 
REMARK    4  A    between atoms: C_7  and  C_8 
ROOT
HETATM    1  N   UNL     1       7.608  28.110  57.729  1.00  0.00    -0.371 N 
HETATM    2  H   UNL     1       6.736  28.246  58.227  1.00  0.00     0.161 HD
ENDROOT
BRANCH   1   3
HETATM    3  C   UNL     1       8.581  29.076  57.733  1.00  0.00     0.103 A 
HETATM    4  C   UNL     1       8.531  30.275  58.449  1.00  0.00     0.085 A 
HETATM    5  C   UNL     1       9.594  31.181  58.402  1.00  0.00     0.073 A 
HETATM    6  C   UNL     1      10.709  30.879  57.637  1.00  0.00     0.053 A 
HETATM    7  C   UNL     1      10.730  29.678  56.944  1.00  0.00     0.092 A 
HETATM    8  N   UNL     1       9.692  28.835  57.016  1.00  0.00    -0.352 N 
HETATM    9  H   UNL     1       9.739  27.956  56.512  1.00  0.00     0.166 HD
BRANCH   5  10
HETATM   10  O   UNL     1       9.412  32.308  59.148  1.00  0.00    -0.356 OA
HETATM   11  C   UNL     1       8.387  32.289  60.139  1.00  0.00     0.210 C 
ENDBRANCH   5  10
ENDBRANCH   1   3
BRANCH   1  12
HETATM   12  C   UNL     1       7.868  26.709  57.404  1.00  0.00     0.180 C 
BRANCH  12  13
HETATM   13  C   UNL     1       7.570  26.320  56.005  1.00  0.00     0.053 A 
HETATM   14  N   UNL     1       7.617  25.012  55.549  1.00  0.00    -0.306 N 
HETATM   15  C   UNL     1       7.289  25.049  54.196  1.00  0.00     0.133 A 
HETATM   16  C   UNL     1       7.923  23.830  56.225  1.00  0.00     0.118 A 
HETATM   17  C   UNL     1       7.273  23.813  53.491  1.00  0.00     0.052 A 
HETATM   18  N   UNL     1       7.048  26.276  53.792  1.00  0.00    -0.241 NA
HETATM   19  C   UNL     1       7.568  22.669  54.138  1.00  0.00     0.024 A 
HETATM   20  C   UNL     1       7.907  22.664  55.555  1.00  0.00     0.027 A 
HETATM   21 BR   UNL     1       8.301  21.037  56.369  1.00  0.00    -0.050 Br
HETATM   22  C   UNL     1       7.225  27.064  54.894  1.00  0.00     0.146 A 
ENDBRANCH  12  13
ENDBRANCH   1  12
TORSDOF 4
ENDMDL
MODEL 2
REMARK VINA RESULT:      -7.8      2.243      3.012
REMARK  4 active torsions:
REMARK  status: ('A' for Active; 'I' for Inactive)
REMARK    1  A    between atoms: O_2  and  C_3 
REMARK    2  A    between atoms: C_5  and  N_6 
REMARK    3  A    between atoms: N_6  and  C_7 
REMARK    4  A    between atoms: C_7  and  C_8 
ROOT
HETATM    1  N   UNL     1       4.730  26.648  56.726  1.00  0.00    -0.371 N 
HETATM    2  H   UNL     1       3.725  26.578  56.830  1.00  0.00     0.161 HD
ENDROOT
BRANCH   1   3
HETATM    3  C   UNL     1       5.404  27.775  57.121  1.00  0.00     0.103 A 
HETATM    4  C   UNL     1       6.761  27.837  57.447  1.00  0.00     0.085 A 
HETATM    5  C   UNL     1       7.354  29.048  57.814  1.00  0.00     0.073 A 
HETATM    6  C   UNL     1       6.582  30.198  57.849  1.00  0.00     0.053 A 
HETATM    7  C   UNL     1       5.241  30.104  57.513  1.00  0.00     0.092 A 
HETATM    8  N   UNL     1       4.709  28.924  57.165  1.00  0.00    -0.352 N 
HETATM    9  H   UNL     1       3.728  28.886  56.909  1.00  0.00     0.166 HD
BRANCH   5  10
HETATM   10  O   UNL     1       8.684  28.962  58.104  1.00  0.00    -0.356 OA
HETATM   11  C   UNL     1       9.608  29.094  57.027  1.00  0.00     0.210 C 
ENDBRANCH   5  10
ENDBRANCH   1   3
BRANCH   1  12
HETATM   12  C   UNL     1       5.376  25.352  56.533  1.00  0.00     0.180 C 
BRANCH  12  13
HETATM   13  C   UNL     1       5.841  25.077  55.152  1.00  0.00     0.053 A 
HETATM   14  N   UNL     1       6.678  24.022  54.823  1.00  0.00    -0.306 N 
HETATM   15  C   UNL     1       6.896  24.100  53.450  1.00  0.00     0.133 A 
HETATM   16  C   UNL     1       7.245  23.033  55.629  1.00  0.00     0.118 A 
HETATM   17  C   UNL     1       7.740  23.115  52.864  1.00  0.00     0.052 A 
HETATM   18  N   UNL     1       6.259  25.118  52.917  1.00  0.00    -0.241 NA
HETATM   19  C   UNL     1       8.290  22.159  53.636  1.00  0.00     0.024 A 
HETATM   20  C   UNL     1       8.041  22.104  55.071  1.00  0.00     0.027 A 
HETATM   21 BR   UNL     1       8.842  20.748  56.061  1.00  0.00    -0.050 Br
HETATM   22  C   UNL     1       5.615  25.728  53.956  1.00  0.00     0.146 A 
ENDBRANCH  12  13
ENDBRANCH   1  12
TORSDOF 4
ENDMDL
MODEL 3
REMARK VINA RESULT:      -7.6      1.447      1.731
REMARK  4 active torsions:
REMARK  status: ('A' for Active; 'I' for Inactive)
REMARK    1  A    between atoms: O_2  and  C_3 
REMARK    2  A    between atoms: C_5  and  N_6 
REMARK    3  A    between atoms: N_6  and  C_7 
REMARK    4  A    between atoms: C_7  and  C_8 
ROOT
HETATM    1  N   UNL     1       7.390  28.350  57.822  1.00  0.00    -0.371 N 
HETATM    2  H   UNL     1       6.719  28.375  58.581  1.00  0.00     0.161 HD
ENDROOT
BRANCH   1   3
HETATM    3  C   UNL     1       8.452  29.217  57.790  1.00  0.00     0.103 A 
HETATM    4  C   UNL     1       8.545  30.413  58.508  1.00  0.00     0.085 A 
HETATM    5  C   UNL     1       9.688  31.212  58.421  1.00  0.00     0.073 A 
HETATM    6  C   UNL     1      10.741  30.805  57.617  1.00  0.00     0.053 A 
HETATM    7  C   UNL     1      10.620  29.610  56.924  1.00  0.00     0.092 A 
HETATM    8  N   UNL     1       9.507  28.872  57.034  1.00  0.00    -0.352 N 
HETATM    9  H   UNL     1       9.451  27.994  56.528  1.00  0.00     0.166 HD
BRANCH   5  10
HETATM   10  O   UNL     1       9.644  32.348  59.174  1.00  0.00    -0.356 OA
HETATM   11  C   UNL     1       8.670  32.418  60.212  1.00  0.00     0.210 C 
ENDBRANCH   5  10
ENDBRANCH   1   3
BRANCH   1  12
HETATM   12  C   UNL     1       7.349  27.102  57.063  1.00  0.00     0.180 C 
BRANCH  12  13
HETATM   13  C   UNL     1       6.385  27.079  55.937  1.00  0.00     0.053 A 
HETATM   14  N   UNL     1       6.362  26.086  54.971  1.00  0.00    -0.306 N 
HETATM   15  C   UNL     1       5.338  26.412  54.086  1.00  0.00     0.133 A 
HETATM   16  C   UNL     1       7.162  24.951  54.822  1.00  0.00     0.118 A 
HETATM   17  C   UNL     1       5.114  25.536  52.988  1.00  0.00     0.052 A 
HETATM   18  N   UNL     1       4.736  27.527  54.437  1.00  0.00    -0.241 NA
HETATM   19  C   UNL     1       5.883  24.440  52.839  1.00  0.00     0.024 A 
HETATM   20  C   UNL     1       6.947  24.125  53.783  1.00  0.00     0.027 A 
HETATM   21 BR   UNL     1       7.960  22.590  53.501  1.00  0.00    -0.050 Br
HETATM   22  C   UNL     1       5.377  27.947  55.567  1.00  0.00     0.146 A 
ENDBRANCH  12  13
ENDBRANCH   1  12
TORSDOF 4
ENDMDL
MODEL 4
REMARK VINA RESULT:      -7.5      5.589      8.117
REMARK  4 active torsions:
REMARK  status: ('A' for Active; 'I' for Inactive)
REMARK    1  A    between atoms: O_2  and  C_3 
REMARK    2  A    between atoms: C_5  and  N_6 
REMARK    3  A    between atoms: N_6  and  C_7 
REMARK    4  A    between atoms: C_7  and  C_8 
ROOT
HETATM    1  N   UNL     1       4.971  26.218  51.183  1.00  0.00    -0.371 N 
HETATM    2  H   UNL     1       4.392  26.531  51.953  1.00  0.00     0.161 HD
ENDROOT
BRANCH   1   3
HETATM    3  C   UNL     1       4.847  26.774  49.935  1.00  0.00     0.103 A 
HETATM    4  C   UNL     1       4.028  26.293  48.911  1.00  0.00     0.085 A 
HETATM    5  C   UNL     1       3.958  26.954  47.682  1.00  0.00     0.073 A 
HETATM    6  C   UNL     1       4.708  28.103  47.485  1.00  0.00     0.053 A 
HETATM    7  C   UNL     1       5.505  28.558  48.525  1.00  0.00     0.092 A 
HETATM    8  N   UNL     1       5.544  27.896  49.689  1.00  0.00    -0.352 N 
HETATM    9  H   UNL     1       6.124  28.259  50.439  1.00  0.00     0.166 HD
BRANCH   5  10
HETATM   10  O   UNL     1       3.120  26.376  46.774  1.00  0.00    -0.356 OA
HETATM   11  C   UNL     1       1.726  26.648  46.892  1.00  0.00     0.210 C 
ENDBRANCH   5  10
ENDBRANCH   1   3
BRANCH   1  12
HETATM   12  C   UNL     1       6.156  25.483  51.621  1.00  0.00     0.180 C 
BRANCH  12  13
HETATM   13  C   UNL     1       6.270  25.286  53.087  1.00  0.00     0.053 A 
HETATM   14  N   UNL     1       6.825  24.156  53.665  1.00  0.00    -0.306 N 
HETATM   15  C   UNL     1       6.746  24.333  55.044  1.00  0.00     0.133 A 
HETATM   16  C   UNL     1       7.374  23.016  53.075  1.00  0.00     0.118 A 
HETATM   17  C   UNL     1       7.253  23.291  55.869  1.00  0.00     0.052 A 
HETATM   18  N   UNL     1       6.185  25.481  55.351  1.00  0.00    -0.241 NA
HETATM   19  C   UNL     1       7.784  22.189  55.306  1.00  0.00     0.024 A 
HETATM   20  C   UNL     1       7.853  22.034  53.858  1.00  0.00     0.027 A 
HETATM   21 BR   UNL     1       8.603  20.478  53.166  1.00  0.00    -0.050 Br
HETATM   22  C   UNL     1       5.883  26.070  54.156  1.00  0.00     0.146 A 
ENDBRANCH  12  13
ENDBRANCH   1  12
TORSDOF 4
ENDMDL
MODEL 5
REMARK VINA RESULT:      -7.4      2.601      3.789
REMARK  4 active torsions:
REMARK  status: ('A' for Active; 'I' for Inactive)
REMARK    1  A    between atoms: O_2  and  C_3 
REMARK    2  A    between atoms: C_5  and  N_6 
REMARK    3  A    between atoms: N_6  and  C_7 
REMARK    4  A    between atoms: C_7  and  C_8 
ROOT
HETATM    1  N   UNL     1       7.393  25.323  57.825  1.00  0.00    -0.371 N 
HETATM    2  H   UNL     1       6.798  24.901  58.528  1.00  0.00     0.161 HD
ENDROOT
BRANCH   1   3
HETATM    3  C   UNL     1       7.222  26.630  57.447  1.00  0.00     0.103 A 
HETATM    4  C   UNL     1       8.215  27.613  57.455  1.00  0.00     0.085 A 
HETATM    5  C   UNL     1       7.938  28.913  57.023  1.00  0.00     0.073 A 
HETATM    6  C   UNL     1       6.663  29.223  56.580  1.00  0.00     0.053 A 
HETATM    7  C   UNL     1       5.702  28.223  56.578  1.00  0.00     0.092 A 
HETATM    8  N   UNL     1       6.008  26.988  56.998  1.00  0.00    -0.352 N 
HETATM    9  H   UNL     1       5.290  26.271  56.972  1.00  0.00     0.166 HD
BRANCH   5  10
HETATM   10  O   UNL     1       8.999  29.768  57.084  1.00  0.00    -0.356 OA
HETATM   11  C   UNL     1      10.301  29.225  56.882  1.00  0.00     0.210 C 
ENDBRANCH   5  10
ENDBRANCH   1   3
BRANCH   1  12
HETATM   12  C   UNL     1       8.628  24.575  57.599  1.00  0.00     0.180 C 
BRANCH  12  13
HETATM   13  C   UNL     1       8.460  23.272  56.911  1.00  0.00     0.053 A 
HETATM   14  N   UNL     1       8.214  23.151  55.553  1.00  0.00    -0.306 N 
HETATM   15  C   UNL     1       8.109  21.788  55.287  1.00  0.00     0.133 A 
HETATM   16  C   UNL     1       8.075  24.131  54.569  1.00  0.00     0.118 A 
HETATM   17  C   UNL     1       7.848  21.401  53.943  1.00  0.00     0.052 A 
HETATM   18  N   UNL     1       8.273  21.070  56.375  1.00  0.00    -0.241 NA
HETATM   19  C   UNL     1       7.713  22.342  52.989  1.00  0.00     0.024 A 
HETATM   20  C   UNL     1       7.828  23.761  53.300  1.00  0.00     0.027 A 
HETATM   21 BR   UNL     1       7.627  24.993  51.920  1.00  0.00    -0.050 Br
HETATM   22  C   UNL     1       8.481  21.973  57.379  1.00  0.00     0.146 A 
ENDBRANCH  12  13
ENDBRANCH   1  12
TORSDOF 4
ENDMDL
MODEL 6
REMARK VINA RESULT:      -7.2      2.981      4.347
REMARK  4 active torsions:
REMARK  status: ('A' for Active; 'I' for Inactive)
REMARK    1  A    between atoms: O_2  and  C_3 
REMARK    2  A    between atoms: C_5  and  N_6 
REMARK    3  A    between atoms: N_6  and  C_7 
REMARK    4  A    between atoms: C_7  and  C_8 
ROOT
HETATM    1  N   UNL     1       7.480  25.173  57.679  1.00  0.00    -0.371 N 
HETATM    2  H   UNL     1       6.814  24.936  58.405  1.00  0.00     0.161 HD
ENDROOT
BRANCH   1   3
HETATM    3  C   UNL     1       7.462  26.406  57.080  1.00  0.00     0.103 A 
HETATM    4  C   UNL     1       6.540  26.829  56.120  1.00  0.00     0.085 A 
HETATM    5  C   UNL     1       6.598  28.122  55.592  1.00  0.00     0.073 A 
HETATM    6  C   UNL     1       7.581  28.992  56.035  1.00  0.00     0.053 A 
HETATM    7  C   UNL     1       8.476  28.544  56.995  1.00  0.00     0.092 A 
HETATM    8  N   UNL     1       8.387  27.297  57.477  1.00  0.00    -0.352 N 
HETATM    9  H   UNL     1       9.045  26.999  58.190  1.00  0.00     0.166 HD
BRANCH   5  10
HETATM   10  O   UNL     1       5.637  28.399  54.665  1.00  0.00    -0.356 OA
HETATM   11  C   UNL     1       4.976  27.299  54.045  1.00  0.00     0.210 C 
ENDBRANCH   5  10
ENDBRANCH   1   3
BRANCH   1  12
HETATM   12  C   UNL     1       8.640  24.285  57.657  1.00  0.00     0.180 C 
BRANCH  12  13
HETATM   13  C   UNL     1       8.443  23.006  56.932  1.00  0.00     0.053 A 
HETATM   14  N   UNL     1       8.223  22.928  55.566  1.00  0.00    -0.306 N 
HETATM   15  C   UNL     1       8.077  21.577  55.263  1.00  0.00     0.133 A 
HETATM   16  C   UNL     1       8.142  23.936  54.604  1.00  0.00     0.118 A 
HETATM   17  C   UNL     1       7.834  21.232  53.904  1.00  0.00     0.052 A 
HETATM   18  N   UNL     1       8.190  20.827  56.336  1.00  0.00    -0.241 NA
HETATM   19  C   UNL     1       7.754  22.201  52.972  1.00  0.00     0.024 A 
HETATM   20  C   UNL     1       7.912  23.607  53.321  1.00  0.00     0.027 A 
HETATM   21 BR   UNL     1       7.787  24.879  51.969  1.00  0.00    -0.050 Br
HETATM   22  C   UNL     1       8.407  21.696  57.367  1.00  0.00     0.146 A 
ENDBRANCH  12  13
ENDBRANCH   1  12
TORSDOF 4
ENDMDL
MODEL 7
REMARK VINA RESULT:      -7.1      2.103      3.043
REMARK  4 active torsions:
REMARK  status: ('A' for Active; 'I' for Inactive)
REMARK    1  A    between atoms: O_2  and  C_3 
REMARK    2  A    between atoms: C_5  and  N_6 
REMARK    3  A    between atoms: N_6  and  C_7 
REMARK    4  A    between atoms: C_7  and  C_8 
ROOT
HETATM    1  N   UNL     1       8.001  27.274  57.468  1.00  0.00    -0.371 N 
HETATM    2  H   UNL     1       8.908  27.170  57.028  1.00  0.00     0.161 HD
ENDROOT
BRANCH   1   3
HETATM    3  C   UNL     1       7.467  28.516  57.697  1.00  0.00     0.103 A 
HETATM    4  C   UNL     1       8.163  29.619  58.197  1.00  0.00     0.085 A 
HETATM    5  C   UNL     1       7.525  30.851  58.368  1.00  0.00     0.073 A 
HETATM    6  C   UNL     1       6.187  30.974  58.031  1.00  0.00     0.053 A 
HETATM    7  C   UNL     1       5.527  29.862  57.530  1.00  0.00     0.092 A 
HETATM    8  N   UNL     1       6.174  28.699  57.380  1.00  0.00    -0.352 N 
HETATM    9  H   UNL     1       5.672  27.905  56.996  1.00  0.00     0.166 HD
BRANCH   5  10
HETATM   10  O   UNL     1       8.323  31.839  58.864  1.00  0.00    -0.356 OA
HETATM   11  C   UNL     1       9.733  31.636  58.824  1.00  0.00     0.210 C 
ENDBRANCH   5  10
ENDBRANCH   1   3
BRANCH   1  12
HETATM   12  C   UNL     1       7.204  26.051  57.431  1.00  0.00     0.180 C 
BRANCH  12  13
HETATM   13  C   UNL     1       7.820  24.917  56.700  1.00  0.00     0.053 A 
HETATM   14  N   UNL     1       7.483  24.572  55.401  1.00  0.00    -0.306 N 
HETATM   15  C   UNL     1       8.258  23.464  55.069  1.00  0.00     0.133 A 
HETATM   16  C   UNL     1       6.566  25.149  54.521  1.00  0.00     0.118 A 
HETATM   17  C   UNL     1       8.089  22.911  53.769  1.00  0.00     0.052 A 
HETATM   18  N   UNL     1       9.039  23.106  56.063  1.00  0.00    -0.241 NA
HETATM   19  C   UNL     1       7.205  23.463  52.916  1.00  0.00     0.024 A 
HETATM   20  C   UNL     1       6.409  24.624  53.293  1.00  0.00     0.027 A 
HETATM   21 BR   UNL     1       5.211  25.322  52.052  1.00  0.00    -0.050 Br
HETATM   22  C   UNL     1       8.772  23.988  57.071  1.00  0.00     0.146 A 
ENDBRANCH  12  13
ENDBRANCH   1  12
TORSDOF 4
ENDMDL
MODEL 8
REMARK VINA RESULT:      -7.1      1.855      2.395
REMARK  4 active torsions:
REMARK  status: ('A' for Active; 'I' for Inactive)
REMARK    1  A    between atoms: O_2  and  C_3 
REMARK    2  A    between atoms: C_5  and  N_6 
REMARK    3  A    between atoms: N_6  and  C_7 
REMARK    4  A    between atoms: C_7  and  C_8 
ROOT
HETATM    1  N   UNL     1       7.751  28.072  56.669  1.00  0.00    -0.371 N 
HETATM    2  H   UNL     1       7.264  28.274  55.804  1.00  0.00     0.161 HD
ENDROOT
BRANCH   1   3
HETATM    3  C   UNL     1       8.445  29.050  57.333  1.00  0.00     0.103 A 
HETATM    4  C   UNL     1       8.096  29.594  58.572  1.00  0.00     0.085 A 
HETATM    5  C   UNL     1       8.893  30.573  59.174  1.00  0.00     0.073 A 
HETATM    6  C   UNL     1      10.043  31.000  58.530  1.00  0.00     0.053 A 
HETATM    7  C   UNL     1      10.365  30.435  57.306  1.00  0.00     0.092 A 
HETATM    8  N   UNL     1       9.576  29.499  56.763  1.00  0.00    -0.352 N 
HETATM    9  H   UNL     1       9.842  29.090  55.872  1.00  0.00     0.166 HD
BRANCH   5  10
HETATM   10  O   UNL     1       8.435  31.013  60.380  1.00  0.00    -0.356 OA
HETATM   11  C   UNL     1       9.395  31.477  61.325  1.00  0.00     0.210 C 
ENDBRANCH   5  10
ENDBRANCH   1   3
BRANCH   1  12
HETATM   12  C   UNL     1       7.299  26.836  57.303  1.00  0.00     0.180 C 
BRANCH  12  13
HETATM   13  C   UNL     1       7.906  25.593  56.768  1.00  0.00     0.053 A 
HETATM   14  N   UNL     1       7.525  25.012  55.569  1.00  0.00    -0.306 N 
HETATM   15  C   UNL     1       8.306  23.869  55.414  1.00  0.00     0.133 A 
HETATM   16  C   UNL     1       6.565  25.408  54.637  1.00  0.00     0.118 A 
HETATM   17  C   UNL     1       8.096  23.085  54.245  1.00  0.00     0.052 A 
HETATM   18  N   UNL     1       9.130  23.708  56.424  1.00  0.00    -0.241 NA
HETATM   19  C   UNL     1       7.170  23.462  53.343  1.00  0.00     0.024 A 
HETATM   20  C   UNL     1       6.370  24.664  53.533  1.00  0.00     0.027 A 
HETATM   21 BR   UNL     1       5.113  25.111  52.236  1.00  0.00    -0.050 Br
HETATM   22  C   UNL     1       8.887  24.758  57.264  1.00  0.00     0.146 A 
ENDBRANCH  12  13
ENDBRANCH   1  12
TORSDOF 4
ENDMDL
MODEL 9
REMARK VINA RESULT:      -7.0      4.968      8.993
REMARK  4 active torsions:
REMARK  status: ('A' for Active; 'I' for Inactive)
REMARK    1  A    between atoms: O_2  and  C_3 
REMARK    2  A    between atoms: C_5  and  N_6 
REMARK    3  A    between atoms: N_6  and  C_7 
REMARK    4  A    between atoms: C_7  and  C_8 
ROOT
HETATM    1  N   UNL     1       6.507  30.887  58.796  1.00  0.00    -0.371 N 
HETATM    2  H   UNL     1       5.521  31.025  58.611  1.00  0.00     0.161 HD
ENDROOT
BRANCH   1   3
HETATM    3  C   UNL     1       7.211  29.894  58.164  1.00  0.00     0.103 A 
HETATM    4  C   UNL     1       8.544  29.979  57.754  1.00  0.00     0.085 A 
HETATM    5  C   UNL     1       9.174  28.893  57.140  1.00  0.00     0.073 A 
HETATM    6  C   UNL     1       8.464  27.719  56.943  1.00  0.00     0.053 A 
HETATM    7  C   UNL     1       7.146  27.665  57.369  1.00  0.00     0.092 A 
HETATM    8  N   UNL     1       6.578  28.728  57.954  1.00  0.00    -0.352 N 
HETATM    9  H   UNL     1       5.616  28.657  58.271  1.00  0.00     0.166 HD
BRANCH   5  10
HETATM   10  O   UNL     1      10.474  29.115  56.792  1.00  0.00    -0.356 OA
HETATM   11  C   UNL     1      11.168  30.167  57.457  1.00  0.00     0.210 C 
ENDBRANCH   5  10
ENDBRANCH   1   3
BRANCH   1  12
HETATM   12  C   UNL     1       7.138  32.046  59.422  1.00  0.00     0.180 C 
BRANCH  12  13
HETATM   13  C   UNL     1       7.590  31.841  60.820  1.00  0.00     0.053 A 
HETATM   14  N   UNL     1       7.232  32.675  61.868  1.00  0.00    -0.306 N 
HETATM   15  C   UNL     1       7.852  32.169  63.008  1.00  0.00     0.133 A 
HETATM   16  C   UNL     1       6.427  33.815  61.882  1.00  0.00     0.118 A 
HETATM   17  C   UNL     1       7.640  32.864  64.232  1.00  0.00     0.052 A 
HETATM   18  N   UNL     1       8.558  31.095  62.737  1.00  0.00    -0.241 NA
HETATM   19  C   UNL     1       6.865  33.965  64.251  1.00  0.00     0.024 A 
HETATM   20  C   UNL     1       6.229  34.468  63.041  1.00  0.00     0.027 A 
HETATM   21 BR   UNL     1       5.174  35.996  63.160  1.00  0.00    -0.050 Br
HETATM   22  C   UNL     1       8.409  30.890  61.395  1.00  0.00     0.146 A 
ENDBRANCH  12  13
ENDBRANCH   1  12
TORSDOF 4
ENDMDL
MODEL 10
REMARK VINA RESULT:      -7.0      1.979      2.465
REMARK  4 active torsions:
REMARK  status: ('A' for Active; 'I' for Inactive)
REMARK    1  A    between atoms: O_2  and  C_3 
REMARK    2  A    between atoms: C_5  and  N_6 
REMARK    3  A    between atoms: N_6  and  C_7 
REMARK    4  A    between atoms: C_7  and  C_8 
ROOT
HETATM    1  N   UNL     1       8.123  27.458  57.313  1.00  0.00    -0.371 N 
HETATM    2  H   UNL     1       9.102  27.350  57.078  1.00  0.00     0.161 HD
ENDROOT
BRANCH   1   3
HETATM    3  C   UNL     1       7.610  28.683  57.653  1.00  0.00     0.103 A 
HETATM    4  C   UNL     1       6.418  29.227  57.168  1.00  0.00     0.085 A 
HETATM    5  C   UNL     1       5.974  30.479  57.602  1.00  0.00     0.073 A 
HETATM    6  C   UNL     1       6.726  31.181  58.530  1.00  0.00     0.053 A 
HETATM    7  C   UNL     1       7.900  30.610  58.997  1.00  0.00     0.092 A 
HETATM    8  N   UNL     1       8.292  29.407  58.557  1.00  0.00    -0.352 N 
HETATM    9  H   UNL     1       9.147  29.005  58.926  1.00  0.00     0.166 HD
BRANCH   5  10
HETATM   10  O   UNL     1       4.797  30.886  57.047  1.00  0.00    -0.356 OA
HETATM   11  C   UNL     1       4.848  31.924  56.071  1.00  0.00     0.210 C 
ENDBRANCH   5  10
ENDBRANCH   1   3
BRANCH   1  12
HETATM   12  C   UNL     1       7.299  26.340  56.859  1.00  0.00     0.180 C 
BRANCH  12  13
HETATM   13  C   UNL     1       7.431  26.002  55.421  1.00  0.00     0.053 A 
HETATM   14  N   UNL     1       7.568  24.706  54.950  1.00  0.00    -0.306 N 
HETATM   15  C   UNL     1       7.672  24.794  53.564  1.00  0.00     0.133 A 
HETATM   16  C   UNL     1       7.611  23.493  55.640  1.00  0.00     0.118 A 
HETATM   17  C   UNL     1       7.829  23.580  52.840  1.00  0.00     0.052 A 
HETATM   18  N   UNL     1       7.609  26.041  53.154  1.00  0.00    -0.241 NA
HETATM   19  C   UNL     1       7.871  22.407  53.500  1.00  0.00     0.024 A 
HETATM   20  C   UNL     1       7.758  22.347  54.951  1.00  0.00     0.027 A 
HETATM   21 BR   UNL     1       7.827  20.684  55.781  1.00  0.00    -0.050 Br
HETATM   22  C   UNL     1       7.469  26.790  54.288  1.00  0.00     0.146 A 
ENDBRANCH  12  13
ENDBRANCH   1  12
TORSDOF 4
ENDMDL
