MODEL 1
REMARK VINA RESULT:      -9.4      0.000      0.000
REMARK  9 active torsions:
REMARK  status: ('A' for Active; 'I' for Inactive)
REMARK    1  A    between atoms: O_2  and  C_3 
REMARK    2  A    between atoms: C_6  and  C_7 
REMARK    3  A    between atoms: C_13  and  C_14 
REMARK       I    between atoms: C_14  and  N_15 
REMARK    4  A    between atoms: N_15  and  N_16 
REMARK    5  A    between atoms: N_16  and  C_17 
REMARK    6  A    between atoms: C_17  and  N_18 
REMARK    7  A    between atoms: N_18  and  C_19 
REMARK    8  A    between atoms: C_19  and  C_20 
REMARK    9  A    between atoms: C_27  and  C_28 
ROOT
HETATM    1  C   UNL     1       7.606  27.234  53.572  1.00  0.00     0.118 C 
HETATM    2  N   UNL     1       7.584  27.999  54.817  1.00  0.00    -0.365 N 
HETATM    3  C   UNL     1       6.414  28.227  55.466  1.00  0.00     0.138 A 
HETATM    4  N   UNL     1       5.215  28.080  54.816  1.00  0.00    -0.240 N 
HETATM    5  N   UNL     1       4.151  28.282  55.609  1.00  0.00    -0.181 NA
HETATM    6  C   UNL     1       4.705  28.625  56.777  1.00  0.00     0.160 A 
HETATM    7  C   UNL     1       6.119  28.589  56.767  1.00  0.00     0.098 A 
HETATM    8  C   UNL     1       5.087  27.606  53.449  1.00  0.00     0.221 C 
HETATM    9  C   UNL     1       6.434  27.736  52.707  1.00  0.00     0.066 C 
HETATM   10  H   UNL     1       8.456  28.002  55.353  1.00  0.00     0.161 HD
ENDROOT
BRANCH   7  11
HETATM   11  C   UNL     1       7.091  28.869  57.809  1.00  0.00     0.275 C 
HETATM   12  N   UNL     1       7.060  30.088  58.472  1.00  0.00    -0.263 N 
HETATM   13  H   UNL     1       7.695  30.087  59.266  1.00  0.00     0.190 HD
HETATM   14  O   UNL     1       7.963  28.058  58.125  1.00  0.00    -0.266 OA
BRANCH  12  15
HETATM   15  N   UNL     1       5.863  30.802  58.691  1.00  0.00    -0.274 N 
HETATM   16  H   UNL     1       5.077  30.570  58.090  1.00  0.00     0.189 HD
BRANCH  15  17
HETATM   17  C   UNL     1       5.826  31.905  59.507  1.00  0.00     0.186 C 
HETATM   18  S   UNL     1       5.013  33.330  59.183  1.00  0.00    -0.040 SA
BRANCH  17  19
HETATM   19  N   UNL     1       6.501  31.820  60.687  1.00  0.00    -0.360 N 
HETATM   20  H   UNL     1       6.255  31.012  61.246  1.00  0.00     0.162 HD
BRANCH  19  21
HETATM   21  C   UNL     1       7.626  32.612  61.144  1.00  0.00     0.187 C 
BRANCH  21  22
HETATM   22  C   UNL     1       7.385  33.068  62.531  1.00  0.00     0.070 A 
HETATM   23  O   UNL     1       6.428  34.028  62.699  1.00  0.00    -0.325 OA
HETATM   24  C   UNL     1       6.369  34.296  64.030  1.00  0.00     0.142 A 
HETATM   25  C   UNL     1       7.270  33.519  64.719  1.00  0.00     0.027 A 
HETATM   26  C   UNL     1       7.930  32.725  63.752  1.00  0.00     0.036 A 
ENDBRANCH  21  22
ENDBRANCH  19  21
ENDBRANCH  17  19
ENDBRANCH  15  17
ENDBRANCH  12  15
ENDBRANCH   7  11
BRANCH   1  27
HETATM   27  C   UNL     1       7.605  25.724  53.791  1.00  0.00    -0.035 A 
HETATM   28  C   UNL     1       7.494  25.140  55.063  1.00  0.00     0.012 A 
HETATM   29  C   UNL     1       7.481  23.751  55.221  1.00  0.00     0.037 A 
HETATM   30  C   UNL     1       7.582  22.906  54.118  1.00  0.00     0.068 A 
HETATM   31  C   UNL     1       7.736  23.464  52.853  1.00  0.00     0.037 A 
HETATM   32  C   UNL     1       7.756  24.857  52.693  1.00  0.00     0.012 A 
BRANCH  30  33
HETATM   33  O   UNL     1       7.536  21.572  54.408  1.00  0.00    -0.356 OA
HETATM   34  C   UNL     1       8.008  20.685  53.401  1.00  0.00     0.210 C 
ENDBRANCH  30  33
ENDBRANCH   1  27
BRANCH   8  35
HETATM   35  C   UNL     1       4.018  28.357  52.686  1.00  0.00     0.409 C 
HETATM   36  F   UNL     1       4.094  29.695  52.861  1.00  0.00    -0.169 F 
HETATM   37  F   UNL     1       4.177  28.137  51.351  1.00  0.00    -0.169 F 
HETATM   38  F   UNL     1       2.762  27.960  52.977  1.00  0.00    -0.169 F 
ENDBRANCH   8  35
TORSDOF 9
ENDMDL
MODEL 2
REMARK VINA RESULT:      -9.2      3.564      4.538
REMARK  9 active torsions:
REMARK  status: ('A' for Active; 'I' for Inactive)
REMARK    1  A    between atoms: O_2  and  C_3 
REMARK    2  A    between atoms: C_6  and  C_7 
REMARK    3  A    between atoms: C_13  and  C_14 
REMARK       I    between atoms: C_14  and  N_15 
REMARK    4  A    between atoms: N_15  and  N_16 
REMARK    5  A    between atoms: N_16  and  C_17 
REMARK    6  A    between atoms: C_17  and  N_18 
REMARK    7  A    between atoms: N_18  and  C_19 
REMARK    8  A    between atoms: C_19  and  C_20 
REMARK    9  A    between atoms: C_27  and  C_28 
ROOT
HETATM    1  C   UNL     1       5.218  25.891  56.103  1.00  0.00     0.118 C 
HETATM    2  N   UNL     1       5.531  27.101  56.860  1.00  0.00    -0.365 N 
HETATM    3  C   UNL     1       6.821  27.481  57.051  1.00  0.00     0.138 A 
HETATM    4  N   UNL     1       7.846  26.588  56.872  1.00  0.00    -0.240 N 
HETATM    5  N   UNL     1       9.061  27.132  57.038  1.00  0.00    -0.181 NA
HETATM    6  C   UNL     1       8.784  28.391  57.391  1.00  0.00     0.160 A 
HETATM    7  C   UNL     1       7.400  28.687  57.397  1.00  0.00     0.098 A 
HETATM    8  C   UNL     1       7.661  25.226  56.401  1.00  0.00     0.221 C 
HETATM    9  C   UNL     1       6.189  24.793  56.575  1.00  0.00     0.066 C 
HETATM   10  H   UNL     1       4.797  27.813  56.887  1.00  0.00     0.161 HD
ENDROOT
BRANCH   7  11
HETATM   11  C   UNL     1       6.685  29.914  57.701  1.00  0.00     0.275 C 
HETATM   12  N   UNL     1       6.776  30.470  58.969  1.00  0.00    -0.263 N 
HETATM   13  H   UNL     1       6.350  31.394  58.994  1.00  0.00     0.190 HD
HETATM   14  O   UNL     1       5.981  30.485  56.865  1.00  0.00    -0.266 OA
BRANCH  12  15
HETATM   15  N   UNL     1       7.929  30.345  59.771  1.00  0.00    -0.274 N 
HETATM   16  H   UNL     1       8.538  29.555  59.575  1.00  0.00     0.189 HD
BRANCH  15  17
HETATM   17  C   UNL     1       8.102  31.105  60.901  1.00  0.00     0.186 C 
HETATM   18  S   UNL     1       9.484  31.959  61.299  1.00  0.00    -0.040 SA
BRANCH  17  19
HETATM   19  N   UNL     1       7.049  31.178  61.761  1.00  0.00    -0.360 N 
HETATM   20  H   UNL     1       6.984  30.396  62.402  1.00  0.00     0.162 HD
BRANCH  19  21
HETATM   21  C   UNL     1       6.147  32.290  61.995  1.00  0.00     0.187 C 
BRANCH  21  22
HETATM   22  C   UNL     1       6.364  32.831  63.354  1.00  0.00     0.070 A 
HETATM   23  O   UNL     1       5.244  33.116  64.082  1.00  0.00    -0.325 OA
HETATM   24  C   UNL     1       5.667  33.594  65.282  1.00  0.00     0.142 A 
HETATM   25  C   UNL     1       7.040  33.615  65.337  1.00  0.00     0.027 A 
HETATM   26  C   UNL     1       7.494  33.123  64.091  1.00  0.00     0.036 A 
ENDBRANCH  21  22
ENDBRANCH  19  21
ENDBRANCH  17  19
ENDBRANCH  15  17
ENDBRANCH  12  15
ENDBRANCH   7  11
BRANCH   1  27
HETATM   27  C   UNL     1       5.221  26.107  54.592  1.00  0.00    -0.035 A 
HETATM   28  C   UNL     1       5.186  25.046  53.673  1.00  0.00     0.012 A 
HETATM   29  C   UNL     1       5.175  25.285  52.296  1.00  0.00     0.037 A 
HETATM   30  C   UNL     1       5.201  26.585  51.797  1.00  0.00     0.068 A 
HETATM   31  C   UNL     1       5.278  27.649  52.690  1.00  0.00     0.037 A 
HETATM   32  C   UNL     1       5.298  27.412  54.072  1.00  0.00     0.012 A 
BRANCH  30  33
HETATM   33  O   UNL     1       5.164  26.680  50.434  1.00  0.00    -0.356 OA
HETATM   34  C   UNL     1       4.953  27.978  49.892  1.00  0.00     0.210 C 
ENDBRANCH  30  33
ENDBRANCH   1  27
BRANCH   8  35
HETATM   35  C   UNL     1       8.561  24.249  57.124  1.00  0.00     0.409 C 
HETATM   36  F   UNL     1       9.791  24.162  56.569  1.00  0.00    -0.169 F 
HETATM   37  F   UNL     1       8.750  24.672  58.406  1.00  0.00    -0.169 F 
HETATM   38  F   UNL     1       8.048  23.005  57.219  1.00  0.00    -0.169 F 
ENDBRANCH   8  35
TORSDOF 9
ENDMDL
MODEL 3
REMARK VINA RESULT:      -8.8      3.471      8.831
REMARK  9 active torsions:
REMARK  status: ('A' for Active; 'I' for Inactive)
REMARK    1  A    between atoms: O_2  and  C_3 
REMARK    2  A    between atoms: C_6  and  C_7 
REMARK    3  A    between atoms: C_13  and  C_14 
REMARK       I    between atoms: C_14  and  N_15 
REMARK    4  A    between atoms: N_15  and  N_16 
REMARK    5  A    between atoms: N_16  and  C_17 
REMARK    6  A    between atoms: C_17  and  N_18 
REMARK    7  A    between atoms: N_18  and  C_19 
REMARK    8  A    between atoms: C_19  and  C_20 
REMARK    9  A    between atoms: C_27  and  C_28 
ROOT
HETATM    1  C   UNL     1       8.340  29.564  56.850  1.00  0.00     0.118 C 
HETATM    2  N   UNL     1       7.291  29.698  55.842  1.00  0.00    -0.365 N 
HETATM    3  C   UNL     1       6.187  28.910  55.886  1.00  0.00     0.138 A 
HETATM    4  N   UNL     1       6.184  27.752  56.623  1.00  0.00    -0.240 N 
HETATM    5  N   UNL     1       5.001  27.119  56.614  1.00  0.00    -0.181 NA
HETATM    6  C   UNL     1       4.259  27.873  55.796  1.00  0.00     0.160 A 
HETATM    7  C   UNL     1       4.930  29.025  55.322  1.00  0.00     0.098 A 
HETATM    8  C   UNL     1       7.291  27.321  57.458  1.00  0.00     0.221 C 
HETATM    9  C   UNL     1       8.587  28.057  57.054  1.00  0.00     0.066 C 
HETATM   10  H   UNL     1       7.229  30.610  55.382  1.00  0.00     0.161 HD
ENDROOT
BRANCH   7  11
HETATM   11  C   UNL     1       4.491  30.094  54.443  1.00  0.00     0.275 C 
HETATM   12  N   UNL     1       5.000  30.181  53.155  1.00  0.00    -0.263 N 
HETATM   13  H   UNL     1       4.499  30.881  52.611  1.00  0.00     0.190 HD
HETATM   14  O   UNL     1       3.680  30.948  54.806  1.00  0.00    -0.266 OA
BRANCH  12  15
HETATM   15  N   UNL     1       5.388  29.045  52.414  1.00  0.00    -0.274 N 
HETATM   16  H   UNL     1       6.385  28.864  52.345  1.00  0.00     0.189 HD
BRANCH  15  17
HETATM   17  C   UNL     1       4.490  28.356  51.638  1.00  0.00     0.186 C 
HETATM   18  S   UNL     1       3.371  29.041  50.600  1.00  0.00    -0.040 SA
BRANCH  17  19
HETATM   19  N   UNL     1       4.527  26.996  51.714  1.00  0.00    -0.360 N 
HETATM   20  H   UNL     1       4.597  26.535  50.814  1.00  0.00     0.162 HD
BRANCH  19  21
HETATM   21  C   UNL     1       4.665  26.159  52.890  1.00  0.00     0.187 C 
BRANCH  21  22
HETATM   22  C   UNL     1       5.939  25.410  52.822  1.00  0.00     0.070 A 
HETATM   23  O   UNL     1       6.968  26.017  52.161  1.00  0.00    -0.325 OA
HETATM   24  C   UNL     1       8.028  25.168  52.218  1.00  0.00     0.142 A 
HETATM   25  C   UNL     1       7.696  24.027  52.910  1.00  0.00     0.027 A 
HETATM   26  C   UNL     1       6.345  24.180  53.300  1.00  0.00     0.036 A 
ENDBRANCH  21  22
ENDBRANCH  19  21
ENDBRANCH  17  19
ENDBRANCH  15  17
ENDBRANCH  12  15
ENDBRANCH   7  11
BRANCH   1  27
HETATM   27  C   UNL     1       8.037  30.317  58.142  1.00  0.00    -0.035 A 
HETATM   28  C   UNL     1       6.955  31.203  58.269  1.00  0.00     0.012 A 
HETATM   29  C   UNL     1       6.701  31.863  59.475  1.00  0.00     0.037 A 
HETATM   30  C   UNL     1       7.518  31.661  60.585  1.00  0.00     0.068 A 
HETATM   31  C   UNL     1       8.619  30.819  60.468  1.00  0.00     0.037 A 
HETATM   32  C   UNL     1       8.881  30.162  59.257  1.00  0.00     0.012 A 
BRANCH  30  33
HETATM   33  O   UNL     1       7.147  32.349  61.706  1.00  0.00    -0.356 OA
HETATM   34  C   UNL     1       8.036  32.284  62.815  1.00  0.00     0.210 C 
ENDBRANCH  30  33
ENDBRANCH   1  27
BRANCH   8  35
HETATM   35  C   UNL     1       7.515  25.827  57.374  1.00  0.00     0.409 C 
HETATM   36  F   UNL     1       8.522  25.404  58.171  1.00  0.00    -0.169 F 
HETATM   37  F   UNL     1       6.394  25.178  57.798  1.00  0.00    -0.169 F 
HETATM   38  F   UNL     1       7.747  25.382  56.122  1.00  0.00    -0.169 F 
ENDBRANCH   8  35
TORSDOF 9
ENDMDL
MODEL 4
REMARK VINA RESULT:      -8.7      5.176      8.315
REMARK  9 active torsions:
REMARK  status: ('A' for Active; 'I' for Inactive)
REMARK    1  A    between atoms: O_2  and  C_3 
REMARK    2  A    between atoms: C_6  and  C_7 
REMARK    3  A    between atoms: C_13  and  C_14 
REMARK       I    between atoms: C_14  and  N_15 
REMARK    4  A    between atoms: N_15  and  N_16 
REMARK    5  A    between atoms: N_16  and  C_17 
REMARK    6  A    between atoms: C_17  and  N_18 
REMARK    7  A    between atoms: N_18  and  C_19 
REMARK    8  A    between atoms: C_19  and  C_20 
REMARK    9  A    between atoms: C_27  and  C_28 
ROOT
HETATM    1  C   UNL     1       6.092  25.366  56.689  1.00  0.00     0.118 C 
HETATM    2  N   UNL     1       5.418  25.949  55.531  1.00  0.00    -0.365 N 
HETATM    3  C   UNL     1       6.068  26.827  54.724  1.00  0.00     0.138 A 
HETATM    4  N   UNL     1       7.205  27.462  55.155  1.00  0.00    -0.240 N 
HETATM    5  N   UNL     1       7.761  28.248  54.222  1.00  0.00    -0.181 NA
HETATM    6  C   UNL     1       6.911  28.149  53.195  1.00  0.00     0.160 A 
HETATM    7  C   UNL     1       5.839  27.256  53.430  1.00  0.00     0.098 A 
HETATM    8  C   UNL     1       7.841  27.203  56.435  1.00  0.00     0.221 C 
HETATM    9  C   UNL     1       6.854  26.503  57.394  1.00  0.00     0.066 C 
HETATM   10  H   UNL     1       4.642  25.404  55.145  1.00  0.00     0.161 HD
ENDROOT
BRANCH   7  11
HETATM   11  C   UNL     1       4.725  26.854  52.589  1.00  0.00     0.275 C 
HETATM   12  N   UNL     1       3.494  27.479  52.731  1.00  0.00    -0.263 N 
HETATM   13  H   UNL     1       2.858  27.204  51.985  1.00  0.00     0.190 HD
HETATM   14  O   UNL     1       4.830  25.959  51.748  1.00  0.00    -0.266 OA
BRANCH  12  15
HETATM   15  N   UNL     1       3.368  28.826  53.128  1.00  0.00    -0.274 N 
HETATM   16  H   UNL     1       3.378  29.010  54.127  1.00  0.00     0.189 HD
BRANCH  15  17
HETATM   17  C   UNL     1       3.018  29.807  52.234  1.00  0.00     0.186 C 
HETATM   18  S   UNL     1       3.743  31.309  52.101  1.00  0.00    -0.040 SA
BRANCH  17  19
HETATM   19  N   UNL     1       2.002  29.521  51.373  1.00  0.00    -0.360 N 
HETATM   20  H   UNL     1       1.143  29.237  51.829  1.00  0.00     0.162 HD
BRANCH  19  21
HETATM   21  C   UNL     1       1.938  29.747  49.942  1.00  0.00     0.187 C 
BRANCH  21  22
HETATM   22  C   UNL     1       2.179  28.476  49.225  1.00  0.00     0.070 A 
HETATM   23  O   UNL     1       3.396  27.888  49.420  1.00  0.00    -0.325 OA
HETATM   24  C   UNL     1       3.405  26.748  48.679  1.00  0.00     0.142 A 
HETATM   25  C   UNL     1       2.211  26.594  48.016  1.00  0.00     0.027 A 
HETATM   26  C   UNL     1       1.417  27.711  48.365  1.00  0.00     0.036 A 
ENDBRANCH  21  22
ENDBRANCH  19  21
ENDBRANCH  17  19
ENDBRANCH  15  17
ENDBRANCH  12  15
ENDBRANCH   7  11
BRANCH   1  27
HETATM   27  C   UNL     1       6.966  24.166  56.338  1.00  0.00    -0.035 A 
HETATM   28  C   UNL     1       7.888  23.608  57.237  1.00  0.00     0.012 A 
HETATM   29  C   UNL     1       8.661  22.498  56.884  1.00  0.00     0.037 A 
HETATM   30  C   UNL     1       8.539  21.915  55.625  1.00  0.00     0.068 A 
HETATM   31  C   UNL     1       7.661  22.479  54.703  1.00  0.00     0.037 A 
HETATM   32  C   UNL     1       6.891  23.597  55.053  1.00  0.00     0.012 A 
BRANCH  30  33
HETATM   33  O   UNL     1       9.335  20.825  55.414  1.00  0.00    -0.356 OA
HETATM   34  C   UNL     1       8.897  19.898  54.428  1.00  0.00     0.210 C 
ENDBRANCH  30  33
ENDBRANCH   1  27
BRANCH   8  35
HETATM   35  C   UNL     1       8.354  28.471  57.079  1.00  0.00     0.409 C 
HETATM   36  F   UNL     1       7.864  29.589  56.497  1.00  0.00    -0.169 F 
HETATM   37  F   UNL     1       7.954  28.512  58.381  1.00  0.00    -0.169 F 
HETATM   38  F   UNL     1       9.700  28.561  57.106  1.00  0.00    -0.169 F 
ENDBRANCH   8  35
TORSDOF 9
ENDMDL
MODEL 5
REMARK VINA RESULT:      -8.6      1.655      1.916
REMARK  9 active torsions:
REMARK  status: ('A' for Active; 'I' for Inactive)
REMARK    1  A    between atoms: O_2  and  C_3 
REMARK    2  A    between atoms: C_6  and  C_7 
REMARK    3  A    between atoms: C_13  and  C_14 
REMARK       I    between atoms: C_14  and  N_15 
REMARK    4  A    between atoms: N_15  and  N_16 
REMARK    5  A    between atoms: N_16  and  C_17 
REMARK    6  A    between atoms: C_17  and  N_18 
REMARK    7  A    between atoms: N_18  and  C_19 
REMARK    8  A    between atoms: C_19  and  C_20 
REMARK    9  A    between atoms: C_27  and  C_28 
ROOT
HETATM    1  C   UNL     1       7.543  27.532  53.562  1.00  0.00     0.118 C 
HETATM    2  N   UNL     1       8.087  28.354  54.641  1.00  0.00    -0.365 N 
HETATM    3  C   UNL     1       7.311  28.705  55.699  1.00  0.00     0.138 A 
HETATM    4  N   UNL     1       5.944  28.623  55.620  1.00  0.00    -0.240 N 
HETATM    5  N   UNL     1       5.325  28.945  56.766  1.00  0.00    -0.181 NA
HETATM    6  C   UNL     1       6.335  29.298  57.568  1.00  0.00     0.160 A 
HETATM    7  C   UNL     1       7.610  29.149  56.973  1.00  0.00     0.098 A 
HETATM    8  C   UNL     1       5.229  28.097  54.471  1.00  0.00     0.221 C 
HETATM    9  C   UNL     1       6.145  28.085  53.228  1.00  0.00     0.066 C 
HETATM   10  H   UNL     1       9.102  28.314  54.765  1.00  0.00     0.161 HD
ENDROOT
BRANCH   7  11
HETATM   11  C   UNL     1       8.943  29.400  57.491  1.00  0.00     0.275 C 
HETATM   12  N   UNL     1       9.104  30.161  58.641  1.00  0.00    -0.263 N 
HETATM   13  H   UNL     1      10.068  30.130  58.967  1.00  0.00     0.190 HD
HETATM   14  O   UNL     1       9.954  28.965  56.936  1.00  0.00    -0.266 OA
BRANCH  12  15
HETATM   15  N   UNL     1       8.146  30.185  59.676  1.00  0.00    -0.274 N 
HETATM   16  H   UNL     1       7.212  29.863  59.440  1.00  0.00     0.189 HD
BRANCH  15  17
HETATM   17  C   UNL     1       8.394  30.823  60.866  1.00  0.00     0.186 C 
HETATM   18  S   UNL     1       9.407  30.269  62.076  1.00  0.00    -0.040 SA
BRANCH  17  19
HETATM   19  N   UNL     1       7.768  32.016  61.067  1.00  0.00    -0.360 N 
HETATM   20  H   UNL     1       8.219  32.801  60.611  1.00  0.00     0.162 HD
BRANCH  19  21
HETATM   21  C   UNL     1       6.476  32.269  61.674  1.00  0.00     0.187 C 
BRANCH  21  22
HETATM   22  C   UNL     1       6.662  32.921  62.989  1.00  0.00     0.070 A 
HETATM   23  O   UNL     1       5.600  33.630  63.473  1.00  0.00    -0.325 OA
HETATM   24  C   UNL     1       5.981  34.138  64.675  1.00  0.00     0.142 A 
HETATM   25  C   UNL     1       7.270  33.762  64.971  1.00  0.00     0.027 A 
HETATM   26  C   UNL     1       7.713  32.977  63.882  1.00  0.00     0.036 A 
ENDBRANCH  21  22
ENDBRANCH  19  21
ENDBRANCH  17  19
ENDBRANCH  15  17
ENDBRANCH  12  15
ENDBRANCH   7  11
BRANCH   1  27
HETATM   27  C   UNL     1       7.555  26.039  53.875  1.00  0.00    -0.035 A 
HETATM   28  C   UNL     1       7.551  25.537  55.186  1.00  0.00     0.012 A 
HETATM   29  C   UNL     1       7.546  24.161  55.433  1.00  0.00     0.037 A 
HETATM   30  C   UNL     1       7.549  23.248  54.381  1.00  0.00     0.068 A 
HETATM   31  C   UNL     1       7.596  23.724  53.074  1.00  0.00     0.037 A 
HETATM   32  C   UNL     1       7.608  25.104  52.825  1.00  0.00     0.012 A 
BRANCH  30  33
HETATM   33  O   UNL     1       7.522  21.935  54.758  1.00  0.00    -0.356 OA
HETATM   34  C   UNL     1       8.617  21.476  55.541  1.00  0.00     0.210 C 
ENDBRANCH  30  33
ENDBRANCH   1  27
BRANCH   8  35
HETATM   35  C   UNL     1       3.980  28.894  54.167  1.00  0.00     0.409 C 
HETATM   36  F   UNL     1       3.267  28.379  53.139  1.00  0.00    -0.169 F 
HETATM   37  F   UNL     1       3.155  28.873  55.252  1.00  0.00    -0.169 F 
HETATM   38  F   UNL     1       4.216  30.197  53.910  1.00  0.00    -0.169 F 
ENDBRANCH   8  35
TORSDOF 9
ENDMDL
MODEL 6
REMARK VINA RESULT:      -8.6      1.211      1.823
REMARK  9 active torsions:
REMARK  status: ('A' for Active; 'I' for Inactive)
REMARK    1  A    between atoms: O_2  and  C_3 
REMARK    2  A    between atoms: C_6  and  C_7 
REMARK    3  A    between atoms: C_13  and  C_14 
REMARK       I    between atoms: C_14  and  N_15 
REMARK    4  A    between atoms: N_15  and  N_16 
REMARK    5  A    between atoms: N_16  and  C_17 
REMARK    6  A    between atoms: C_17  and  N_18 
REMARK    7  A    between atoms: N_18  and  C_19 
REMARK    8  A    between atoms: C_19  and  C_20 
REMARK    9  A    between atoms: C_27  and  C_28 
ROOT
HETATM    1  C   UNL     1       7.659  27.141  53.535  1.00  0.00     0.118 C 
HETATM    2  N   UNL     1       7.703  27.828  54.824  1.00  0.00    -0.365 N 
HETATM    3  C   UNL     1       6.562  28.053  55.525  1.00  0.00     0.138 A 
HETATM    4  N   UNL     1       5.338  27.984  54.908  1.00  0.00    -0.240 N 
HETATM    5  N   UNL     1       4.308  28.170  55.747  1.00  0.00    -0.181 NA
HETATM    6  C   UNL     1       4.909  28.424  56.914  1.00  0.00     0.160 A 
HETATM    7  C   UNL     1       6.321  28.344  56.855  1.00  0.00     0.098 A 
HETATM    8  C   UNL     1       5.151  27.599  53.520  1.00  0.00     0.221 C 
HETATM    9  C   UNL     1       6.478  27.732  52.743  1.00  0.00     0.066 C 
HETATM   10  H   UNL     1       8.591  27.772  55.330  1.00  0.00     0.161 HD
ENDROOT
BRANCH   7  11
HETATM   11  C   UNL     1       7.334  28.529  57.878  1.00  0.00     0.275 C 
HETATM   12  N   UNL     1       7.534  29.786  58.431  1.00  0.00    -0.263 N 
HETATM   13  H   UNL     1       8.163  29.737  59.229  1.00  0.00     0.190 HD
HETATM   14  O   UNL     1       8.043  27.601  58.273  1.00  0.00    -0.266 OA
BRANCH  12  15
HETATM   15  N   UNL     1       6.492  30.726  58.574  1.00  0.00    -0.274 N 
HETATM   16  H   UNL     1       5.723  30.659  57.915  1.00  0.00     0.189 HD
BRANCH  15  17
HETATM   17  C   UNL     1       6.618  31.812  59.404  1.00  0.00     0.186 C 
HETATM   18  S   UNL     1       8.020  32.288  60.182  1.00  0.00    -0.040 SA
BRANCH  17  19
HETATM   19  N   UNL     1       5.504  32.573  59.596  1.00  0.00    -0.360 N 
HETATM   20  H   UNL     1       5.466  33.402  59.015  1.00  0.00     0.162 HD
BRANCH  19  21
HETATM   21  C   UNL     1       4.315  32.258  60.363  1.00  0.00     0.187 C 
BRANCH  21  22
HETATM   22  C   UNL     1       4.466  32.761  61.746  1.00  0.00     0.070 A 
HETATM   23  O   UNL     1       5.278  32.038  62.572  1.00  0.00    -0.325 OA
HETATM   24  C   UNL     1       5.276  32.667  63.777  1.00  0.00     0.142 A 
HETATM   25  C   UNL     1       4.477  33.786  63.735  1.00  0.00     0.027 A 
HETATM   26  C   UNL     1       3.951  33.848  62.423  1.00  0.00     0.036 A 
ENDBRANCH  21  22
ENDBRANCH  19  21
ENDBRANCH  17  19
ENDBRANCH  15  17
ENDBRANCH  12  15
ENDBRANCH   7  11
BRANCH   1  27
HETATM   27  C   UNL     1       7.615  25.621  53.663  1.00  0.00    -0.035 A 
HETATM   28  C   UNL     1       7.631  24.764  52.551  1.00  0.00     0.012 A 
HETATM   29  C   UNL     1       7.605  23.376  52.709  1.00  0.00     0.037 A 
HETATM   30  C   UNL     1       7.558  22.803  53.978  1.00  0.00     0.068 A 
HETATM   31  C   UNL     1       7.498  23.635  55.092  1.00  0.00     0.037 A 
HETATM   32  C   UNL     1       7.517  25.028  54.935  1.00  0.00     0.012 A 
BRANCH  30  33
HETATM   33  O   UNL     1       7.558  21.436  53.994  1.00  0.00    -0.356 OA
HETATM   34  C   UNL     1       8.319  20.788  52.982  1.00  0.00     0.210 C 
ENDBRANCH  30  33
ENDBRANCH   1  27
BRANCH   8  35
HETATM   35  C   UNL     1       4.085  28.428  52.841  1.00  0.00     0.409 C 
HETATM   36  F   UNL     1       2.833  27.998  53.115  1.00  0.00    -0.169 F 
HETATM   37  F   UNL     1       4.155  29.712  53.292  1.00  0.00    -0.169 F 
HETATM   38  F   UNL     1       4.225  28.501  51.501  1.00  0.00    -0.169 F 
ENDBRANCH   8  35
TORSDOF 9
ENDMDL
MODEL 7
REMARK VINA RESULT:      -8.6      3.631      4.904
REMARK  9 active torsions:
REMARK  status: ('A' for Active; 'I' for Inactive)
REMARK    1  A    between atoms: O_2  and  C_3 
REMARK    2  A    between atoms: C_6  and  C_7 
REMARK    3  A    between atoms: C_13  and  C_14 
REMARK       I    between atoms: C_14  and  N_15 
REMARK    4  A    between atoms: N_15  and  N_16 
REMARK    5  A    between atoms: N_16  and  C_17 
REMARK    6  A    between atoms: C_17  and  N_18 
REMARK    7  A    between atoms: N_18  and  C_19 
REMARK    8  A    between atoms: C_19  and  C_20 
REMARK    9  A    between atoms: C_27  and  C_28 
ROOT
HETATM    1  C   UNL     1       4.555  27.813  56.534  1.00  0.00     0.118 C 
HETATM    2  N   UNL     1       5.087  28.827  57.440  1.00  0.00    -0.365 N 
HETATM    3  C   UNL     1       6.426  28.946  57.631  1.00  0.00     0.138 A 
HETATM    4  N   UNL     1       7.274  27.923  57.290  1.00  0.00    -0.240 N 
HETATM    5  N   UNL     1       8.569  28.218  57.483  1.00  0.00    -0.181 NA
HETATM    6  C   UNL     1       8.524  29.442  58.019  1.00  0.00     0.160 A 
HETATM    7  C   UNL     1       7.216  29.970  58.120  1.00  0.00     0.098 A 
HETATM    8  C   UNL     1       6.844  26.697  56.641  1.00  0.00     0.221 C 
HETATM    9  C   UNL     1       5.322  26.506  56.809  1.00  0.00     0.066 C 
HETATM   10  H   UNL     1       4.492  29.645  57.594  1.00  0.00     0.161 HD
ENDROOT
BRANCH   7  11
HETATM   11  C   UNL     1       6.734  31.246  58.619  1.00  0.00     0.275 C 
HETATM   12  N   UNL     1       6.555  31.430  59.984  1.00  0.00    -0.263 N 
HETATM   13  H   UNL     1       6.359  32.405  60.197  1.00  0.00     0.190 HD
HETATM   14  O   UNL     1       6.463  32.183  57.866  1.00  0.00    -0.266 OA
BRANCH  12  15
HETATM   15  N   UNL     1       7.351  30.777  60.947  1.00  0.00    -0.274 N 
HETATM   16  H   UNL     1       7.041  29.857  61.248  1.00  0.00     0.189 HD
BRANCH  15  17
HETATM   17  C   UNL     1       8.355  31.436  61.613  1.00  0.00     0.186 C 
HETATM   18  S   UNL     1       9.718  32.101  60.908  1.00  0.00    -0.040 SA
BRANCH  17  19
HETATM   19  N   UNL     1       8.216  31.568  62.961  1.00  0.00    -0.360 N 
HETATM   20  H   UNL     1       8.576  30.784  63.492  1.00  0.00     0.162 HD
BRANCH  19  21
HETATM   21  C   UNL     1       7.804  32.735  63.718  1.00  0.00     0.187 C 
BRANCH  21  22
HETATM   22  C   UNL     1       6.530  33.257  63.175  1.00  0.00     0.070 A 
HETATM   23  O   UNL     1       5.530  32.347  62.984  1.00  0.00    -0.325 OA
HETATM   24  C   UNL     1       4.466  33.031  62.487  1.00  0.00     0.142 A 
HETATM   25  C   UNL     1       4.767  34.366  62.360  1.00  0.00     0.027 A 
HETATM   26  C   UNL     1       6.102  34.515  62.803  1.00  0.00     0.036 A 
ENDBRANCH  21  22
ENDBRANCH  19  21
ENDBRANCH  17  19
ENDBRANCH  15  17
ENDBRANCH  12  15
ENDBRANCH   7  11
BRANCH   1  27
HETATM   27  C   UNL     1       4.575  28.240  55.069  1.00  0.00    -0.035 A 
HETATM   28  C   UNL     1       4.334  29.560  54.659  1.00  0.00     0.012 A 
HETATM   29  C   UNL     1       4.377  29.916  53.308  1.00  0.00     0.037 A 
HETATM   30  C   UNL     1       4.659  28.967  52.328  1.00  0.00     0.068 A 
HETATM   31  C   UNL     1       4.860  27.644  52.710  1.00  0.00     0.037 A 
HETATM   32  C   UNL     1       4.809  27.283  54.064  1.00  0.00     0.012 A 
BRANCH  30  33
HETATM   33  O   UNL     1       4.692  29.449  51.050  1.00  0.00    -0.356 OA
HETATM   34  C   UNL     1       4.376  28.527  50.014  1.00  0.00     0.210 C 
ENDBRANCH  30  33
ENDBRANCH   1  27
BRANCH   8  35
HETATM   35  C   UNL     1       7.566  25.485  57.185  1.00  0.00     0.409 C 
HETATM   36  F   UNL     1       7.805  25.570  58.513  1.00  0.00    -0.169 F 
HETATM   37  F   UNL     1       6.791  24.378  57.007  1.00  0.00    -0.169 F 
HETATM   38  F   UNL     1       8.732  25.220  56.559  1.00  0.00    -0.169 F 
ENDBRANCH   8  35
TORSDOF 9
ENDMDL
MODEL 8
REMARK VINA RESULT:      -8.4      2.161      3.460
REMARK  9 active torsions:
REMARK  status: ('A' for Active; 'I' for Inactive)
REMARK    1  A    between atoms: O_2  and  C_3 
REMARK    2  A    between atoms: C_6  and  C_7 
REMARK    3  A    between atoms: C_13  and  C_14 
REMARK       I    between atoms: C_14  and  N_15 
REMARK    4  A    between atoms: N_15  and  N_16 
REMARK    5  A    between atoms: N_16  and  C_17 
REMARK    6  A    between atoms: C_17  and  N_18 
REMARK    7  A    between atoms: N_18  and  C_19 
REMARK    8  A    between atoms: C_19  and  C_20 
REMARK    9  A    between atoms: C_27  and  C_28 
ROOT
HETATM    1  C   UNL     1       7.643  27.199  53.586  1.00  0.00     0.118 C 
HETATM    2  N   UNL     1       7.663  27.909  54.863  1.00  0.00    -0.365 N 
HETATM    3  C   UNL     1       6.512  28.131  55.547  1.00  0.00     0.138 A 
HETATM    4  N   UNL     1       5.296  28.035  54.919  1.00  0.00    -0.240 N 
HETATM    5  N   UNL     1       4.254  28.222  55.744  1.00  0.00    -0.181 NA
HETATM    6  C   UNL     1       4.840  28.503  56.912  1.00  0.00     0.160 A 
HETATM    7  C   UNL     1       6.252  28.441  56.869  1.00  0.00     0.098 A 
HETATM    8  C   UNL     1       5.129  27.623  53.536  1.00  0.00     0.221 C 
HETATM    9  C   UNL     1       6.463  27.760  52.771  1.00  0.00     0.066 C 
HETATM   10  H   UNL     1       8.546  27.873  55.379  1.00  0.00     0.161 HD
ENDROOT
BRANCH   7  11
HETATM   11  C   UNL     1       7.252  28.657  57.900  1.00  0.00     0.275 C 
HETATM   12  N   UNL     1       7.407  29.919  58.457  1.00  0.00    -0.263 N 
HETATM   13  H   UNL     1       8.031  29.889  59.260  1.00  0.00     0.190 HD
HETATM   14  O   UNL     1       7.988  27.752  58.298  1.00  0.00    -0.266 OA
BRANCH  12  15
HETATM   15  N   UNL     1       6.333  30.824  58.595  1.00  0.00    -0.274 N 
HETATM   16  H   UNL     1       5.582  30.747  57.916  1.00  0.00     0.189 HD
BRANCH  15  17
HETATM   17  C   UNL     1       6.406  31.895  59.450  1.00  0.00     0.186 C 
HETATM   18  S   UNL     1       7.495  32.066  60.709  1.00  0.00    -0.040 SA
BRANCH  17  19
HETATM   19  N   UNL     1       5.521  32.909  59.243  1.00  0.00    -0.360 N 
HETATM   20  H   UNL     1       5.956  33.799  59.027  1.00  0.00     0.162 HD
BRANCH  19  21
HETATM   21  C   UNL     1       4.079  32.839  59.109  1.00  0.00     0.187 C 
BRANCH  21  22
HETATM   22  C   UNL     1       3.717  32.681  57.684  1.00  0.00     0.070 A 
HETATM   23  O   UNL     1       3.058  31.534  57.346  1.00  0.00    -0.325 OA
HETATM   24  C   UNL     1       2.825  31.593  56.008  1.00  0.00     0.142 A 
HETATM   25  C   UNL     1       3.321  32.764  55.484  1.00  0.00     0.027 A 
HETATM   26  C   UNL     1       3.899  33.469  56.565  1.00  0.00     0.036 A 
ENDBRANCH  21  22
ENDBRANCH  19  21
ENDBRANCH  17  19
ENDBRANCH  15  17
ENDBRANCH  12  15
ENDBRANCH   7  11
BRANCH   1  27
HETATM   27  C   UNL     1       7.616  25.681  53.739  1.00  0.00    -0.035 A 
HETATM   28  C   UNL     1       7.688  24.805  52.644  1.00  0.00     0.012 A 
HETATM   29  C   UNL     1       7.676  23.420  52.826  1.00  0.00     0.037 A 
HETATM   30  C   UNL     1       7.591  22.868  54.103  1.00  0.00     0.068 A 
HETATM   31  C   UNL     1       7.477  23.719  55.198  1.00  0.00     0.037 A 
HETATM   32  C   UNL     1       7.480  25.109  55.017  1.00  0.00     0.012 A 
BRANCH  30  33
HETATM   33  O   UNL     1       7.611  21.503  54.143  1.00  0.00    -0.356 OA
HETATM   34  C   UNL     1       8.775  20.868  53.629  1.00  0.00     0.210 C 
ENDBRANCH  30  33
ENDBRANCH   1  27
BRANCH   8  35
HETATM   35  C   UNL     1       4.060  28.427  52.831  1.00  0.00     0.409 C 
HETATM   36  F   UNL     1       4.171  28.378  51.484  1.00  0.00    -0.169 F 
HETATM   37  F   UNL     1       2.834  27.911  53.131  1.00  0.00    -0.169 F 
HETATM   38  F   UNL     1       4.016  29.722  53.207  1.00  0.00    -0.169 F 
ENDBRANCH   8  35
TORSDOF 9
ENDMDL
MODEL 9
REMARK VINA RESULT:      -8.4      3.950      9.563
REMARK  9 active torsions:
REMARK  status: ('A' for Active; 'I' for Inactive)
REMARK    1  A    between atoms: O_2  and  C_3 
REMARK    2  A    between atoms: C_6  and  C_7 
REMARK    3  A    between atoms: C_13  and  C_14 
REMARK       I    between atoms: C_14  and  N_15 
REMARK    4  A    between atoms: N_15  and  N_16 
REMARK    5  A    between atoms: N_16  and  C_17 
REMARK    6  A    between atoms: C_17  and  N_18 
REMARK    7  A    between atoms: N_18  and  C_19 
REMARK    8  A    between atoms: C_19  and  C_20 
REMARK    9  A    between atoms: C_27  and  C_28 
ROOT
HETATM    1  C   UNL     1       8.236  29.786  56.890  1.00  0.00     0.118 C 
HETATM    2  N   UNL     1       7.170  29.975  55.909  1.00  0.00    -0.365 N 
HETATM    3  C   UNL     1       6.089  29.154  55.899  1.00  0.00     0.138 A 
HETATM    4  N   UNL     1       6.128  27.940  56.536  1.00  0.00    -0.240 N 
HETATM    5  N   UNL     1       4.963  27.275  56.487  1.00  0.00    -0.181 NA
HETATM    6  C   UNL     1       4.189  28.074  55.744  1.00  0.00     0.160 A 
HETATM    7  C   UNL     1       4.822  29.280  55.360  1.00  0.00     0.098 A 
HETATM    8  C   UNL     1       7.258  27.471  57.318  1.00  0.00     0.221 C 
HETATM    9  C   UNL     1       8.527  28.276  56.963  1.00  0.00     0.066 C 
HETATM   10  H   UNL     1       7.077  30.920  55.527  1.00  0.00     0.161 HD
ENDROOT
BRANCH   7  11
HETATM   11  C   UNL     1       4.342  30.406  54.580  1.00  0.00     0.275 C 
HETATM   12  N   UNL     1       4.765  30.566  53.267  1.00  0.00    -0.263 N 
HETATM   13  H   UNL     1       4.239  31.303  52.803  1.00  0.00     0.190 HD
HETATM   14  O   UNL     1       3.569  31.245  55.048  1.00  0.00    -0.266 OA
BRANCH  12  15
HETATM   15  N   UNL     1       5.085  29.474  52.435  1.00  0.00    -0.274 N 
HETATM   16  H   UNL     1       6.063  29.361  52.186  1.00  0.00     0.189 HD
BRANCH  15  17
HETATM   17  C   UNL     1       4.108  28.741  51.808  1.00  0.00     0.186 C 
HETATM   18  S   UNL     1       2.759  29.369  51.044  1.00  0.00    -0.040 SA
BRANCH  17  19
HETATM   19  N   UNL     1       4.264  27.388  51.798  1.00  0.00    -0.360 N 
HETATM   20  H   UNL     1       3.587  26.891  52.365  1.00  0.00     0.162 HD
BRANCH  19  21
HETATM   21  C   UNL     1       5.128  26.583  50.957  1.00  0.00     0.187 C 
BRANCH  21  22
HETATM   22  C   UNL     1       4.646  26.627  49.559  1.00  0.00     0.070 A 
HETATM   23  O   UNL     1       5.167  27.608  48.765  1.00  0.00    -0.325 OA
HETATM   24  C   UNL     1       4.596  27.467  47.540  1.00  0.00     0.142 A 
HETATM   25  C   UNL     1       3.720  26.407  47.534  1.00  0.00     0.027 A 
HETATM   26  C   UNL     1       3.749  25.863  48.839  1.00  0.00     0.036 A 
ENDBRANCH  21  22
ENDBRANCH  19  21
ENDBRANCH  17  19
ENDBRANCH  15  17
ENDBRANCH  12  15
ENDBRANCH   7  11
BRANCH   1  27
HETATM   27  C   UNL     1       7.930  30.420  58.244  1.00  0.00    -0.035 A 
HETATM   28  C   UNL     1       6.892  31.346  58.432  1.00  0.00     0.012 A 
HETATM   29  C   UNL     1       6.632  31.893  59.692  1.00  0.00     0.037 A 
HETATM   30  C   UNL     1       7.402  31.535  60.798  1.00  0.00     0.068 A 
HETATM   31  C   UNL     1       8.462  30.651  60.624  1.00  0.00     0.037 A 
HETATM   32  C   UNL     1       8.729  30.107  59.359  1.00  0.00     0.012 A 
BRANCH  30  33
HETATM   33  O   UNL     1       7.031  32.125  61.973  1.00  0.00    -0.356 OA
HETATM   34  C   UNL     1       8.077  32.444  62.882  1.00  0.00     0.210 C 
ENDBRANCH  30  33
ENDBRANCH   1  27
BRANCH   8  35
HETATM   35  C   UNL     1       7.522  25.997  57.108  1.00  0.00     0.409 C 
HETATM   36  F   UNL     1       7.515  25.646  55.802  1.00  0.00    -0.169 F 
HETATM   37  F   UNL     1       8.762  25.687  57.581  1.00  0.00    -0.169 F 
HETATM   38  F   UNL     1       6.664  25.192  57.769  1.00  0.00    -0.169 F 
ENDBRANCH   8  35
TORSDOF 9
ENDMDL
MODEL 10
REMARK VINA RESULT:      -8.3      2.067      2.973
REMARK  9 active torsions:
REMARK  status: ('A' for Active; 'I' for Inactive)
REMARK    1  A    between atoms: O_2  and  C_3 
REMARK    2  A    between atoms: C_6  and  C_7 
REMARK    3  A    between atoms: C_13  and  C_14 
REMARK       I    between atoms: C_14  and  N_15 
REMARK    4  A    between atoms: N_15  and  N_16 
REMARK    5  A    between atoms: N_16  and  C_17 
REMARK    6  A    between atoms: C_17  and  N_18 
REMARK    7  A    between atoms: N_18  and  C_19 
REMARK    8  A    between atoms: C_19  and  C_20 
REMARK    9  A    between atoms: C_27  and  C_28 
ROOT
HETATM    1  C   UNL     1       7.553  27.359  53.635  1.00  0.00     0.118 C 
HETATM    2  N   UNL     1       8.103  28.216  54.683  1.00  0.00    -0.365 N 
HETATM    3  C   UNL     1       7.321  28.643  55.707  1.00  0.00     0.138 A 
HETATM    4  N   UNL     1       5.953  28.600  55.606  1.00  0.00    -0.240 N 
HETATM    5  N   UNL     1       5.324  28.998  56.722  1.00  0.00    -0.181 NA
HETATM    6  C   UNL     1       6.331  29.358  57.526  1.00  0.00     0.160 A 
HETATM    7  C   UNL     1       7.611  29.140  56.964  1.00  0.00     0.098 A 
HETATM    8  C   UNL     1       5.242  28.041  54.470  1.00  0.00     0.221 C 
HETATM    9  C   UNL     1       6.179  27.938  53.247  1.00  0.00     0.066 C 
HETATM   10  H   UNL     1       9.114  28.150  54.828  1.00  0.00     0.161 HD
ENDROOT
BRANCH   7  11
HETATM   11  C   UNL     1       8.942  29.374  57.495  1.00  0.00     0.275 C 
HETATM   12  N   UNL     1       9.097  30.076  58.683  1.00  0.00    -0.263 N 
HETATM   13  H   UNL     1      10.061  30.035  59.006  1.00  0.00     0.190 HD
HETATM   14  O   UNL     1       9.956  28.977  56.918  1.00  0.00    -0.266 OA
BRANCH  12  15
HETATM   15  N   UNL     1       8.139  30.038  59.717  1.00  0.00    -0.274 N 
HETATM   16  H   UNL     1       7.447  29.296  59.670  1.00  0.00     0.189 HD
BRANCH  15  17
HETATM   17  C   UNL     1       8.003  31.075  60.605  1.00  0.00     0.186 C 
HETATM   18  S   UNL     1       9.260  31.887  61.354  1.00  0.00    -0.040 SA
BRANCH  17  19
HETATM   19  N   UNL     1       6.735  31.483  60.887  1.00  0.00    -0.360 N 
HETATM   20  H   UNL     1       6.191  30.807  61.411  1.00  0.00     0.162 HD
BRANCH  19  21
HETATM   21  C   UNL     1       6.145  32.795  60.703  1.00  0.00     0.187 C 
BRANCH  21  22
HETATM   22  C   UNL     1       5.341  32.810  59.461  1.00  0.00     0.070 A 
HETATM   23  O   UNL     1       6.035  32.820  58.286  1.00  0.00    -0.325 OA
HETATM   24  C   UNL     1       5.115  32.833  57.285  1.00  0.00     0.142 A 
HETATM   25  C   UNL     1       3.841  32.826  57.801  1.00  0.00     0.027 A 
HETATM   26  C   UNL     1       3.984  32.813  59.208  1.00  0.00     0.036 A 
ENDBRANCH  21  22
ENDBRANCH  19  21
ENDBRANCH  17  19
ENDBRANCH  15  17
ENDBRANCH  12  15
ENDBRANCH   7  11
BRANCH   1  27
HETATM   27  C   UNL     1       7.511  25.884  54.021  1.00  0.00    -0.035 A 
HETATM   28  C   UNL     1       7.344  24.856  53.079  1.00  0.00     0.012 A 
HETATM   29  C   UNL     1       7.326  23.514  53.470  1.00  0.00     0.037 A 
HETATM   30  C   UNL     1       7.471  23.159  54.809  1.00  0.00     0.068 A 
HETATM   31  C   UNL     1       7.595  24.164  55.763  1.00  0.00     0.037 A 
HETATM   32  C   UNL     1       7.606  25.511  55.374  1.00  0.00     0.012 A 
BRANCH  30  33
HETATM   33  O   UNL     1       7.457  21.815  55.054  1.00  0.00    -0.356 OA
HETATM   34  C   UNL     1       8.207  21.365  56.175  1.00  0.00     0.210 C 
ENDBRANCH  30  33
ENDBRANCH   1  27
BRANCH   8  35
HETATM   35  C   UNL     1       4.025  28.860  54.103  1.00  0.00     0.409 C 
HETATM   36  F   UNL     1       3.231  29.121  55.166  1.00  0.00    -0.169 F 
HETATM   37  F   UNL     1       4.423  30.070  53.618  1.00  0.00    -0.169 F 
HETATM   38  F   UNL     1       3.269  28.306  53.133  1.00  0.00    -0.169 F 
ENDBRANCH   8  35
TORSDOF 9
ENDMDL
