MODEL 1
REMARK VINA RESULT:     -11.5      0.000      0.000
REMARK  9 active torsions:
REMARK  status: ('A' for Active; 'I' for Inactive)
REMARK    1  A    between atoms: C_4  and  C_5 
REMARK    2  A    between atoms: C_16  and  C_17 
REMARK    3  A    between atoms: C_20  and  C_21 
REMARK    4  A    between atoms: C_21  and  N_22 
REMARK    5  A    between atoms: N_22  and  C_23 
REMARK    6  A    between atoms: C_23  and  N_24 
REMARK    7  A    between atoms: N_24  and  C_25 
REMARK    8  A    between atoms: C_27  and  C_28 
REMARK    9  A    between atoms: C_28  and  O_29 
ROOT
HETATM    1  C   UNL     1       4.451  28.635  55.859  1.00  0.00     0.067 C 
HETATM    2  C   UNL     1       4.427  30.143  55.556  1.00  0.00     0.001 C 
HETATM    3  C   UNL     1       5.737  30.833  55.985  1.00  0.00     0.040 C 
HETATM    4  C   UNL     1       5.965  30.742  57.503  1.00  0.00     0.206 C 
HETATM    5  N   UNL     1       4.936  29.753  58.044  1.00  0.00    -0.065 N 
HETATM    6  H   UNL     1       5.128  29.572  59.040  1.00  0.00     0.280 HD
HETATM    7  C   UNL     1       4.975  28.417  57.299  1.00  0.00     0.246 C 
HETATM    8  C   UNL     1       3.316  30.750  56.455  1.00  0.00     0.033 C 
HETATM    9  C   UNL     1       3.546  30.366  57.926  1.00  0.00     0.236 C 
ENDROOT
BRANCH   4  10
HETATM   10  C   UNL     1       7.414  30.363  57.888  1.00  0.00     0.155 C 
BRANCH  10  11
HETATM   11  N   UNL     1       7.554  30.105  59.321  1.00  0.00    -0.365 N 
HETATM   12  H   UNL     1       7.611  29.133  59.609  1.00  0.00     0.161 HD
BRANCH  11  13
HETATM   13  C   UNL     1       8.108  30.948  60.246  1.00  0.00     0.172 C 
HETATM   14  S   UNL     1       9.335  32.037  59.940  1.00  0.00    -0.041 SA
BRANCH  13  15
HETATM   15  N   UNL     1       7.632  30.866  61.524  1.00  0.00    -0.333 N 
HETATM   16  H   UNL     1       7.750  29.937  61.925  1.00  0.00     0.168 HD
BRANCH  15  17
HETATM   17  C   UNL     1       7.155  31.849  62.419  1.00  0.00     0.035 A 
HETATM   18  C   UNL     1       5.896  32.441  62.330  1.00  0.00     0.047 A 
HETATM   19  C   UNL     1       5.488  33.426  63.244  1.00  0.00     0.041 A 
HETATM   20  C   UNL     1       6.368  33.846  64.244  1.00  0.00     0.018 A 
HETATM   21  C   UNL     1       7.643  33.286  64.320  1.00  0.00     0.003 A 
HETATM   22  C   UNL     1       8.033  32.296  63.412  1.00  0.00     0.029 A 
BRANCH  19  23
HETATM   23  C   UNL     1       4.113  33.974  63.095  1.00  0.00     0.293 C 
HETATM   24  O   UNL     1       3.112  33.349  63.424  1.00  0.00    -0.259 OA
BRANCH  23  25
HETATM   25  O   UNL     1       4.141  35.214  62.558  1.00  0.00    -0.323 OA
HETATM   26  C   UNL     1       3.682  35.285  61.207  1.00  0.00     0.213 C 
ENDBRANCH  23  25
ENDBRANCH  19  23
ENDBRANCH  15  17
ENDBRANCH  13  15
ENDBRANCH  11  13
ENDBRANCH  10  11
ENDBRANCH   4  10
BRANCH   1  27
HETATM   27  C   UNL     1       5.058  27.647  54.902  1.00  0.00     0.038 C 
HETATM   28  N   UNL     1       5.476  27.763  53.596  1.00  0.00    -0.277 N 
HETATM   29  C   UNL     1       5.321  28.825  52.632  1.00  0.00     0.179 C 
HETATM   30  N   UNL     1       6.174  26.695  53.173  1.00  0.00    -0.172 NA
HETATM   31  C   UNL     1       6.072  25.781  54.142  1.00  0.00     0.089 C 
HETATM   32  C   UNL     1       5.357  26.330  55.229  1.00  0.00     0.061 C 
BRANCH  31  33
HETATM   33  C   UNL     1       6.700  24.464  54.057  1.00  0.00    -0.005 A 
HETATM   34  C   UNL     1       6.927  23.703  55.214  1.00  0.00     0.026 A 
HETATM   35  C   UNL     1       7.614  22.479  55.157  1.00  0.00    -0.025 A 
HETATM   36  C   UNL     1       8.076  22.001  53.911  1.00  0.00    -0.026 A 
HETATM   37  C   UNL     1       7.862  21.726  56.316  1.00  0.00     0.012 A 
HETATM   38  C   UNL     1       7.818  22.748  52.752  1.00  0.00     0.013 A 
HETATM   39  C   UNL     1       8.786  20.792  53.859  1.00  0.00     0.012 A 
HETATM   40  C   UNL     1       7.135  23.965  52.824  1.00  0.00     0.014 A 
HETATM   41  C   UNL     1       9.036  20.062  55.023  1.00  0.00     0.001 A 
HETATM   42  C   UNL     1       8.571  20.526  56.249  1.00  0.00     0.001 A 
ENDBRANCH  31  33
ENDBRANCH   1  27
TORSDOF 9
ENDMDL
MODEL 2
REMARK VINA RESULT:     -11.4      2.720      3.707
REMARK  9 active torsions:
REMARK  status: ('A' for Active; 'I' for Inactive)
REMARK    1  A    between atoms: C_4  and  C_5 
REMARK    2  A    between atoms: C_16  and  C_17 
REMARK    3  A    between atoms: C_20  and  C_21 
REMARK    4  A    between atoms: C_21  and  N_22 
REMARK    5  A    between atoms: N_22  and  C_23 
REMARK    6  A    between atoms: C_23  and  N_24 
REMARK    7  A    between atoms: N_24  and  C_25 
REMARK    8  A    between atoms: C_27  and  C_28 
REMARK    9  A    between atoms: C_28  and  O_29 
ROOT
HETATM    1  C   UNL     1       4.509  29.440  55.115  1.00  0.00     0.067 C 
HETATM    2  C   UNL     1       5.004  30.883  54.914  1.00  0.00     0.001 C 
HETATM    3  C   UNL     1       5.243  31.597  56.260  1.00  0.00     0.040 C 
HETATM    4  C   UNL     1       3.947  31.736  57.076  1.00  0.00     0.206 C 
HETATM    5  N   UNL     1       2.897  30.869  56.386  1.00  0.00    -0.065 N 
HETATM    6  H   UNL     1       2.045  30.840  56.965  1.00  0.00     0.280 HD
HETATM    7  C   UNL     1       3.384  29.434  56.177  1.00  0.00     0.246 C 
HETATM    8  C   UNL     1       3.840  31.650  54.230  1.00  0.00     0.033 C 
HETATM    9  C   UNL     1       2.543  31.492  55.041  1.00  0.00     0.236 C 
ENDROOT
BRANCH   4  10
HETATM   10  C   UNL     1       4.118  31.385  58.571  1.00  0.00     0.155 C 
BRANCH  10  11
HETATM   11  N   UNL     1       4.116  32.575  59.421  1.00  0.00    -0.365 N 
HETATM   12  H   UNL     1       3.566  33.367  59.103  1.00  0.00     0.161 HD
BRANCH  11  13
HETATM   13  C   UNL     1       4.324  32.605  60.773  1.00  0.00     0.172 C 
HETATM   14  S   UNL     1       3.535  33.613  61.845  1.00  0.00    -0.041 SA
BRANCH  13  15
HETATM   15  N   UNL     1       5.274  31.761  61.275  1.00  0.00    -0.333 N 
HETATM   16  H   UNL     1       4.881  30.879  61.596  1.00  0.00     0.168 HD
BRANCH  15  17
HETATM   17  C   UNL     1       6.685  31.830  61.292  1.00  0.00     0.035 A 
HETATM   18  C   UNL     1       7.492  31.594  60.180  1.00  0.00     0.047 A 
HETATM   19  C   UNL     1       8.892  31.662  60.267  1.00  0.00     0.041 A 
HETATM   20  C   UNL     1       9.493  31.939  61.498  1.00  0.00     0.018 A 
HETATM   21  C   UNL     1       8.696  32.142  62.624  1.00  0.00     0.003 A 
HETATM   22  C   UNL     1       7.302  32.085  62.521  1.00  0.00     0.029 A 
BRANCH  19  23
HETATM   23  C   UNL     1       9.670  31.434  59.020  1.00  0.00     0.293 C 
HETATM   24  O   UNL     1      10.235  32.338  58.418  1.00  0.00    -0.259 OA
BRANCH  23  25
HETATM   25  O   UNL     1       9.652  30.128  58.670  1.00  0.00    -0.323 OA
HETATM   26  C   UNL     1      10.159  29.860  57.361  1.00  0.00     0.213 C 
ENDBRANCH  23  25
ENDBRANCH  19  23
ENDBRANCH  15  17
ENDBRANCH  13  15
ENDBRANCH  11  13
ENDBRANCH  10  11
ENDBRANCH   4  10
BRANCH   1  27
HETATM   27  C   UNL     1       5.467  28.301  55.329  1.00  0.00     0.038 C 
HETATM   28  N   UNL     1       6.287  27.968  56.383  1.00  0.00    -0.277 N 
HETATM   29  C   UNL     1       6.644  28.687  57.583  1.00  0.00     0.179 C 
HETATM   30  N   UNL     1       6.818  26.739  56.266  1.00  0.00    -0.172 NA
HETATM   31  C   UNL     1       6.495  26.314  55.042  1.00  0.00     0.089 C 
HETATM   32  C   UNL     1       5.673  27.276  54.414  1.00  0.00     0.061 C 
BRANCH  31  33
HETATM   33  C   UNL     1       6.896  25.006  54.527  1.00  0.00    -0.005 A 
HETATM   34  C   UNL     1       7.057  23.914  55.394  1.00  0.00     0.026 A 
HETATM   35  C   UNL     1       7.533  22.678  54.926  1.00  0.00    -0.025 A 
HETATM   36  C   UNL     1       7.844  22.527  53.556  1.00  0.00    -0.026 A 
HETATM   37  C   UNL     1       7.718  21.590  55.795  1.00  0.00     0.012 A 
HETATM   38  C   UNL     1       7.648  23.611  52.687  1.00  0.00     0.013 A 
HETATM   39  C   UNL     1       8.345  21.301  53.096  1.00  0.00     0.012 A 
HETATM   40  C   UNL     1       7.177  24.836  53.167  1.00  0.00     0.014 A 
HETATM   41  C   UNL     1       8.534  20.233  53.975  1.00  0.00     0.001 A 
HETATM   42  C   UNL     1       8.217  20.376  55.322  1.00  0.00     0.001 A 
ENDBRANCH  31  33
ENDBRANCH   1  27
TORSDOF 9
ENDMDL
MODEL 3
REMARK VINA RESULT:     -11.2      1.573      2.059
REMARK  9 active torsions:
REMARK  status: ('A' for Active; 'I' for Inactive)
REMARK    1  A    between atoms: C_4  and  C_5 
REMARK    2  A    between atoms: C_16  and  C_17 
REMARK    3  A    between atoms: C_20  and  C_21 
REMARK    4  A    between atoms: C_21  and  N_22 
REMARK    5  A    between atoms: N_22  and  C_23 
REMARK    6  A    between atoms: C_23  and  N_24 
REMARK    7  A    between atoms: N_24  and  C_25 
REMARK    8  A    between atoms: C_27  and  C_28 
REMARK    9  A    between atoms: C_28  and  O_29 
ROOT
HETATM    1  C   UNL     1       4.510  29.407  55.432  1.00  0.00     0.067 C 
HETATM    2  C   UNL     1       4.912  30.842  55.048  1.00  0.00     0.001 C 
HETATM    3  C   UNL     1       5.371  31.654  56.276  1.00  0.00     0.040 C 
HETATM    4  C   UNL     1       4.242  31.825  57.307  1.00  0.00     0.206 C 
HETATM    5  N   UNL     1       3.112  30.892  56.882  1.00  0.00    -0.065 N 
HETATM    6  H   UNL     1       2.382  30.887  57.608  1.00  0.00     0.280 HD
HETATM    7  C   UNL     1       3.598  29.455  56.681  1.00  0.00     0.246 C 
HETATM    8  C   UNL     1       3.619  31.536  54.542  1.00  0.00     0.033 C 
HETATM    9  C   UNL     1       2.498  31.410  55.587  1.00  0.00     0.236 C 
ENDROOT
BRANCH   4  10
HETATM   10  C   UNL     1       4.696  31.585  58.765  1.00  0.00     0.155 C 
BRANCH  10  11
HETATM   11  N   UNL     1       5.904  32.338  59.098  1.00  0.00    -0.365 N 
HETATM   12  H   UNL     1       5.841  33.350  59.057  1.00  0.00     0.161 HD
BRANCH  11  13
HETATM   13  C   UNL     1       6.920  31.919  59.914  1.00  0.00     0.172 C 
HETATM   14  S   UNL     1       8.531  31.845  59.481  1.00  0.00    -0.041 SA
BRANCH  13  15
HETATM   15  N   UNL     1       6.579  31.505  61.170  1.00  0.00    -0.333 N 
HETATM   16  H   UNL     1       6.380  30.507  61.211  1.00  0.00     0.168 HD
BRANCH  15  17
HETATM   17  C   UNL     1       6.595  32.164  62.419  1.00  0.00     0.035 A 
HETATM   18  C   UNL     1       5.453  32.618  63.077  1.00  0.00     0.047 A 
HETATM   19  C   UNL     1       5.538  33.283  64.311  1.00  0.00     0.041 A 
HETATM   20  C   UNL     1       6.792  33.522  64.880  1.00  0.00     0.018 A 
HETATM   21  C   UNL     1       7.943  33.103  64.213  1.00  0.00     0.003 A 
HETATM   22  C   UNL     1       7.844  32.431  62.990  1.00  0.00     0.029 A 
BRANCH  19  23
HETATM   23  C   UNL     1       4.265  33.697  64.959  1.00  0.00     0.293 C 
HETATM   24  O   UNL     1       3.224  33.851  64.333  1.00  0.00    -0.259 OA
BRANCH  23  25
HETATM   25  O   UNL     1       4.432  33.874  66.288  1.00  0.00    -0.323 OA
HETATM   26  C   UNL     1       4.099  35.182  66.758  1.00  0.00     0.213 C 
ENDBRANCH  23  25
ENDBRANCH  19  23
ENDBRANCH  15  17
ENDBRANCH  13  15
ENDBRANCH  11  13
ENDBRANCH  10  11
ENDBRANCH   4  10
BRANCH   1  27
HETATM   27  C   UNL     1       5.526  28.305  55.540  1.00  0.00     0.038 C 
HETATM   28  N   UNL     1       6.469  28.008  56.497  1.00  0.00    -0.277 N 
HETATM   29  C   UNL     1       6.931  28.746  57.648  1.00  0.00     0.179 C 
HETATM   30  N   UNL     1       7.029  26.798  56.323  1.00  0.00    -0.172 NA
HETATM   31  C   UNL     1       6.588  26.355  55.143  1.00  0.00     0.089 C 
HETATM   32  C   UNL     1       5.667  27.283  54.609  1.00  0.00     0.061 C 
BRANCH  31  33
HETATM   33  C   UNL     1       6.977  25.059  54.589  1.00  0.00    -0.005 A 
HETATM   34  C   UNL     1       7.068  23.927  55.412  1.00  0.00     0.026 A 
HETATM   35  C   UNL     1       7.532  22.699  54.911  1.00  0.00    -0.025 A 
HETATM   36  C   UNL     1       7.902  22.600  53.551  1.00  0.00    -0.026 A 
HETATM   37  C   UNL     1       7.646  21.569  55.738  1.00  0.00     0.012 A 
HETATM   38  C   UNL     1       7.777  23.725  52.723  1.00  0.00     0.013 A 
HETATM   39  C   UNL     1       8.391  21.380  53.059  1.00  0.00     0.012 A 
HETATM   40  C   UNL     1       7.317  24.941  53.236  1.00  0.00     0.014 A 
HETATM   41  C   UNL     1       8.510  20.270  53.898  1.00  0.00     0.001 A 
HETATM   42  C   UNL     1       8.134  20.363  55.234  1.00  0.00     0.001 A 
ENDBRANCH  31  33
ENDBRANCH   1  27
TORSDOF 9
ENDMDL
MODEL 4
REMARK VINA RESULT:     -10.6      5.139      8.818
REMARK  9 active torsions:
REMARK  status: ('A' for Active; 'I' for Inactive)
REMARK    1  A    between atoms: C_4  and  C_5 
REMARK    2  A    between atoms: C_16  and  C_17 
REMARK    3  A    between atoms: C_20  and  C_21 
REMARK    4  A    between atoms: C_21  and  N_22 
REMARK    5  A    between atoms: N_22  and  C_23 
REMARK    6  A    between atoms: C_23  and  N_24 
REMARK    7  A    between atoms: N_24  and  C_25 
REMARK    8  A    between atoms: C_27  and  C_28 
REMARK    9  A    between atoms: C_28  and  O_29 
ROOT
HETATM    1  C   UNL     1       5.585  30.623  57.322  1.00  0.00     0.067 C 
HETATM    2  C   UNL     1       4.104  30.417  57.685  1.00  0.00     0.001 C 
HETATM    3  C   UNL     1       3.285  29.913  56.480  1.00  0.00     0.040 C 
HETATM    4  C   UNL     1       3.269  30.932  55.328  1.00  0.00     0.206 C 
HETATM    5  N   UNL     1       4.307  31.999  55.670  1.00  0.00    -0.065 N 
HETATM    6  H   UNL     1       4.413  32.639  54.870  1.00  0.00     0.280 HD
HETATM    7  C   UNL     1       5.675  31.391  55.982  1.00  0.00     0.246 C 
HETATM    8  C   UNL     1       3.539  31.824  58.020  1.00  0.00     0.033 C 
HETATM    9  C   UNL     1       3.817  32.803  56.868  1.00  0.00     0.236 C 
ENDROOT
BRANCH   4  10
HETATM   10  C   UNL     1       3.505  30.298  53.939  1.00  0.00     0.155 C 
BRANCH  10  11
HETATM   11  N   UNL     1       3.835  31.297  52.924  1.00  0.00    -0.365 N 
HETATM   12  H   UNL     1       4.076  32.227  53.255  1.00  0.00     0.161 HD
BRANCH  11  13
HETATM   13  C   UNL     1       4.341  31.050  51.677  1.00  0.00     0.172 C 
HETATM   14  S   UNL     1       3.854  31.810  50.273  1.00  0.00    -0.041 SA
BRANCH  13  15
HETATM   15  N   UNL     1       5.301  30.083  51.577  1.00  0.00    -0.333 N 
HETATM   16  H   UNL     1       6.204  30.391  51.934  1.00  0.00     0.168 HD
BRANCH  15  17
HETATM   17  C   UNL     1       5.235  28.719  51.215  1.00  0.00     0.035 A 
HETATM   18  C   UNL     1       4.906  28.266  49.937  1.00  0.00     0.047 A 
HETATM   19  C   UNL     1       4.841  26.894  49.646  1.00  0.00     0.041 A 
HETATM   20  C   UNL     1       5.078  25.961  50.659  1.00  0.00     0.018 A 
HETATM   21  C   UNL     1       5.372  26.405  51.948  1.00  0.00     0.003 A 
HETATM   22  C   UNL     1       5.447  27.774  52.223  1.00  0.00     0.029 A 
BRANCH  19  23
HETATM   23  C   UNL     1       4.521  26.503  48.246  1.00  0.00     0.293 C 
HETATM   24  O   UNL     1       5.188  26.872  47.288  1.00  0.00    -0.259 OA
BRANCH  23  25
HETATM   25  O   UNL     1       3.424  25.714  48.202  1.00  0.00    -0.323 OA
HETATM   26  C   UNL     1       2.601  25.909  47.050  1.00  0.00     0.213 C 
ENDBRANCH  23  25
ENDBRANCH  19  23
ENDBRANCH  15  17
ENDBRANCH  13  15
ENDBRANCH  11  13
ENDBRANCH  10  11
ENDBRANCH   4  10
BRANCH   1  27
HETATM   27  C   UNL     1       6.574  29.491  57.370  1.00  0.00     0.038 C 
HETATM   28  N   UNL     1       7.648  29.236  58.192  1.00  0.00    -0.277 N 
HETATM   29  C   UNL     1       8.308  30.050  59.184  1.00  0.00     0.179 C 
HETATM   30  N   UNL     1       8.138  27.993  58.044  1.00  0.00    -0.172 NA
HETATM   31  C   UNL     1       7.501  27.470  56.992  1.00  0.00     0.089 C 
HETATM   32  C   UNL     1       6.534  28.388  56.526  1.00  0.00     0.061 C 
BRANCH  31  33
HETATM   33  C   UNL     1       7.759  26.116  56.504  1.00  0.00    -0.005 A 
HETATM   34  C   UNL     1       7.558  25.791  55.155  1.00  0.00     0.026 A 
HETATM   35  C   UNL     1       7.711  24.474  54.693  1.00  0.00    -0.025 A 
HETATM   36  C   UNL     1       8.085  23.459  55.602  1.00  0.00    -0.026 A 
HETATM   37  C   UNL     1       7.487  24.141  53.347  1.00  0.00     0.012 A 
HETATM   38  C   UNL     1       8.319  23.794  56.944  1.00  0.00     0.013 A 
HETATM   39  C   UNL     1       8.210  22.139  55.145  1.00  0.00     0.012 A 
HETATM   40  C   UNL     1       8.160  25.109  57.390  1.00  0.00     0.014 A 
HETATM   41  C   UNL     1       7.972  21.822  53.806  1.00  0.00     0.001 A 
HETATM   42  C   UNL     1       7.616  22.822  52.907  1.00  0.00     0.001 A 
ENDBRANCH  31  33
ENDBRANCH   1  27
TORSDOF 9
ENDMDL
MODEL 5
REMARK VINA RESULT:     -10.5      4.408      6.640
REMARK  9 active torsions:
REMARK  status: ('A' for Active; 'I' for Inactive)
REMARK    1  A    between atoms: C_4  and  C_5 
REMARK    2  A    between atoms: C_16  and  C_17 
REMARK    3  A    between atoms: C_20  and  C_21 
REMARK    4  A    between atoms: C_21  and  N_22 
REMARK    5  A    between atoms: N_22  and  C_23 
REMARK    6  A    between atoms: C_23  and  N_24 
REMARK    7  A    between atoms: N_24  and  C_25 
REMARK    8  A    between atoms: C_27  and  C_28 
REMARK    9  A    between atoms: C_28  and  O_29 
ROOT
HETATM    1  C   UNL     1       4.608  29.524  49.311  1.00  0.00     0.067 C 
HETATM    2  C   UNL     1       5.490  30.739  49.645  1.00  0.00     0.001 C 
HETATM    3  C   UNL     1       4.986  31.484  50.898  1.00  0.00     0.040 C 
HETATM    4  C   UNL     1       3.577  32.065  50.693  1.00  0.00     0.206 C 
HETATM    5  N   UNL     1       3.039  31.471  49.394  1.00  0.00    -0.065 N 
HETATM    6  H   UNL     1       2.053  31.742  49.278  1.00  0.00     0.280 HD
HETATM    7  C   UNL     1       3.121  29.943  49.385  1.00  0.00     0.246 C 
HETATM    8  C   UNL     1       5.323  31.735  48.466  1.00  0.00     0.033 C 
HETATM    9  C   UNL     1       3.834  32.034  48.222  1.00  0.00     0.236 C 
ENDROOT
BRANCH   4  10
HETATM   10  C   UNL     1       2.631  31.828  51.892  1.00  0.00     0.155 C 
BRANCH  10  11
HETATM   11  N   UNL     1       3.160  30.833  52.824  1.00  0.00    -0.365 N 
HETATM   12  H   UNL     1       3.673  30.053  52.423  1.00  0.00     0.161 HD
BRANCH  11  13
HETATM   13  C   UNL     1       3.494  31.046  54.134  1.00  0.00     0.172 C 
HETATM   14  S   UNL     1       2.518  31.791  55.265  1.00  0.00    -0.041 SA
BRANCH  13  15
HETATM   15  N   UNL     1       4.736  30.641  54.533  1.00  0.00    -0.333 N 
HETATM   16  H   UNL     1       5.479  31.211  54.135  1.00  0.00     0.168 HD
BRANCH  15  17
HETATM   17  C   UNL     1       5.158  29.692  55.491  1.00  0.00     0.035 A 
HETATM   18  C   UNL     1       6.302  29.830  56.276  1.00  0.00     0.047 A 
HETATM   19  C   UNL     1       6.676  28.841  57.199  1.00  0.00     0.041 A 
HETATM   20  C   UNL     1       5.907  27.679  57.315  1.00  0.00     0.018 A 
HETATM   21  C   UNL     1       4.781  27.516  56.509  1.00  0.00     0.003 A 
HETATM   22  C   UNL     1       4.411  28.514  55.602  1.00  0.00     0.029 A 
BRANCH  19  23
HETATM   23  C   UNL     1       7.890  29.092  58.021  1.00  0.00     0.293 C 
HETATM   24  O   UNL     1       7.897  29.862  58.973  1.00  0.00    -0.259 OA
BRANCH  23  25
HETATM   25  O   UNL     1       8.939  28.370  57.568  1.00  0.00    -0.323 OA
HETATM   26  C   UNL     1       9.955  29.143  56.925  1.00  0.00     0.213 C 
ENDBRANCH  23  25
ENDBRANCH  19  23
ENDBRANCH  15  17
ENDBRANCH  13  15
ENDBRANCH  11  13
ENDBRANCH  10  11
ENDBRANCH   4  10
BRANCH   1  27
HETATM   27  C   UNL     1       4.831  28.185  49.959  1.00  0.00     0.038 C 
HETATM   28  N   UNL     1       4.449  26.912  49.605  1.00  0.00    -0.277 N 
HETATM   29  C   UNL     1       3.554  26.431  48.580  1.00  0.00     0.179 C 
HETATM   30  N   UNL     1       5.048  25.961  50.342  1.00  0.00    -0.172 NA
HETATM   31  C   UNL     1       5.700  26.605  51.313  1.00  0.00     0.089 C 
HETATM   32  C   UNL     1       5.565  27.998  51.124  1.00  0.00     0.061 C 
BRANCH  31  33
HETATM   33  C   UNL     1       6.484  25.912  52.335  1.00  0.00    -0.005 A 
HETATM   34  C   UNL     1       6.906  24.589  52.138  1.00  0.00     0.026 A 
HETATM   35  C   UNL     1       7.576  23.881  53.150  1.00  0.00    -0.025 A 
HETATM   36  C   UNL     1       7.840  24.517  54.384  1.00  0.00    -0.026 A 
HETATM   37  C   UNL     1       7.980  22.548  52.964  1.00  0.00     0.012 A 
HETATM   38  C   UNL     1       7.447  25.851  54.564  1.00  0.00     0.013 A 
HETATM   39  C   UNL     1       8.485  23.800  55.402  1.00  0.00     0.012 A 
HETATM   40  C   UNL     1       6.778  26.542  53.550  1.00  0.00     0.014 A 
HETATM   41  C   UNL     1       8.869  22.472  55.206  1.00  0.00     0.001 A 
HETATM   42  C   UNL     1       8.620  21.848  53.988  1.00  0.00     0.001 A 
ENDBRANCH  31  33
ENDBRANCH   1  27
TORSDOF 9
ENDMDL
MODEL 6
REMARK VINA RESULT:     -10.4      1.196      2.207
REMARK  9 active torsions:
REMARK  status: ('A' for Active; 'I' for Inactive)
REMARK    1  A    between atoms: C_4  and  C_5 
REMARK    2  A    between atoms: C_16  and  C_17 
REMARK    3  A    between atoms: C_20  and  C_21 
REMARK    4  A    between atoms: C_21  and  N_22 
REMARK    5  A    between atoms: N_22  and  C_23 
REMARK    6  A    between atoms: C_23  and  N_24 
REMARK    7  A    between atoms: N_24  and  C_25 
REMARK    8  A    between atoms: C_27  and  C_28 
REMARK    9  A    between atoms: C_28  and  O_29 
ROOT
HETATM    1  C   UNL     1       4.512  28.833  55.875  1.00  0.00     0.067 C 
HETATM    2  C   UNL     1       4.764  30.312  55.533  1.00  0.00     0.001 C 
HETATM    3  C   UNL     1       6.035  30.848  56.220  1.00  0.00     0.040 C 
HETATM    4  C   UNL     1       5.920  30.814  57.753  1.00  0.00     0.206 C 
HETATM    5  N   UNL     1       4.672  29.999  58.082  1.00  0.00    -0.065 N 
HETATM    6  H   UNL     1       4.620  29.852  59.100  1.00  0.00     0.280 HD
HETATM    7  C   UNL     1       4.683  28.630  57.399  1.00  0.00     0.246 C 
HETATM    8  C   UNL     1       3.582  31.107  56.151  1.00  0.00     0.033 C 
HETATM    9  C   UNL     1       3.438  30.780  57.646  1.00  0.00     0.236 C 
ENDROOT
BRANCH   4  10
HETATM   10  C   UNL     1       7.186  30.273  58.455  1.00  0.00     0.155 C 
BRANCH  10  11
HETATM   11  N   UNL     1       7.233  30.643  59.870  1.00  0.00    -0.365 N 
HETATM   12  H   UNL     1       7.178  29.886  60.545  1.00  0.00     0.161 HD
BRANCH  11  13
HETATM   13  C   UNL     1       7.824  31.758  60.397  1.00  0.00     0.172 C 
HETATM   14  S   UNL     1       9.376  31.826  61.007  1.00  0.00    -0.041 SA
BRANCH  13  15
HETATM   15  N   UNL     1       7.069  32.896  60.449  1.00  0.00    -0.333 N 
HETATM   16  H   UNL     1       7.501  33.673  59.954  1.00  0.00     0.168 HD
BRANCH  15  17
HETATM   17  C   UNL     1       5.763  33.142  60.927  1.00  0.00     0.035 A 
HETATM   18  C   UNL     1       5.432  33.247  62.277  1.00  0.00     0.047 A 
HETATM   19  C   UNL     1       4.109  33.476  62.688  1.00  0.00     0.041 A 
HETATM   20  C   UNL     1       3.096  33.569  61.730  1.00  0.00     0.018 A 
HETATM   21  C   UNL     1       3.411  33.430  60.378  1.00  0.00     0.003 A 
HETATM   22  C   UNL     1       4.735  33.215  59.981  1.00  0.00     0.029 A 
BRANCH  19  23
HETATM   23  C   UNL     1       3.856  33.613  64.147  1.00  0.00     0.293 C 
HETATM   24  O   UNL     1       2.877  34.193  64.598  1.00  0.00    -0.259 OA
BRANCH  23  25
HETATM   25  O   UNL     1       4.839  33.025  64.866  1.00  0.00    -0.323 OA
HETATM   26  C   UNL     1       5.449  33.875  65.840  1.00  0.00     0.213 C 
ENDBRANCH  23  25
ENDBRANCH  19  23
ENDBRANCH  15  17
ENDBRANCH  13  15
ENDBRANCH  11  13
ENDBRANCH  10  11
ENDBRANCH   4  10
BRANCH   1  27
HETATM   27  C   UNL     1       5.166  27.722  55.101  1.00  0.00     0.038 C 
HETATM   28  N   UNL     1       5.561  27.619  53.787  1.00  0.00    -0.277 N 
HETATM   29  C   UNL     1       5.331  28.476  52.648  1.00  0.00     0.179 C 
HETATM   30  N   UNL     1       6.316  26.533  53.549  1.00  0.00    -0.172 NA
HETATM   31  C   UNL     1       6.280  25.809  54.671  1.00  0.00     0.089 C 
HETATM   32  C   UNL     1       5.547  26.506  55.656  1.00  0.00     0.061 C 
BRANCH  31  33
HETATM   33  C   UNL     1       6.985  24.536  54.814  1.00  0.00    -0.005 A 
HETATM   34  C   UNL     1       7.151  23.682  53.713  1.00  0.00     0.026 A 
HETATM   35  C   UNL     1       7.742  22.416  53.857  1.00  0.00    -0.025 A 
HETATM   36  C   UNL     1       8.187  21.999  55.131  1.00  0.00    -0.026 A 
HETATM   37  C   UNL     1       7.889  21.549  52.761  1.00  0.00     0.012 A 
HETATM   38  C   UNL     1       8.051  22.869  56.223  1.00  0.00     0.013 A 
HETATM   39  C   UNL     1       8.752  20.723  55.278  1.00  0.00     0.012 A 
HETATM   40  C   UNL     1       7.458  24.124  56.065  1.00  0.00     0.014 A 
HETATM   41  C   UNL     1       8.880  19.869  54.180  1.00  0.00     0.001 A 
HETATM   42  C   UNL     1       8.453  20.283  52.923  1.00  0.00     0.001 A 
ENDBRANCH  31  33
ENDBRANCH   1  27
TORSDOF 9
ENDMDL
MODEL 7
REMARK VINA RESULT:     -10.4      3.341      5.443
REMARK  9 active torsions:
REMARK  status: ('A' for Active; 'I' for Inactive)
REMARK    1  A    between atoms: C_4  and  C_5 
REMARK    2  A    between atoms: C_16  and  C_17 
REMARK    3  A    between atoms: C_20  and  C_21 
REMARK    4  A    between atoms: C_21  and  N_22 
REMARK    5  A    between atoms: N_22  and  C_23 
REMARK    6  A    between atoms: C_23  and  N_24 
REMARK    7  A    between atoms: N_24  and  C_25 
REMARK    8  A    between atoms: C_27  and  C_28 
REMARK    9  A    between atoms: C_28  and  O_29 
ROOT
HETATM    1  C   UNL     1       3.794  29.209  50.500  1.00  0.00     0.067 C 
HETATM    2  C   UNL     1       4.639  30.490  50.383  1.00  0.00     0.001 C 
HETATM    3  C   UNL     1       4.879  31.144  51.759  1.00  0.00     0.040 C 
HETATM    4  C   UNL     1       3.565  31.599  52.416  1.00  0.00     0.206 C 
HETATM    5  N   UNL     1       2.429  30.999  51.591  1.00  0.00    -0.065 N 
HETATM    6  H   UNL     1       1.533  31.182  52.064  1.00  0.00     0.280 HD
HETATM    7  C   UNL     1       2.581  29.487  51.419  1.00  0.00     0.246 C 
HETATM    8  C   UNL     1       3.783  31.504  49.577  1.00  0.00     0.033 C 
HETATM    9  C   UNL     1       2.398  31.671  50.224  1.00  0.00     0.236 C 
ENDROOT
BRANCH   4  10
HETATM   10  C   UNL     1       3.468  31.236  53.915  1.00  0.00     0.155 C 
BRANCH  10  11
HETATM   11  N   UNL     1       4.728  30.711  54.440  1.00  0.00    -0.365 N 
HETATM   12  H   UNL     1       5.580  31.175  54.140  1.00  0.00     0.161 HD
BRANCH  11  13
HETATM   13  C   UNL     1       4.897  30.040  55.620  1.00  0.00     0.172 C 
HETATM   14  S   UNL     1       3.842  30.087  56.913  1.00  0.00    -0.041 SA
BRANCH  13  15
HETATM   15  N   UNL     1       6.035  29.296  55.754  1.00  0.00    -0.333 N 
HETATM   16  H   UNL     1       6.030  28.466  55.164  1.00  0.00     0.168 HD
BRANCH  15  17
HETATM   17  C   UNL     1       7.249  29.541  56.434  1.00  0.00     0.035 A 
HETATM   18  C   UNL     1       7.365  30.366  57.552  1.00  0.00     0.047 A 
HETATM   19  C   UNL     1       8.607  30.582  58.172  1.00  0.00     0.041 A 
HETATM   20  C   UNL     1       9.754  29.986  57.644  1.00  0.00     0.018 A 
HETATM   21  C   UNL     1       9.654  29.187  56.505  1.00  0.00     0.003 A 
HETATM   22  C   UNL     1       8.410  28.969  55.904  1.00  0.00     0.029 A 
BRANCH  19  23
HETATM   23  C   UNL     1       8.629  31.446  59.383  1.00  0.00     0.293 C 
HETATM   24  O   UNL     1       9.040  32.599  59.365  1.00  0.00    -0.259 OA
BRANCH  23  25
HETATM   25  O   UNL     1       8.149  30.784  60.459  1.00  0.00    -0.323 OA
HETATM   26  C   UNL     1       9.127  30.493  61.459  1.00  0.00     0.213 C 
ENDBRANCH  23  25
ENDBRANCH  19  23
ENDBRANCH  15  17
ENDBRANCH  13  15
ENDBRANCH  11  13
ENDBRANCH  10  11
ENDBRANCH   4  10
BRANCH   1  27
HETATM   27  C   UNL     1       4.420  27.877  50.808  1.00  0.00     0.038 C 
HETATM   28  N   UNL     1       4.591  26.740  50.053  1.00  0.00    -0.277 N 
HETATM   29  C   UNL     1       4.079  26.365  48.757  1.00  0.00     0.179 C 
HETATM   30  N   UNL     1       5.405  25.842  50.635  1.00  0.00    -0.172 NA
HETATM   31  C   UNL     1       5.641  26.303  51.866  1.00  0.00     0.089 C 
HETATM   32  C   UNL     1       5.018  27.561  52.022  1.00  0.00     0.061 C 
BRANCH  31  33
HETATM   33  C   UNL     1       6.491  25.600  52.825  1.00  0.00    -0.005 A 
HETATM   34  C   UNL     1       7.004  24.329  52.529  1.00  0.00     0.026 A 
HETATM   35  C   UNL     1       7.743  23.603  53.478  1.00  0.00    -0.025 A 
HETATM   36  C   UNL     1       7.984  24.169  54.750  1.00  0.00    -0.026 A 
HETATM   37  C   UNL     1       8.238  22.320  53.193  1.00  0.00     0.012 A 
HETATM   38  C   UNL     1       7.499  25.455  55.030  1.00  0.00     0.013 A 
HETATM   39  C   UNL     1       8.698  23.432  55.706  1.00  0.00     0.012 A 
HETATM   40  C   UNL     1       6.762  26.164  54.077  1.00  0.00     0.014 A 
HETATM   41  C   UNL     1       9.173  22.152  55.411  1.00  0.00     0.001 A 
HETATM   42  C   UNL     1       8.947  21.599  54.155  1.00  0.00     0.001 A 
ENDBRANCH  31  33
ENDBRANCH   1  27
TORSDOF 9
ENDMDL
MODEL 8
REMARK VINA RESULT:     -10.3      7.834     10.938
REMARK  9 active torsions:
REMARK  status: ('A' for Active; 'I' for Inactive)
REMARK    1  A    between atoms: C_4  and  C_5 
REMARK    2  A    between atoms: C_16  and  C_17 
REMARK    3  A    between atoms: C_20  and  C_21 
REMARK    4  A    between atoms: C_21  and  N_22 
REMARK    5  A    between atoms: N_22  and  C_23 
REMARK    6  A    between atoms: C_23  and  N_24 
REMARK    7  A    between atoms: N_24  and  C_25 
REMARK    8  A    between atoms: C_27  and  C_28 
REMARK    9  A    between atoms: C_28  and  O_29 
ROOT
HETATM    1  C   UNL     1       4.098  26.929  49.474  1.00  0.00     0.067 C 
HETATM    2  C   UNL     1       4.596  26.707  48.036  1.00  0.00     0.001 C 
HETATM    3  C   UNL     1       5.272  27.969  47.464  1.00  0.00     0.040 C 
HETATM    4  C   UNL     1       4.293  29.151  47.364  1.00  0.00     0.206 C 
HETATM    5  N   UNL     1       3.034  28.746  48.124  1.00  0.00    -0.065 N 
HETATM    6  H   UNL     1       2.396  29.552  48.182  1.00  0.00     0.280 HD
HETATM    7  C   UNL     1       3.347  28.279  49.547  1.00  0.00     0.246 C 
HETATM    8  C   UNL     1       3.329  26.478  47.168  1.00  0.00     0.033 C 
HETATM    9  C   UNL     1       2.330  27.630  47.362  1.00  0.00     0.236 C 
ENDROOT
BRANCH   4  10
HETATM   10  C   UNL     1       4.886  30.488  47.865  1.00  0.00     0.155 C 
BRANCH  10  11
HETATM   11  N   UNL     1       4.278  31.643  47.205  1.00  0.00    -0.365 N 
HETATM   12  H   UNL     1       4.025  32.429  47.796  1.00  0.00     0.161 HD
BRANCH  11  13
HETATM   13  C   UNL     1       4.455  32.017  45.901  1.00  0.00     0.172 C 
HETATM   14  S   UNL     1       3.229  32.237  44.789  1.00  0.00    -0.041 SA
BRANCH  13  15
HETATM   15  N   UNL     1       5.741  32.195  45.474  1.00  0.00    -0.333 N 
HETATM   16  H   UNL     1       6.101  31.385  44.973  1.00  0.00     0.168 HD
BRANCH  15  17
HETATM   17  C   UNL     1       6.587  33.326  45.472  1.00  0.00     0.035 A 
HETATM   18  C   UNL     1       7.153  33.880  46.619  1.00  0.00     0.047 A 
HETATM   19  C   UNL     1       7.974  35.018  46.551  1.00  0.00     0.041 A 
HETATM   20  C   UNL     1       8.205  35.627  45.315  1.00  0.00     0.018 A 
HETATM   21  C   UNL     1       7.615  35.101  44.166  1.00  0.00     0.003 A 
HETATM   22  C   UNL     1       6.810  33.961  44.245  1.00  0.00     0.029 A 
BRANCH  19  23
HETATM   23  C   UNL     1       8.565  35.516  47.822  1.00  0.00     0.293 C 
HETATM   24  O   UNL     1       9.695  35.217  48.187  1.00  0.00    -0.259 OA
BRANCH  23  25
HETATM   25  O   UNL     1       7.694  36.311  48.482  1.00  0.00    -0.323 OA
HETATM   26  C   UNL     1       7.365  35.863  49.798  1.00  0.00     0.213 C 
ENDBRANCH  23  25
ENDBRANCH  19  23
ENDBRANCH  15  17
ENDBRANCH  13  15
ENDBRANCH  11  13
ENDBRANCH  10  11
ENDBRANCH   4  10
BRANCH   1  27
HETATM   27  C   UNL     1       5.005  26.744  50.660  1.00  0.00     0.038 C 
HETATM   28  N   UNL     1       5.560  27.638  51.547  1.00  0.00    -0.277 N 
HETATM   29  C   UNL     1       5.607  29.080  51.550  1.00  0.00     0.179 C 
HETATM   30  N   UNL     1       6.133  27.038  52.605  1.00  0.00    -0.172 NA
HETATM   31  C   UNL     1       6.117  25.730  52.339  1.00  0.00     0.089 C 
HETATM   32  C   UNL     1       5.445  25.508  51.117  1.00  0.00     0.061 C 
BRANCH  31  33
HETATM   33  C   UNL     1       6.659  24.729  53.257  1.00  0.00    -0.005 A 
HETATM   34  C   UNL     1       7.208  23.533  52.770  1.00  0.00     0.026 A 
HETATM   35  C   UNL     1       7.644  22.524  53.644  1.00  0.00    -0.025 A 
HETATM   36  C   UNL     1       7.539  22.721  55.039  1.00  0.00    -0.026 A 
HETATM   37  C   UNL     1       8.173  21.316  53.160  1.00  0.00     0.012 A 
HETATM   38  C   UNL     1       7.022  23.933  55.523  1.00  0.00     0.013 A 
HETATM   39  C   UNL     1       7.950  21.702  55.911  1.00  0.00     0.012 A 
HETATM   40  C   UNL     1       6.589  24.926  54.641  1.00  0.00     0.014 A 
HETATM   41  C   UNL     1       8.462  20.501  55.412  1.00  0.00     0.001 A 
HETATM   42  C   UNL     1       8.577  20.311  54.039  1.00  0.00     0.001 A 
ENDBRANCH  31  33
ENDBRANCH   1  27
TORSDOF 9
ENDMDL
MODEL 9
REMARK VINA RESULT:     -10.3      5.238      9.130
REMARK  9 active torsions:
REMARK  status: ('A' for Active; 'I' for Inactive)
REMARK    1  A    between atoms: C_4  and  C_5 
REMARK    2  A    between atoms: C_16  and  C_17 
REMARK    3  A    between atoms: C_20  and  C_21 
REMARK    4  A    between atoms: C_21  and  N_22 
REMARK    5  A    between atoms: N_22  and  C_23 
REMARK    6  A    between atoms: C_23  and  N_24 
REMARK    7  A    between atoms: N_24  and  C_25 
REMARK    8  A    between atoms: C_27  and  C_28 
REMARK    9  A    between atoms: C_28  and  O_29 
ROOT
HETATM    1  C   UNL     1       5.687  29.844  57.142  1.00  0.00     0.067 C 
HETATM    2  C   UNL     1       4.201  29.501  57.345  1.00  0.00     0.001 C 
HETATM    3  C   UNL     1       3.500  29.183  56.009  1.00  0.00     0.040 C 
HETATM    4  C   UNL     1       3.497  30.393  55.059  1.00  0.00     0.206 C 
HETATM    5  N   UNL     1       4.438  31.431  55.664  1.00  0.00    -0.065 N 
HETATM    6  H   UNL     1       4.558  32.210  55.002  1.00  0.00     0.280 HD
HETATM    7  C   UNL     1       5.819  30.846  55.970  1.00  0.00     0.246 C 
HETATM    8  C   UNL     1       3.526  30.793  57.879  1.00  0.00     0.033 C 
HETATM    9  C   UNL     1       3.819  31.978  56.944  1.00  0.00     0.236 C 
ENDROOT
BRANCH   4  10
HETATM   10  C   UNL     1       3.866  30.033  53.602  1.00  0.00     0.155 C 
BRANCH  10  11
HETATM   11  N   UNL     1       3.650  28.616  53.311  1.00  0.00    -0.365 N 
HETATM   12  H   UNL     1       2.687  28.301  53.248  1.00  0.00     0.161 HD
BRANCH  11  13
HETATM   13  C   UNL     1       4.506  27.788  52.637  1.00  0.00     0.172 C 
HETATM   14  S   UNL     1       4.850  26.210  53.062  1.00  0.00    -0.041 SA
BRANCH  13  15
HETATM   15  N   UNL     1       5.147  28.308  51.549  1.00  0.00    -0.333 N 
HETATM   16  H   UNL     1       6.120  28.538  51.743  1.00  0.00     0.168 HD
BRANCH  15  17
HETATM   17  C   UNL     1       4.757  28.444  50.198  1.00  0.00     0.035 A 
HETATM   18  C   UNL     1       4.011  27.493  49.502  1.00  0.00     0.047 A 
HETATM   19  C   UNL     1       3.670  27.681  48.152  1.00  0.00     0.041 A 
HETATM   20  C   UNL     1       4.111  28.825  47.482  1.00  0.00     0.018 A 
HETATM   21  C   UNL     1       4.887  29.765  48.161  1.00  0.00     0.003 A 
HETATM   22  C   UNL     1       5.209  29.573  49.508  1.00  0.00     0.029 A 
BRANCH  19  23
HETATM   23  C   UNL     1       2.840  26.632  47.501  1.00  0.00     0.293 C 
HETATM   24  O   UNL     1       3.287  25.858  46.665  1.00  0.00    -0.259 OA
BRANCH  23  25
HETATM   25  O   UNL     1       1.567  26.671  47.956  1.00  0.00    -0.323 OA
HETATM   26  C   UNL     1       0.673  27.438  47.147  1.00  0.00     0.213 C 
ENDBRANCH  23  25
ENDBRANCH  19  23
ENDBRANCH  15  17
ENDBRANCH  13  15
ENDBRANCH  11  13
ENDBRANCH  10  11
ENDBRANCH   4  10
BRANCH   1  27
HETATM   27  C   UNL     1       6.740  28.773  57.066  1.00  0.00     0.038 C 
HETATM   28  N   UNL     1       8.000  28.676  57.609  1.00  0.00    -0.277 N 
HETATM   29  C   UNL     1       8.822  29.642  58.300  1.00  0.00     0.179 C 
HETATM   30  N   UNL     1       8.532  27.448  57.485  1.00  0.00    -0.172 NA
HETATM   31  C   UNL     1       7.697  26.764  56.698  1.00  0.00     0.089 C 
HETATM   32  C   UNL     1       6.577  27.569  56.392  1.00  0.00     0.061 C 
BRANCH  31  33
HETATM   33  C   UNL     1       7.928  25.371  56.320  1.00  0.00    -0.005 A 
HETATM   34  C   UNL     1       7.750  24.951  54.994  1.00  0.00     0.026 A 
HETATM   35  C   UNL     1       7.877  23.598  54.636  1.00  0.00    -0.025 A 
HETATM   36  C   UNL     1       8.201  22.646  55.627  1.00  0.00    -0.026 A 
HETATM   37  C   UNL     1       7.677  23.170  53.313  1.00  0.00     0.012 A 
HETATM   38  C   UNL     1       8.413  23.075  56.946  1.00  0.00     0.013 A 
HETATM   39  C   UNL     1       8.301  21.292  55.274  1.00  0.00     0.012 A 
HETATM   40  C   UNL     1       8.279  24.423  57.288  1.00  0.00     0.014 A 
HETATM   41  C   UNL     1       8.086  20.882  53.956  1.00  0.00     0.001 A 
HETATM   42  C   UNL     1       7.779  21.820  52.977  1.00  0.00     0.001 A 
ENDBRANCH  31  33
ENDBRANCH   1  27
TORSDOF 9
ENDMDL
MODEL 10
REMARK VINA RESULT:     -10.0      3.972     11.127
REMARK  9 active torsions:
REMARK  status: ('A' for Active; 'I' for Inactive)
REMARK    1  A    between atoms: C_4  and  C_5 
REMARK    2  A    between atoms: C_16  and  C_17 
REMARK    3  A    between atoms: C_20  and  C_21 
REMARK    4  A    between atoms: C_21  and  N_22 
REMARK    5  A    between atoms: N_22  and  C_23 
REMARK    6  A    between atoms: C_23  and  N_24 
REMARK    7  A    between atoms: N_24  and  C_25 
REMARK    8  A    between atoms: C_27  and  C_28 
REMARK    9  A    between atoms: C_28  and  O_29 
ROOT
HETATM    1  C   UNL     1       8.496  29.029  57.660  1.00  0.00     0.067 C 
HETATM    2  C   UNL     1       8.538  29.172  56.129  1.00  0.00     0.001 C 
HETATM    3  C   UNL     1       7.142  29.466  55.544  1.00  0.00     0.040 C 
HETATM    4  C   UNL     1       6.155  28.316  55.804  1.00  0.00     0.206 C 
HETATM    5  N   UNL     1       6.828  27.375  56.800  1.00  0.00    -0.065 N 
HETATM    6  H   UNL     1       6.156  26.651  57.092  1.00  0.00     0.280 HD
HETATM    7  C   UNL     1       7.313  28.112  58.050  1.00  0.00     0.246 C 
HETATM    8  C   UNL     1       8.943  27.780  55.573  1.00  0.00     0.033 C 
HETATM    9  C   UNL     1       8.006  26.690  56.119  1.00  0.00     0.236 C 
ENDROOT
BRANCH   4  10
HETATM   10  C   UNL     1       4.764  28.792  56.283  1.00  0.00     0.155 C 
BRANCH  10  11
HETATM   11  N   UNL     1       3.704  28.433  55.341  1.00  0.00    -0.365 N 
HETATM   12  H   UNL     1       2.756  28.695  55.595  1.00  0.00     0.161 HD
BRANCH  11  13
HETATM   13  C   UNL     1       3.845  28.256  53.992  1.00  0.00     0.172 C 
HETATM   14  S   UNL     1       3.921  29.485  52.864  1.00  0.00    -0.041 SA
BRANCH  13  15
HETATM   15  N   UNL     1       3.899  26.969  53.536  1.00  0.00    -0.333 N 
HETATM   16  H   UNL     1       2.979  26.600  53.303  1.00  0.00     0.168 HD
BRANCH  15  17
HETATM   17  C   UNL     1       4.984  26.131  53.198  1.00  0.00     0.035 A 
HETATM   18  C   UNL     1       5.513  25.158  54.046  1.00  0.00     0.047 A 
HETATM   19  C   UNL     1       6.606  24.368  53.655  1.00  0.00     0.041 A 
HETATM   20  C   UNL     1       7.199  24.579  52.408  1.00  0.00     0.018 A 
HETATM   21  C   UNL     1       6.700  25.574  51.567  1.00  0.00     0.003 A 
HETATM   22  C   UNL     1       5.602  26.346  51.962  1.00  0.00     0.029 A 
BRANCH  19  23
HETATM   23  C   UNL     1       7.077  23.328  54.609  1.00  0.00     0.293 C 
HETATM   24  O   UNL     1       6.961  23.441  55.822  1.00  0.00    -0.259 OA
BRANCH  23  25
HETATM   25  O   UNL     1       7.634  22.286  53.952  1.00  0.00    -0.323 OA
HETATM   26  C   UNL     1       8.911  21.884  54.453  1.00  0.00     0.213 C 
ENDBRANCH  23  25
ENDBRANCH  19  23
ENDBRANCH  15  17
ENDBRANCH  13  15
ENDBRANCH  11  13
ENDBRANCH  10  11
ENDBRANCH   4  10
BRANCH   1  27
HETATM   27  C   UNL     1       8.582  30.225  58.567  1.00  0.00     0.038 C 
HETATM   28  N   UNL     1       9.447  31.294  58.607  1.00  0.00    -0.277 N 
HETATM   29  C   UNL     1      10.680  31.555  57.903  1.00  0.00     0.179 C 
HETATM   30  N   UNL     1       9.039  32.269  59.438  1.00  0.00    -0.172 NA
HETATM   31  C   UNL     1       7.984  31.775  60.092  1.00  0.00     0.089 C 
HETATM   32  C   UNL     1       7.685  30.488  59.595  1.00  0.00     0.061 C 
BRANCH  31  33
HETATM   33  C   UNL     1       7.250  32.539  61.100  1.00  0.00    -0.005 A 
HETATM   34  C   UNL     1       7.708  32.603  62.424  1.00  0.00     0.026 A 
HETATM   35  C   UNL     1       6.963  33.254  63.421  1.00  0.00    -0.025 A 
HETATM   36  C   UNL     1       5.734  33.864  63.082  1.00  0.00    -0.026 A 
HETATM   37  C   UNL     1       7.408  33.300  64.753  1.00  0.00     0.012 A 
HETATM   38  C   UNL     1       5.296  33.827  61.750  1.00  0.00     0.013 A 
HETATM   39  C   UNL     1       4.978  34.489  64.084  1.00  0.00     0.012 A 
HETATM   40  C   UNL     1       6.047  33.173  60.769  1.00  0.00     0.014 A 
HETATM   41  C   UNL     1       5.428  34.516  65.406  1.00  0.00     0.001 A 
HETATM   42  C   UNL     1       6.643  33.926  65.739  1.00  0.00     0.001 A 
ENDBRANCH  31  33
ENDBRANCH   1  27
TORSDOF 9
ENDMDL
