MODEL 1
REMARK VINA RESULT:      -9.5      0.000      0.000
REMARK  2 active torsions:
REMARK  status: ('A' for Active; 'I' for Inactive)
REMARK    1  A    between atoms: O_2  and  C_3 
REMARK    2  A    between atoms: C_9  and  N_10 
REMARK       I    between atoms: N_10  and  C_11 
REMARK       I    between atoms: C_11  and  N_12 
ROOT
HETATM    1  N   UNL     1       8.344  28.188  56.782  1.00  0.00    -0.306 N 
HETATM    2  C   UNL     1       7.922  27.000  57.323  1.00  0.00     0.323 C 
HETATM    3  N   UNL     1       7.532  26.039  56.397  1.00  0.00    -0.328 N 
HETATM    4  C   UNL     1       7.205  24.710  56.931  1.00  0.00     0.185 C 
HETATM    5  C   UNL     1       7.490  23.696  55.877  1.00  0.00     0.035 A 
HETATM    6  C   UNL     1       7.769  23.936  54.546  1.00  0.00    -0.020 A 
HETATM    7  C   UNL     1       7.828  25.325  54.012  1.00  0.00     0.061 C 
HETATM    8  C   UNL     1       7.125  26.287  54.993  1.00  0.00     0.132 C 
HETATM    9  N   UNL     1       7.522  22.345  56.081  1.00  0.00    -0.357 N 
HETATM   10  H   UNL     1       7.363  21.877  56.962  1.00  0.00     0.166 HD
HETATM   11  C   UNL     1       7.832  21.702  54.900  1.00  0.00     0.043 A 
HETATM   12  C   UNL     1       7.996  22.683  53.918  1.00  0.00    -0.001 A 
HETATM   13  C   UNL     1       7.985  20.336  54.634  1.00  0.00     0.030 A 
HETATM   14  C   UNL     1       8.320  19.963  53.330  1.00  0.00     0.002 A 
HETATM   15  C   UNL     1       8.492  20.919  52.331  1.00  0.00     0.001 A 
HETATM   16  C   UNL     1       8.333  22.282  52.611  1.00  0.00     0.014 A 
HETATM   17  O   UNL     1       7.892  26.761  58.529  1.00  0.00    -0.247 OA
HETATM   18  H   UNL     1       8.543  28.198  55.793  1.00  0.00     0.171 HD
ENDROOT
BRANCH   1  19
HETATM   19  C   UNL     1       8.805  29.347  57.450  1.00  0.00     0.071 A 
HETATM   20  C   UNL     1       7.847  30.114  58.141  1.00  0.00     0.116 A 
HETATM   21  C   UNL     1       8.206  31.326  58.746  1.00  0.00     0.069 A 
HETATM   22 CL   UNL     1       7.039  32.329  59.529  1.00  0.00    -0.081 Cl
HETATM   23  C   UNL     1       9.534  31.750  58.719  1.00  0.00     0.027 A 
HETATM   24  C   UNL     1      10.497  30.969  58.082  1.00  0.00     0.004 A 
HETATM   25  C   UNL     1      10.135  29.773  57.451  1.00  0.00     0.032 A 
BRANCH  20  26
HETATM   26  O   UNL     1       6.540  29.674  58.163  1.00  0.00    -0.352 OA
HETATM   27  C   UNL     1       5.795  30.308  57.119  1.00  0.00     0.210 C 
ENDBRANCH  20  26
ENDBRANCH   1  19
TORSDOF 2
ENDMDL
MODEL 2
REMARK VINA RESULT:      -9.1      1.672      3.240
REMARK  2 active torsions:
REMARK  status: ('A' for Active; 'I' for Inactive)
REMARK    1  A    between atoms: O_2  and  C_3 
REMARK    2  A    between atoms: C_9  and  N_10 
REMARK       I    between atoms: N_10  and  C_11 
REMARK       I    between atoms: C_11  and  N_12 
ROOT
HETATM    1  N   UNL     1       6.016  28.496  56.795  1.00  0.00    -0.306 N 
HETATM    2  C   UNL     1       6.466  28.108  55.559  1.00  0.00     0.323 C 
HETATM    3  N   UNL     1       7.189  26.920  55.545  1.00  0.00    -0.328 N 
HETATM    4  C   UNL     1       7.570  26.401  54.223  1.00  0.00     0.185 C 
HETATM    5  C   UNL     1       7.678  24.918  54.313  1.00  0.00     0.035 A 
HETATM    6  C   UNL     1       7.677  24.152  55.462  1.00  0.00    -0.020 A 
HETATM    7  C   UNL     1       7.546  24.782  56.805  1.00  0.00     0.061 C 
HETATM    8  C   UNL     1       7.864  26.288  56.704  1.00  0.00     0.132 C 
HETATM    9  N   UNL     1       7.792  24.077  53.242  1.00  0.00    -0.357 N 
HETATM   10  H   UNL     1       7.812  24.356  52.271  1.00  0.00     0.166 HD
HETATM   11  C   UNL     1       7.853  22.769  53.679  1.00  0.00     0.043 A 
HETATM   12  C   UNL     1       7.779  22.790  55.075  1.00  0.00    -0.001 A 
HETATM   13  C   UNL     1       7.958  21.582  52.947  1.00  0.00     0.030 A 
HETATM   14  C   UNL     1       7.985  20.380  53.661  1.00  0.00     0.002 A 
HETATM   15  C   UNL     1       7.911  20.369  55.052  1.00  0.00     0.001 A 
HETATM   16  C   UNL     1       7.808  21.567  55.771  1.00  0.00     0.014 A 
HETATM   17  O   UNL     1       6.255  28.729  54.519  1.00  0.00    -0.247 OA
HETATM   18  H   UNL     1       6.046  27.808  57.533  1.00  0.00     0.171 HD
ENDROOT
BRANCH   1  19
HETATM   19  C   UNL     1       5.255  29.640  57.137  1.00  0.00     0.071 A 
HETATM   20  C   UNL     1       5.792  30.499  58.115  1.00  0.00     0.116 A 
HETATM   21  C   UNL     1       5.057  31.598  58.578  1.00  0.00     0.069 A 
HETATM   22 CL   UNL     1       5.652  32.623  59.834  1.00  0.00    -0.081 Cl
HETATM   23  C   UNL     1       3.810  31.884  58.025  1.00  0.00     0.027 A 
HETATM   24  C   UNL     1       3.296  31.067  57.018  1.00  0.00     0.004 A 
HETATM   25  C   UNL     1       4.014  29.951  56.576  1.00  0.00     0.032 A 
BRANCH  20  26
HETATM   26  O   UNL     1       7.030  30.204  58.644  1.00  0.00    -0.352 OA
HETATM   27  C   UNL     1       8.047  30.911  57.927  1.00  0.00     0.210 C 
ENDBRANCH  20  26
ENDBRANCH   1  19
TORSDOF 2
ENDMDL
MODEL 3
REMARK VINA RESULT:      -9.0      4.457      5.530
REMARK  2 active torsions:
REMARK  status: ('A' for Active; 'I' for Inactive)
REMARK    1  A    between atoms: O_2  and  C_3 
REMARK    2  A    between atoms: C_9  and  N_10 
REMARK       I    between atoms: N_10  and  C_11 
REMARK       I    between atoms: C_11  and  N_12 
ROOT
HETATM    1  N   UNL     1       7.340  29.010  54.993  1.00  0.00    -0.306 N 
HETATM    2  C   UNL     1       6.974  27.788  54.489  1.00  0.00     0.323 C 
HETATM    3  N   UNL     1       5.924  27.819  53.578  1.00  0.00    -0.328 N 
HETATM    4  C   UNL     1       5.595  26.550  52.914  1.00  0.00     0.185 C 
HETATM    5  C   UNL     1       5.014  26.855  51.577  1.00  0.00     0.035 A 
HETATM    6  C   UNL     1       4.606  28.089  51.109  1.00  0.00    -0.020 A 
HETATM    7  C   UNL     1       4.733  29.310  51.952  1.00  0.00     0.061 C 
HETATM    8  C   UNL     1       4.924  28.903  53.428  1.00  0.00     0.132 C 
HETATM    9  N   UNL     1       4.798  25.935  50.590  1.00  0.00    -0.357 N 
HETATM   10  H   UNL     1       5.008  24.948  50.646  1.00  0.00     0.166 HD
HETATM   11  C   UNL     1       4.265  26.557  49.479  1.00  0.00     0.043 A 
HETATM   12  C   UNL     1       4.138  27.916  49.780  1.00  0.00    -0.001 A 
HETATM   13  C   UNL     1       3.898  26.021  48.239  1.00  0.00     0.030 A 
HETATM   14  C   UNL     1       3.391  26.900  47.278  1.00  0.00     0.002 A 
HETATM   15  C   UNL     1       3.255  28.260  47.548  1.00  0.00     0.001 A 
HETATM   16  C   UNL     1       3.624  28.781  48.795  1.00  0.00     0.014 A 
HETATM   17  O   UNL     1       7.519  26.726  54.785  1.00  0.00    -0.247 OA
HETATM   18  H   UNL     1       6.987  29.828  54.519  1.00  0.00     0.171 HD
ENDROOT
BRANCH   1  19
HETATM   19  C   UNL     1       8.363  29.309  55.923  1.00  0.00     0.071 A 
HETATM   20  C   UNL     1       7.972  29.547  57.255  1.00  0.00     0.116 A 
HETATM   21  C   UNL     1       8.913  29.944  58.214  1.00  0.00     0.069 A 
HETATM   22 CL   UNL     1       8.452  30.323  59.835  1.00  0.00    -0.081 Cl
HETATM   23  C   UNL     1      10.259  30.048  57.867  1.00  0.00     0.027 A 
HETATM   24  C   UNL     1      10.661  29.762  56.563  1.00  0.00     0.004 A 
HETATM   25  C   UNL     1       9.719  29.395  55.596  1.00  0.00     0.032 A 
BRANCH  20  26
HETATM   26  O   UNL     1       6.637  29.432  57.581  1.00  0.00    -0.352 OA
HETATM   27  C   UNL     1       6.013  30.720  57.538  1.00  0.00     0.210 C 
ENDBRANCH  20  26
ENDBRANCH   1  19
TORSDOF 2
ENDMDL
MODEL 4
REMARK VINA RESULT:      -9.0      2.650      4.596
REMARK  2 active torsions:
REMARK  status: ('A' for Active; 'I' for Inactive)
REMARK    1  A    between atoms: O_2  and  C_3 
REMARK    2  A    between atoms: C_9  and  N_10 
REMARK       I    between atoms: N_10  and  C_11 
REMARK       I    between atoms: C_11  and  N_12 
ROOT
HETATM    1  N   UNL     1       7.035  30.937  59.160  1.00  0.00    -0.306 N 
HETATM    2  C   UNL     1       6.572  30.794  57.877  1.00  0.00     0.323 C 
HETATM    3  N   UNL     1       7.147  29.751  57.158  1.00  0.00    -0.328 N 
HETATM    4  C   UNL     1       6.580  29.481  55.830  1.00  0.00     0.185 C 
HETATM    5  C   UNL     1       6.774  28.036  55.521  1.00  0.00     0.035 A 
HETATM    6  C   UNL     1       7.559  27.135  56.214  1.00  0.00    -0.020 A 
HETATM    7  C   UNL     1       8.324  27.553  57.421  1.00  0.00     0.061 C 
HETATM    8  C   UNL     1       8.442  29.091  57.453  1.00  0.00     0.132 C 
HETATM    9  N   UNL     1       6.183  27.373  54.483  1.00  0.00    -0.357 N 
HETATM   10  H   UNL     1       5.546  27.777  53.809  1.00  0.00     0.166 HD
HETATM   11  C   UNL     1       6.564  26.047  54.497  1.00  0.00     0.043 A 
HETATM   12  C   UNL     1       7.429  25.871  55.581  1.00  0.00    -0.001 A 
HETATM   13  C   UNL     1       6.202  24.999  53.643  1.00  0.00     0.030 A 
HETATM   14  C   UNL     1       6.737  23.734  53.907  1.00  0.00     0.002 A 
HETATM   15  C   UNL     1       7.599  23.528  54.981  1.00  0.00     0.001 A 
HETATM   16  C   UNL     1       7.954  24.588  55.825  1.00  0.00     0.014 A 
HETATM   17  O   UNL     1       5.705  31.504  57.371  1.00  0.00    -0.247 OA
HETATM   18  H   UNL     1       7.570  30.172  59.544  1.00  0.00     0.171 HD
ENDROOT
BRANCH   1  19
HETATM   19  C   UNL     1       6.649  31.887  60.135  1.00  0.00     0.071 A 
HETATM   20  C   UNL     1       7.423  31.953  61.309  1.00  0.00     0.116 A 
HETATM   21  C   UNL     1       7.050  32.797  62.363  1.00  0.00     0.069 A 
HETATM   22 CL   UNL     1       7.931  32.841  63.848  1.00  0.00    -0.081 Cl
HETATM   23  C   UNL     1       5.937  33.626  62.229  1.00  0.00     0.027 A 
HETATM   24  C   UNL     1       5.196  33.604  61.048  1.00  0.00     0.004 A 
HETATM   25  C   UNL     1       5.550  32.739  60.006  1.00  0.00     0.032 A 
BRANCH  20  26
HETATM   26  O   UNL     1       8.525  31.131  61.421  1.00  0.00    -0.352 OA
HETATM   27  C   UNL     1       9.711  31.859  61.088  1.00  0.00     0.210 C 
ENDBRANCH  20  26
ENDBRANCH   1  19
TORSDOF 2
ENDMDL
MODEL 5
REMARK VINA RESULT:      -8.8      4.471      5.573
REMARK  2 active torsions:
REMARK  status: ('A' for Active; 'I' for Inactive)
REMARK    1  A    between atoms: O_2  and  C_3 
REMARK    2  A    between atoms: C_9  and  N_10 
REMARK       I    between atoms: N_10  and  C_11 
REMARK       I    between atoms: C_11  and  N_12 
ROOT
HETATM    1  N   UNL     1       4.647  28.430  52.571  1.00  0.00    -0.306 N 
HETATM    2  C   UNL     1       4.945  27.950  53.821  1.00  0.00     0.323 C 
HETATM    3  N   UNL     1       5.145  26.576  53.890  1.00  0.00    -0.328 N 
HETATM    4  C   UNL     1       5.600  26.044  55.182  1.00  0.00     0.185 C 
HETATM    5  C   UNL     1       6.394  24.809  54.929  1.00  0.00     0.035 A 
HETATM    6  C   UNL     1       6.495  24.114  53.739  1.00  0.00    -0.020 A 
HETATM    7  C   UNL     1       5.783  24.578  52.517  1.00  0.00     0.061 C 
HETATM    8  C   UNL     1       4.669  25.569  52.911  1.00  0.00     0.132 C 
HETATM    9  N   UNL     1       7.161  24.168  55.861  1.00  0.00    -0.357 N 
HETATM   10  H   UNL     1       7.285  24.455  56.822  1.00  0.00     0.166 HD
HETATM   11  C   UNL     1       7.772  23.071  55.289  1.00  0.00     0.043 A 
HETATM   12  C   UNL     1       7.371  23.017  53.951  1.00  0.00    -0.001 A 
HETATM   13  C   UNL     1       8.648  22.136  55.852  1.00  0.00     0.030 A 
HETATM   14  C   UNL     1       9.132  21.120  55.022  1.00  0.00     0.002 A 
HETATM   15  C   UNL     1       8.752  21.042  53.685  1.00  0.00     0.001 A 
HETATM   16  C   UNL     1       7.872  21.984  53.136  1.00  0.00     0.014 A 
HETATM   17  O   UNL     1       5.052  28.653  54.825  1.00  0.00    -0.247 OA
HETATM   18  H   UNL     1       4.807  27.812  51.790  1.00  0.00     0.171 HD
ENDROOT
BRANCH   1  19
HETATM   19  C   UNL     1       4.398  29.766  52.177  1.00  0.00     0.071 A 
HETATM   20  C   UNL     1       5.192  30.287  51.137  1.00  0.00     0.116 A 
HETATM   21  C   UNL     1       5.074  31.630  50.755  1.00  0.00     0.069 A 
HETATM   22 CL   UNL     1       6.090  32.321  49.542  1.00  0.00    -0.081 Cl
HETATM   23  C   UNL     1       4.121  32.445  51.365  1.00  0.00     0.027 A 
HETATM   24  C   UNL     1       3.295  31.921  52.358  1.00  0.00     0.004 A 
HETATM   25  C   UNL     1       3.432  30.589  52.762  1.00  0.00     0.032 A 
BRANCH  20  26
HETATM   26  O   UNL     1       6.123  29.463  50.542  1.00  0.00    -0.352 OA
HETATM   27  C   UNL     1       5.591  28.925  49.327  1.00  0.00     0.210 C 
ENDBRANCH  20  26
ENDBRANCH   1  19
TORSDOF 2
ENDMDL
MODEL 6
REMARK VINA RESULT:      -8.8      3.437      9.191
REMARK  2 active torsions:
REMARK  status: ('A' for Active; 'I' for Inactive)
REMARK    1  A    between atoms: O_2  and  C_3 
REMARK    2  A    between atoms: C_9  and  N_10 
REMARK       I    between atoms: N_10  and  C_11 
REMARK       I    between atoms: C_11  and  N_12 
ROOT
HETATM    1  N   UNL     1       6.968  27.645  56.253  1.00  0.00    -0.306 N 
HETATM    2  C   UNL     1       7.877  28.308  57.038  1.00  0.00     0.323 C 
HETATM    3  N   UNL     1       7.487  29.580  57.441  1.00  0.00    -0.328 N 
HETATM    4  C   UNL     1       8.372  30.265  58.394  1.00  0.00     0.185 C 
HETATM    5  C   UNL     1       7.549  31.199  59.212  1.00  0.00     0.035 A 
HETATM    6  C   UNL     1       6.238  31.571  58.984  1.00  0.00    -0.020 A 
HETATM    7  C   UNL     1       5.475  31.025  57.828  1.00  0.00     0.061 C 
HETATM    8  C   UNL     1       6.455  30.427  56.797  1.00  0.00     0.132 C 
HETATM    9  N   UNL     1       7.980  31.836  60.341  1.00  0.00    -0.357 N 
HETATM   10  H   UNL     1       8.898  31.748  60.755  1.00  0.00     0.166 HD
HETATM   11  C   UNL     1       6.962  32.610  60.859  1.00  0.00     0.043 A 
HETATM   12  C   UNL     1       5.852  32.458  60.023  1.00  0.00    -0.001 A 
HETATM   13  C   UNL     1       6.941  33.420  62.001  1.00  0.00     0.030 A 
HETATM   14  C   UNL     1       5.751  34.090  62.298  1.00  0.00     0.002 A 
HETATM   15  C   UNL     1       4.628  33.955  61.485  1.00  0.00     0.001 A 
HETATM   16  C   UNL     1       4.665  33.143  60.345  1.00  0.00     0.014 A 
HETATM   17  O   UNL     1       8.957  27.839  57.392  1.00  0.00    -0.247 OA
HETATM   18  H   UNL     1       6.033  28.022  56.213  1.00  0.00     0.171 HD
ENDROOT
BRANCH   1  19
HETATM   19  C   UNL     1       7.065  26.349  55.694  1.00  0.00     0.071 A 
HETATM   20  C   UNL     1       7.392  26.260  54.328  1.00  0.00     0.116 A 
HETATM   21  C   UNL     1       7.412  25.019  53.678  1.00  0.00     0.069 A 
HETATM   22 CL   UNL     1       7.728  24.885  51.986  1.00  0.00    -0.081 Cl
HETATM   23  C   UNL     1       7.168  23.852  54.401  1.00  0.00     0.027 A 
HETATM   24  C   UNL     1       6.895  23.928  55.766  1.00  0.00     0.004 A 
HETATM   25  C   UNL     1       6.845  25.169  56.410  1.00  0.00     0.032 A 
BRANCH  20  26
HETATM   26  O   UNL     1       7.639  27.425  53.631  1.00  0.00    -0.352 OA
HETATM   27  C   UNL     1       6.429  27.899  53.032  1.00  0.00     0.210 C 
ENDBRANCH  20  26
ENDBRANCH   1  19
TORSDOF 2
ENDMDL
MODEL 7
REMARK VINA RESULT:      -8.6      3.429      9.159
REMARK  2 active torsions:
REMARK  status: ('A' for Active; 'I' for Inactive)
REMARK    1  A    between atoms: O_2  and  C_3 
REMARK    2  A    between atoms: C_9  and  N_10 
REMARK       I    between atoms: N_10  and  C_11 
REMARK       I    between atoms: C_11  and  N_12 
ROOT
HETATM    1  N   UNL     1       7.380  28.662  56.250  1.00  0.00    -0.306 N 
HETATM    2  C   UNL     1       8.393  29.116  57.056  1.00  0.00     0.323 C 
HETATM    3  N   UNL     1       8.061  30.199  57.861  1.00  0.00    -0.328 N 
HETATM    4  C   UNL     1       9.076  30.626  58.835  1.00  0.00     0.185 C 
HETATM    5  C   UNL     1       8.380  31.246  59.998  1.00  0.00     0.035 A 
HETATM    6  C   UNL     1       7.049  31.603  60.077  1.00  0.00    -0.020 A 
HETATM    7  C   UNL     1       6.123  31.373  58.934  1.00  0.00     0.061 C 
HETATM    8  C   UNL     1       6.939  31.144  57.645  1.00  0.00     0.132 C 
HETATM    9  N   UNL     1       8.974  31.554  61.189  1.00  0.00    -0.357 N 
HETATM   10  H   UNL     1       9.944  31.397  61.424  1.00  0.00     0.166 HD
HETATM   11  C   UNL     1       8.041  32.097  62.050  1.00  0.00     0.043 A 
HETATM   12  C   UNL     1       6.819  32.136  61.373  1.00  0.00    -0.001 A 
HETATM   13  C   UNL     1       8.188  32.545  63.367  1.00  0.00     0.030 A 
HETATM   14  C   UNL     1       7.053  33.042  64.013  1.00  0.00     0.002 A 
HETATM   15  C   UNL     1       5.821  33.091  63.365  1.00  0.00     0.001 A 
HETATM   16  C   UNL     1       5.690  32.641  62.045  1.00  0.00     0.014 A 
HETATM   17  O   UNL     1       9.517  28.619  57.100  1.00  0.00    -0.247 OA
HETATM   18  H   UNL     1       6.447  28.988  56.455  1.00  0.00     0.171 HD
ENDROOT
BRANCH   1  19
HETATM   19  C   UNL     1       7.399  27.585  55.332  1.00  0.00     0.071 A 
HETATM   20  C   UNL     1       7.117  26.302  55.840  1.00  0.00     0.116 A 
HETATM   21  C   UNL     1       7.212  25.173  55.017  1.00  0.00     0.069 A 
HETATM   22 CL   UNL     1       6.953  23.579  55.629  1.00  0.00    -0.081 Cl
HETATM   23  C   UNL     1       7.528  25.321  53.668  1.00  0.00     0.027 A 
HETATM   24  C   UNL     1       7.757  26.593  53.146  1.00  0.00     0.004 A 
HETATM   25  C   UNL     1       7.693  27.720  53.973  1.00  0.00     0.032 A 
BRANCH  20  26
HETATM   26  O   UNL     1       6.798  26.177  57.176  1.00  0.00    -0.352 OA
HETATM   27  C   UNL     1       5.390  25.970  57.324  1.00  0.00     0.210 C 
ENDBRANCH  20  26
ENDBRANCH   1  19
TORSDOF 2
ENDMDL
MODEL 8
REMARK VINA RESULT:      -8.5      6.150      7.345
REMARK  2 active torsions:
REMARK  status: ('A' for Active; 'I' for Inactive)
REMARK    1  A    between atoms: O_2  and  C_3 
REMARK    2  A    between atoms: C_9  and  N_10 
REMARK       I    between atoms: N_10  and  C_11 
REMARK       I    between atoms: C_11  and  N_12 
ROOT
HETATM    1  N   UNL     1       5.325  28.471  50.294  1.00  0.00    -0.306 N 
HETATM    2  C   UNL     1       4.882  28.214  51.567  1.00  0.00     0.323 C 
HETATM    3  N   UNL     1       5.200  26.951  52.054  1.00  0.00    -0.328 N 
HETATM    4  C   UNL     1       4.863  26.687  53.460  1.00  0.00     0.185 C 
HETATM    5  C   UNL     1       5.821  25.677  53.992  1.00  0.00     0.035 A 
HETATM    6  C   UNL     1       6.714  24.915  53.265  1.00  0.00    -0.020 A 
HETATM    7  C   UNL     1       6.817  25.054  51.786  1.00  0.00     0.061 C 
HETATM    8  C   UNL     1       5.558  25.761  51.244  1.00  0.00     0.132 C 
HETATM    9  N   UNL     1       5.961  25.353  55.312  1.00  0.00    -0.357 N 
HETATM   10  H   UNL     1       5.442  25.758  56.078  1.00  0.00     0.166 HD
HETATM   11  C   UNL     1       6.945  24.396  55.456  1.00  0.00     0.043 A 
HETATM   12  C   UNL     1       7.438  24.106  54.180  1.00  0.00    -0.001 A 
HETATM   13  C   UNL     1       7.436  23.779  56.612  1.00  0.00     0.030 A 
HETATM   14  C   UNL     1       8.462  22.842  56.461  1.00  0.00     0.002 A 
HETATM   15  C   UNL     1       8.974  22.534  55.203  1.00  0.00     0.001 A 
HETATM   16  C   UNL     1       8.471  23.158  54.055  1.00  0.00     0.014 A 
HETATM   17  O   UNL     1       4.263  29.018  52.260  1.00  0.00    -0.247 OA
HETATM   18  H   UNL     1       6.009  27.839  49.908  1.00  0.00     0.171 HD
ENDROOT
BRANCH   1  19
HETATM   19  C   UNL     1       5.169  29.652  49.529  1.00  0.00     0.071 A 
HETATM   20  C   UNL     1       4.278  29.599  48.440  1.00  0.00     0.116 A 
HETATM   21  C   UNL     1       4.142  30.693  47.576  1.00  0.00     0.069 A 
HETATM   22 CL   UNL     1       3.121  30.631  46.185  1.00  0.00    -0.081 Cl
HETATM   23  C   UNL     1       4.846  31.870  47.829  1.00  0.00     0.027 A 
HETATM   24  C   UNL     1       5.690  31.947  48.936  1.00  0.00     0.004 A 
HETATM   25  C   UNL     1       5.851  30.844  49.782  1.00  0.00     0.032 A 
BRANCH  20  26
HETATM   26  O   UNL     1       3.585  28.429  48.211  1.00  0.00    -0.352 OA
HETATM   27  C   UNL     1       2.290  28.505  48.815  1.00  0.00     0.210 C 
ENDBRANCH  20  26
ENDBRANCH   1  19
TORSDOF 2
ENDMDL
MODEL 9
REMARK VINA RESULT:      -8.5      3.953      8.882
REMARK  2 active torsions:
REMARK  status: ('A' for Active; 'I' for Inactive)
REMARK    1  A    between atoms: O_2  and  C_3 
REMARK    2  A    between atoms: C_9  and  N_10 
REMARK       I    between atoms: N_10  and  C_11 
REMARK       I    between atoms: C_11  and  N_12 
ROOT
HETATM    1  N   UNL     1       6.131  28.129  55.052  1.00  0.00    -0.306 N 
HETATM    2  C   UNL     1       7.372  28.462  55.534  1.00  0.00     0.323 C 
HETATM    3  N   UNL     1       7.393  29.549  56.400  1.00  0.00    -0.328 N 
HETATM    4  C   UNL     1       8.680  29.850  57.042  1.00  0.00     0.185 C 
HETATM    5  C   UNL     1       8.410  30.500  58.356  1.00  0.00     0.035 A 
HETATM    6  C   UNL     1       7.199  30.980  58.813  1.00  0.00    -0.020 A 
HETATM    7  C   UNL     1       5.967  30.871  57.983  1.00  0.00     0.061 C 
HETATM    8  C   UNL     1       6.355  30.602  56.514  1.00  0.00     0.132 C 
HETATM    9  N   UNL     1       9.346  30.717  59.327  1.00  0.00    -0.357 N 
HETATM   10  H   UNL     1      10.323  30.461  59.274  1.00  0.00     0.166 HD
HETATM   11  C   UNL     1       8.756  31.322  60.418  1.00  0.00     0.043 A 
HETATM   12  C   UNL     1       7.402  31.495  60.120  1.00  0.00    -0.001 A 
HETATM   13  C   UNL     1       9.317  31.716  61.638  1.00  0.00     0.030 A 
HETATM   14  C   UNL     1       8.468  32.301  62.582  1.00  0.00     0.002 A 
HETATM   15  C   UNL     1       7.113  32.485  62.314  1.00  0.00     0.001 A 
HETATM   16  C   UNL     1       6.568  32.087  61.087  1.00  0.00     0.014 A 
HETATM   17  O   UNL     1       8.406  27.859  55.254  1.00  0.00    -0.247 OA
HETATM   18  H   UNL     1       5.333  28.537  55.516  1.00  0.00     0.171 HD
ENDROOT
BRANCH   1  19
HETATM   19  C   UNL     1       5.781  27.081  54.168  1.00  0.00     0.071 A 
HETATM   20  C   UNL     1       5.663  27.406  52.803  1.00  0.00     0.116 A 
HETATM   21  C   UNL     1       5.225  26.449  51.878  1.00  0.00     0.069 A 
HETATM   22 CL   UNL     1       4.992  26.837  50.212  1.00  0.00    -0.081 Cl
HETATM   23  C   UNL     1       4.962  25.146  52.298  1.00  0.00     0.027 A 
HETATM   24  C   UNL     1       5.128  24.804  53.639  1.00  0.00     0.004 A 
HETATM   25  C   UNL     1       5.535  25.766  54.570  1.00  0.00     0.032 A 
BRANCH  20  26
HETATM   26  O   UNL     1       5.935  28.698  52.405  1.00  0.00    -0.352 OA
HETATM   27  C   UNL     1       4.722  29.455  52.348  1.00  0.00     0.210 C 
ENDBRANCH  20  26
ENDBRANCH   1  19
TORSDOF 2
ENDMDL
MODEL 10
REMARK VINA RESULT:      -8.3      7.296      9.241
REMARK  2 active torsions:
REMARK  status: ('A' for Active; 'I' for Inactive)
REMARK    1  A    between atoms: O_2  and  C_3 
REMARK    2  A    between atoms: C_9  and  N_10 
REMARK       I    between atoms: N_10  and  C_11 
REMARK       I    between atoms: C_11  and  N_12 
ROOT
HETATM    1  N   UNL     1       3.078  27.892  49.513  1.00  0.00    -0.306 N 
HETATM    2  C   UNL     1       4.171  27.068  49.603  1.00  0.00     0.323 C 
HETATM    3  N   UNL     1       4.833  27.104  50.825  1.00  0.00    -0.328 N 
HETATM    4  C   UNL     1       5.925  26.137  51.007  1.00  0.00     0.185 C 
HETATM    5  C   UNL     1       6.039  25.824  52.459  1.00  0.00     0.035 A 
HETATM    6  C   UNL     1       5.424  26.487  53.504  1.00  0.00    -0.020 A 
HETATM    7  C   UNL     1       4.520  27.643  53.253  1.00  0.00     0.061 C 
HETATM    8  C   UNL     1       4.761  28.190  51.831  1.00  0.00     0.132 C 
HETATM    9  N   UNL     1       6.785  24.806  52.983  1.00  0.00    -0.357 N 
HETATM   10  H   UNL     1       7.339  24.147  52.454  1.00  0.00     0.166 HD
HETATM   11  C   UNL     1       6.653  24.789  54.357  1.00  0.00     0.043 A 
HETATM   12  C   UNL     1       5.798  25.837  54.709  1.00  0.00    -0.001 A 
HETATM   13  C   UNL     1       7.217  23.925  55.302  1.00  0.00     0.030 A 
HETATM   14  C   UNL     1       6.895  24.136  56.646  1.00  0.00     0.002 A 
HETATM   15  C   UNL     1       6.043  25.170  57.027  1.00  0.00     0.001 A 
HETATM   16  C   UNL     1       5.488  26.028  56.069  1.00  0.00     0.014 A 
HETATM   17  O   UNL     1       4.557  26.329  48.699  1.00  0.00    -0.247 OA
HETATM   18  H   UNL     1       2.719  28.276  50.374  1.00  0.00     0.171 HD
ENDROOT
BRANCH   1  19
HETATM   19  C   UNL     1       2.201  28.075  48.417  1.00  0.00     0.071 A 
HETATM   20  C   UNL     1       2.354  29.252  47.661  1.00  0.00     0.116 A 
HETATM   21  C   UNL     1       1.464  29.554  46.622  1.00  0.00     0.069 A 
HETATM   22 CL   UNL     1       1.576  31.028  45.730  1.00  0.00    -0.081 Cl
HETATM   23  C   UNL     1       0.452  28.654  46.291  1.00  0.00     0.027 A 
HETATM   24  C   UNL     1       0.327  27.461  47.001  1.00  0.00     0.004 A 
HETATM   25  C   UNL     1       1.196  27.172  48.059  1.00  0.00     0.032 A 
BRANCH  20  26
HETATM   26  O   UNL     1       3.366  30.126  47.999  1.00  0.00    -0.352 OA
HETATM   27  C   UNL     1       4.503  29.903  47.160  1.00  0.00     0.210 C 
ENDBRANCH  20  26
ENDBRANCH   1  19
TORSDOF 2
ENDMDL
