MODEL 1
REMARK VINA RESULT:      -9.5      0.000      0.000
REMARK  5 active torsions:
REMARK  status: ('A' for Active; 'I' for Inactive)
REMARK    1  A    between atoms: C_3  and  O_4 
REMARK    2  A    between atoms: O_4  and  C_5 
REMARK    3  A    between atoms: C_5  and  C_6 
REMARK       I    between atoms: C_6  and  N_7 
REMARK    4  A    between atoms: N_7  and  N_8 
REMARK    5  A    between atoms: C_9  and  C_10 
ROOT
HETATM    1  C   UNL     1       7.594  25.650  57.156  1.00  0.00     0.261 C 
HETATM    2  N   UNL     1       8.307  26.824  57.395  1.00  0.00    -0.246 N 
HETATM    3  O   UNL     1       6.408  25.467  57.428  1.00  0.00    -0.269 OA
HETATM    4  H   UNL     1       9.321  26.767  57.347  1.00  0.00     0.192 HD
ENDROOT
BRANCH   2   5
HETATM    5  N   UNL     1       7.835  27.862  58.166  1.00  0.00    -0.184 NA
HETATM    6  C   UNL     1       8.175  29.062  57.813  1.00  0.00     0.153 C 
BRANCH   6   7
HETATM    7  C   UNL     1       7.650  30.215  58.525  1.00  0.00     0.018 A 
HETATM    8  C   UNL     1       8.090  30.801  59.760  1.00  0.00     0.004 A 
HETATM    9  C   UNL     1       7.243  31.874  60.039  1.00  0.00     0.043 A 
HETATM   10  C   UNL     1       9.120  30.515  60.682  1.00  0.00     0.014 A 
HETATM   11  C   UNL     1       7.371  32.670  61.184  1.00  0.00     0.030 A 
HETATM   12  N   UNL     1       6.331  31.947  59.015  1.00  0.00    -0.358 N 
HETATM   13  C   UNL     1       8.399  32.361  62.078  1.00  0.00     0.002 A 
HETATM   14  C   UNL     1       9.263  31.300  61.833  1.00  0.00     0.001 A 
HETATM   15  H   UNL     1       5.593  32.636  58.962  1.00  0.00     0.166 HD
HETATM   16  C   UNL     1       6.553  30.954  58.095  1.00  0.00     0.018 A 
HETATM   17  C   UNL     1       5.693  30.810  56.891  1.00  0.00     0.069 C 
ENDBRANCH   6   7
ENDBRANCH   2   5
BRANCH   1  18
HETATM   18  C   UNL     1       8.463  24.528  56.596  1.00  0.00     0.280 C 
BRANCH  18  19
HETATM   19  O   UNL     1       7.722  23.314  56.504  1.00  0.00    -0.342 OA
BRANCH  19  20
HETATM   20  C   UNL     1       7.799  22.675  55.292  1.00  0.00     0.075 A 
HETATM   21  C   UNL     1       7.959  21.279  55.322  1.00  0.00    -0.029 A 
HETATM   22  C   UNL     1       8.120  20.530  56.616  1.00  0.00     0.051 C 
HETATM   23  C   UNL     1       8.050  20.575  54.110  1.00  0.00     0.009 A 
HETATM   24  C   UNL     1       7.945  21.242  52.890  1.00  0.00     0.001 A 
HETATM   25  C   UNL     1       7.754  22.620  52.868  1.00  0.00     0.003 A 
HETATM   26  C   UNL     1       7.678  23.336  54.064  1.00  0.00     0.037 A 
ENDBRANCH  19  20
ENDBRANCH  18  19
ENDBRANCH   1  18
TORSDOF 5
ENDMDL
MODEL 2
REMARK VINA RESULT:      -9.4      0.551      1.536
REMARK  5 active torsions:
REMARK  status: ('A' for Active; 'I' for Inactive)
REMARK    1  A    between atoms: C_3  and  O_4 
REMARK    2  A    between atoms: O_4  and  C_5 
REMARK    3  A    between atoms: C_5  and  C_6 
REMARK       I    between atoms: C_6  and  N_7 
REMARK    4  A    between atoms: N_7  and  N_8 
REMARK    5  A    between atoms: C_9  and  C_10 
ROOT
HETATM    1  C   UNL     1       7.335  25.735  57.151  1.00  0.00     0.261 C 
HETATM    2  N   UNL     1       8.070  26.900  57.362  1.00  0.00    -0.246 N 
HETATM    3  O   UNL     1       6.163  25.560  57.483  1.00  0.00    -0.269 OA
HETATM    4  H   UNL     1       9.080  26.835  57.260  1.00  0.00     0.192 HD
ENDROOT
BRANCH   2   5
HETATM    5  N   UNL     1       7.649  27.937  58.163  1.00  0.00    -0.184 NA
HETATM    6  C   UNL     1       8.097  29.119  57.884  1.00  0.00     0.153 C 
BRANCH   6   7
HETATM    7  C   UNL     1       7.634  30.277  58.631  1.00  0.00     0.018 A 
HETATM    8  C   UNL     1       8.127  30.824  59.864  1.00  0.00     0.004 A 
HETATM    9  C   UNL     1       7.328  31.921  60.184  1.00  0.00     0.043 A 
HETATM   10  C   UNL     1       9.170  30.482  60.752  1.00  0.00     0.014 A 
HETATM   11  C   UNL     1       7.515  32.690  61.340  1.00  0.00     0.030 A 
HETATM   12  N   UNL     1       6.393  32.048  59.186  1.00  0.00    -0.358 N 
HETATM   13  C   UNL     1       8.554  32.327  62.201  1.00  0.00     0.002 A 
HETATM   14  C   UNL     1       9.372  31.240  61.913  1.00  0.00     0.001 A 
HETATM   15  H   UNL     1       5.681  32.764  59.165  1.00  0.00     0.166 HD
HETATM   16  C   UNL     1       6.555  31.064  58.243  1.00  0.00     0.018 A 
HETATM   17  C   UNL     1       5.659  30.975  57.060  1.00  0.00     0.069 C 
ENDBRANCH   6   7
ENDBRANCH   2   5
BRANCH   1  18
HETATM   18  C   UNL     1       8.164  24.608  56.539  1.00  0.00     0.280 C 
BRANCH  18  19
HETATM   19  O   UNL     1       7.750  24.348  55.201  1.00  0.00    -0.342 OA
BRANCH  19  20
HETATM   20  C   UNL     1       7.825  23.034  54.813  1.00  0.00     0.075 A 
HETATM   21  C   UNL     1       7.931  22.786  53.434  1.00  0.00    -0.029 A 
HETATM   22  C   UNL     1       7.883  23.900  52.425  1.00  0.00     0.051 C 
HETATM   23  C   UNL     1       8.004  21.458  52.982  1.00  0.00     0.009 A 
HETATM   24  C   UNL     1       8.011  20.398  53.887  1.00  0.00     0.001 A 
HETATM   25  C   UNL     1       7.939  20.651  55.252  1.00  0.00     0.003 A 
HETATM   26  C   UNL     1       7.849  21.965  55.716  1.00  0.00     0.037 A 
ENDBRANCH  19  20
ENDBRANCH  18  19
ENDBRANCH   1  18
TORSDOF 5
ENDMDL
MODEL 3
REMARK VINA RESULT:      -9.4      2.350      8.938
REMARK  5 active torsions:
REMARK  status: ('A' for Active; 'I' for Inactive)
REMARK    1  A    between atoms: C_3  and  O_4 
REMARK    2  A    between atoms: O_4  and  C_5 
REMARK    3  A    between atoms: C_5  and  C_6 
REMARK       I    between atoms: C_6  and  N_7 
REMARK    4  A    between atoms: N_7  and  N_8 
REMARK    5  A    between atoms: C_9  and  C_10 
ROOT
HETATM    1  C   UNL     1       5.886  27.797  56.170  1.00  0.00     0.261 C 
HETATM    2  N   UNL     1       6.443  26.628  56.686  1.00  0.00    -0.246 N 
HETATM    3  O   UNL     1       5.241  27.880  55.126  1.00  0.00    -0.269 OA
HETATM    4  H   UNL     1       7.144  26.732  57.415  1.00  0.00     0.192 HD
ENDROOT
BRANCH   2   5
HETATM    5  N   UNL     1       6.528  25.446  55.984  1.00  0.00    -0.184 NA
HETATM    6  C   UNL     1       7.548  25.297  55.200  1.00  0.00     0.153 C 
BRANCH   6   7
HETATM    7  C   UNL     1       7.753  24.046  54.489  1.00  0.00     0.018 A 
HETATM    8  C   UNL     1       7.970  22.726  55.010  1.00  0.00     0.004 A 
HETATM    9  C   UNL     1       8.140  21.869  53.922  1.00  0.00     0.043 A 
HETATM   10  C   UNL     1       8.055  22.173  56.307  1.00  0.00     0.014 A 
HETATM   11  C   UNL     1       8.390  20.498  54.062  1.00  0.00     0.030 A 
HETATM   12  N   UNL     1       8.023  22.630  52.785  1.00  0.00    -0.358 N 
HETATM   13  C   UNL     1       8.470  19.981  55.357  1.00  0.00     0.002 A 
HETATM   14  C   UNL     1       8.304  20.804  56.466  1.00  0.00     0.001 A 
HETATM   15  H   UNL     1       8.105  22.262  51.847  1.00  0.00     0.166 HD
HETATM   16  C   UNL     1       7.795  23.945  53.102  1.00  0.00     0.018 A 
HETATM   17  C   UNL     1       7.639  24.978  52.045  1.00  0.00     0.069 C 
ENDBRANCH   6   7
ENDBRANCH   2   5
BRANCH   1  18
HETATM   18  C   UNL     1       6.240  29.037  56.986  1.00  0.00     0.280 C 
BRANCH  18  19
HETATM   19  O   UNL     1       7.226  28.731  57.967  1.00  0.00    -0.342 OA
BRANCH  19  20
HETATM   20  C   UNL     1       8.446  29.328  57.773  1.00  0.00     0.075 A 
HETATM   21  C   UNL     1       8.738  30.447  58.572  1.00  0.00    -0.029 A 
HETATM   22  C   UNL     1       7.731  31.014  59.534  1.00  0.00     0.051 C 
HETATM   23  C   UNL     1       9.970  31.101  58.409  1.00  0.00     0.009 A 
HETATM   24  C   UNL     1      10.912  30.628  57.498  1.00  0.00     0.001 A 
HETATM   25  C   UNL     1      10.631  29.500  56.734  1.00  0.00     0.003 A 
HETATM   26  C   UNL     1       9.404  28.849  56.872  1.00  0.00     0.037 A 
ENDBRANCH  19  20
ENDBRANCH  18  19
ENDBRANCH   1  18
TORSDOF 5
ENDMDL
MODEL 4
REMARK VINA RESULT:      -9.1      2.214      3.144
REMARK  5 active torsions:
REMARK  status: ('A' for Active; 'I' for Inactive)
REMARK    1  A    between atoms: C_3  and  O_4 
REMARK    2  A    between atoms: O_4  and  C_5 
REMARK    3  A    between atoms: C_5  and  C_6 
REMARK       I    between atoms: C_6  and  N_7 
REMARK    4  A    between atoms: N_7  and  N_8 
REMARK    5  A    between atoms: C_9  and  C_10 
ROOT
HETATM    1  C   UNL     1       6.697  25.974  53.112  1.00  0.00     0.261 C 
HETATM    2  N   UNL     1       7.750  26.761  53.577  1.00  0.00    -0.246 N 
HETATM    3  O   UNL     1       5.502  26.228  53.248  1.00  0.00    -0.269 OA
HETATM    4  H   UNL     1       8.670  26.329  53.612  1.00  0.00     0.192 HD
ENDROOT
BRANCH   2   5
HETATM    5  N   UNL     1       7.590  27.820  54.441  1.00  0.00    -0.184 NA
HETATM    6  C   UNL     1       7.693  27.571  55.708  1.00  0.00     0.153 C 
BRANCH   6   7
HETATM    7  C   UNL     1       7.618  28.650  56.679  1.00  0.00     0.018 A 
HETATM    8  C   UNL     1       8.654  29.523  57.153  1.00  0.00     0.004 A 
HETATM    9  C   UNL     1       8.085  30.372  58.103  1.00  0.00     0.043 A 
HETATM   10  C   UNL     1      10.032  29.668  56.878  1.00  0.00     0.014 A 
HETATM   11  C   UNL     1       8.815  31.349  58.789  1.00  0.00     0.030 A 
HETATM   12  N   UNL     1       6.756  30.038  58.199  1.00  0.00    -0.358 N 
HETATM   13  C   UNL     1      10.176  31.468  58.497  1.00  0.00     0.002 A 
HETATM   14  C   UNL     1      10.779  30.641  57.555  1.00  0.00     0.001 A 
HETATM   15  H   UNL     1       6.101  30.495  58.819  1.00  0.00     0.166 HD
HETATM   16  C   UNL     1       6.454  29.000  57.355  1.00  0.00     0.018 A 
HETATM   17  C   UNL     1       5.078  28.444  57.277  1.00  0.00     0.069 C 
ENDBRANCH   6   7
ENDBRANCH   2   5
BRANCH   1  18
HETATM   18  C   UNL     1       7.165  24.666  52.479  1.00  0.00     0.280 C 
BRANCH  18  19
HETATM   19  O   UNL     1       8.325  24.172  53.141  1.00  0.00    -0.342 OA
BRANCH  19  20
HETATM   20  C   UNL     1       8.204  22.909  53.665  1.00  0.00     0.075 A 
HETATM   21  C   UNL     1       8.218  22.801  55.066  1.00  0.00    -0.029 A 
HETATM   22  C   UNL     1       8.438  23.998  55.949  1.00  0.00     0.051 C 
HETATM   23  C   UNL     1       8.104  21.531  55.655  1.00  0.00     0.009 A 
HETATM   24  C   UNL     1       7.939  20.393  54.866  1.00  0.00     0.001 A 
HETATM   25  C   UNL     1       7.892  20.511  53.481  1.00  0.00     0.003 A 
HETATM   26  C   UNL     1       8.021  21.765  52.880  1.00  0.00     0.037 A 
ENDBRANCH  19  20
ENDBRANCH  18  19
ENDBRANCH   1  18
TORSDOF 5
ENDMDL
MODEL 5
REMARK VINA RESULT:      -9.0      6.048      9.709
REMARK  5 active torsions:
REMARK  status: ('A' for Active; 'I' for Inactive)
REMARK    1  A    between atoms: C_3  and  O_4 
REMARK    2  A    between atoms: O_4  and  C_5 
REMARK    3  A    between atoms: C_5  and  C_6 
REMARK       I    between atoms: C_6  and  N_7 
REMARK    4  A    between atoms: N_7  and  N_8 
REMARK    5  A    between atoms: C_9  and  C_10 
ROOT
HETATM    1  C   UNL     1       5.264  27.169  51.132  1.00  0.00     0.261 C 
HETATM    2  N   UNL     1       6.157  26.101  51.044  1.00  0.00    -0.246 N 
HETATM    3  O   UNL     1       4.659  27.512  52.146  1.00  0.00    -0.269 OA
HETATM    4  H   UNL     1       6.401  25.778  50.112  1.00  0.00     0.192 HD
ENDROOT
BRANCH   2   5
HETATM    5  N   UNL     1       6.316  25.154  52.031  1.00  0.00    -0.184 NA
HETATM    6  C   UNL     1       7.331  25.293  52.824  1.00  0.00     0.153 C 
BRANCH   6   7
HETATM    7  C   UNL     1       7.522  24.383  53.941  1.00  0.00     0.018 A 
HETATM    8  C   UNL     1       7.745  22.964  53.933  1.00  0.00     0.004 A 
HETATM    9  C   UNL     1       7.837  22.548  55.261  1.00  0.00     0.043 A 
HETATM   10  C   UNL     1       7.863  21.985  52.923  1.00  0.00     0.014 A 
HETATM   11  C   UNL     1       8.038  21.212  55.630  1.00  0.00     0.030 A 
HETATM   12  N   UNL     1       7.686  23.664  56.048  1.00  0.00    -0.358 N 
HETATM   13  C   UNL     1       8.150  20.266  54.609  1.00  0.00     0.002 A 
HETATM   14  C   UNL     1       8.065  20.644  53.273  1.00  0.00     0.001 A 
HETATM   15  H   UNL     1       7.708  23.652  57.058  1.00  0.00     0.166 HD
HETATM   16  C   UNL     1       7.489  24.779  55.274  1.00  0.00     0.018 A 
HETATM   17  C   UNL     1       7.289  26.119  55.887  1.00  0.00     0.069 C 
ENDBRANCH   6   7
ENDBRANCH   2   5
BRANCH   1  18
HETATM   18  C   UNL     1       5.010  27.846  49.788  1.00  0.00     0.280 C 
BRANCH  18  19
HETATM   19  O   UNL     1       4.417  26.934  48.868  1.00  0.00    -0.342 OA
BRANCH  19  20
HETATM   20  C   UNL     1       3.267  27.378  48.267  1.00  0.00     0.075 A 
HETATM   21  C   UNL     1       2.522  26.430  47.544  1.00  0.00    -0.029 A 
HETATM   22  C   UNL     1       3.004  25.016  47.368  1.00  0.00     0.051 C 
HETATM   23  C   UNL     1       1.340  26.833  46.903  1.00  0.00     0.009 A 
HETATM   24  C   UNL     1       0.884  28.146  47.011  1.00  0.00     0.001 A 
HETATM   25  C   UNL     1       1.607  29.072  47.756  1.00  0.00     0.003 A 
HETATM   26  C   UNL     1       2.794  28.690  48.384  1.00  0.00     0.037 A 
ENDBRANCH  19  20
ENDBRANCH  18  19
ENDBRANCH   1  18
TORSDOF 5
ENDMDL
MODEL 6
REMARK VINA RESULT:      -8.7      6.531      9.086
REMARK  5 active torsions:
REMARK  status: ('A' for Active; 'I' for Inactive)
REMARK    1  A    between atoms: C_3  and  O_4 
REMARK    2  A    between atoms: O_4  and  C_5 
REMARK    3  A    between atoms: C_5  and  C_6 
REMARK       I    between atoms: C_6  and  N_7 
REMARK    4  A    between atoms: N_7  and  N_8 
REMARK    5  A    between atoms: C_9  and  C_10 
ROOT
HETATM    1  C   UNL     1       6.526  24.818  52.733  1.00  0.00     0.261 C 
HETATM    2  N   UNL     1       6.400  25.489  51.517  1.00  0.00    -0.246 N 
HETATM    3  O   UNL     1       5.595  24.479  53.461  1.00  0.00    -0.269 OA
HETATM    4  H   UNL     1       7.239  25.918  51.136  1.00  0.00     0.192 HD
ENDROOT
BRANCH   2   5
HETATM    5  N   UNL     1       5.225  26.054  51.073  1.00  0.00    -0.184 NA
HETATM    6  C   UNL     1       5.314  27.176  50.433  1.00  0.00     0.153 C 
BRANCH   6   7
HETATM    7  C   UNL     1       4.129  27.793  49.861  1.00  0.00     0.018 A 
HETATM    8  C   UNL     1       3.292  27.338  48.786  1.00  0.00     0.004 A 
HETATM    9  C   UNL     1       2.298  28.298  48.594  1.00  0.00     0.043 A 
HETATM   10  C   UNL     1       3.290  26.205  47.943  1.00  0.00     0.014 A 
HETATM   11  C   UNL     1       1.310  28.186  47.608  1.00  0.00     0.030 A 
HETATM   12  N   UNL     1       2.511  29.292  49.517  1.00  0.00    -0.358 N 
HETATM   13  C   UNL     1       1.335  27.056  46.788  1.00  0.00     0.002 A 
HETATM   14  C   UNL     1       2.309  26.077  46.951  1.00  0.00     0.001 A 
HETATM   15  H   UNL     1       1.936  30.119  49.601  1.00  0.00     0.166 HD
HETATM   16  C   UNL     1       3.612  29.012  50.286  1.00  0.00     0.018 A 
HETATM   17  C   UNL     1       4.062  29.940  51.356  1.00  0.00     0.069 C 
ENDBRANCH   6   7
ENDBRANCH   2   5
BRANCH   1  18
HETATM   18  C   UNL     1       7.979  24.616  53.154  1.00  0.00     0.280 C 
BRANCH  18  19
HETATM   19  O   UNL     1       8.349  23.245  53.046  1.00  0.00    -0.342 OA
BRANCH  19  20
HETATM   20  C   UNL     1       8.343  22.545  54.227  1.00  0.00     0.075 A 
HETATM   21  C   UNL     1       8.301  21.143  54.132  1.00  0.00    -0.029 A 
HETATM   22  C   UNL     1       8.185  20.445  52.805  1.00  0.00     0.051 C 
HETATM   23  C   UNL     1       8.285  20.378  55.309  1.00  0.00     0.009 A 
HETATM   24  C   UNL     1       8.350  20.993  56.558  1.00  0.00     0.001 A 
HETATM   25  C   UNL     1       8.426  22.379  56.645  1.00  0.00     0.003 A 
HETATM   26  C   UNL     1       8.425  23.155  55.484  1.00  0.00     0.037 A 
ENDBRANCH  19  20
ENDBRANCH  18  19
ENDBRANCH   1  18
TORSDOF 5
ENDMDL
MODEL 7
REMARK VINA RESULT:      -8.6      5.320      7.926
REMARK  5 active torsions:
REMARK  status: ('A' for Active; 'I' for Inactive)
REMARK    1  A    between atoms: C_3  and  O_4 
REMARK    2  A    between atoms: O_4  and  C_5 
REMARK    3  A    between atoms: C_5  and  C_6 
REMARK       I    between atoms: C_6  and  N_7 
REMARK    4  A    between atoms: N_7  and  N_8 
REMARK    5  A    between atoms: C_9  and  C_10 
ROOT
HETATM    1  C   UNL     1       5.532  25.694  55.563  1.00  0.00     0.261 C 
HETATM    2  N   UNL     1       5.121  25.368  54.272  1.00  0.00    -0.246 N 
HETATM    3  O   UNL     1       5.257  26.734  56.159  1.00  0.00    -0.269 OA
HETATM    4  H   UNL     1       5.605  24.601  53.812  1.00  0.00     0.192 HD
ENDROOT
BRANCH   2   5
HETATM    5  N   UNL     1       4.528  26.262  53.409  1.00  0.00    -0.184 NA
HETATM    6  C   UNL     1       5.277  26.777  52.486  1.00  0.00     0.153 C 
BRANCH   6   7
HETATM    7  C   UNL     1       4.707  27.664  51.486  1.00  0.00     0.018 A 
HETATM    8  C   UNL     1       4.434  27.419  50.098  1.00  0.00     0.004 A 
HETATM    9  C   UNL     1       3.914  28.596  49.559  1.00  0.00     0.043 A 
HETATM   10  C   UNL     1       4.593  26.311  49.237  1.00  0.00     0.014 A 
HETATM   11  C   UNL     1       3.549  28.724  48.213  1.00  0.00     0.030 A 
HETATM   12  N   UNL     1       3.862  29.519  50.575  1.00  0.00    -0.358 N 
HETATM   13  C   UNL     1       3.719  27.611  47.386  1.00  0.00     0.002 A 
HETATM   14  C   UNL     1       4.233  26.420  47.888  1.00  0.00     0.001 A 
HETATM   15  H   UNL     1       3.526  30.466  50.464  1.00  0.00     0.166 HD
HETATM   16  C   UNL     1       4.340  28.981  51.743  1.00  0.00     0.018 A 
HETATM   17  C   UNL     1       4.398  29.782  52.994  1.00  0.00     0.069 C 
ENDBRANCH   6   7
ENDBRANCH   2   5
BRANCH   1  18
HETATM   18  C   UNL     1       6.475  24.657  56.169  1.00  0.00     0.280 C 
BRANCH  18  19
HETATM   19  O   UNL     1       7.573  24.405  55.297  1.00  0.00    -0.342 OA
BRANCH  19  20
HETATM   20  C   UNL     1       7.696  23.104  54.877  1.00  0.00     0.075 A 
HETATM   21  C   UNL     1       7.896  22.900  53.501  1.00  0.00    -0.029 A 
HETATM   22  C   UNL     1       7.893  24.043  52.524  1.00  0.00     0.051 C 
HETATM   23  C   UNL     1       8.021  21.588  53.015  1.00  0.00     0.009 A 
HETATM   24  C   UNL     1       7.989  20.501  53.887  1.00  0.00     0.001 A 
HETATM   25  C   UNL     1       7.824  20.711  55.253  1.00  0.00     0.003 A 
HETATM   26  C   UNL     1       7.681  22.009  55.748  1.00  0.00     0.037 A 
ENDBRANCH  19  20
ENDBRANCH  18  19
ENDBRANCH   1  18
TORSDOF 5
ENDMDL
MODEL 8
REMARK VINA RESULT:      -8.6      2.468      9.499
REMARK  5 active torsions:
REMARK  status: ('A' for Active; 'I' for Inactive)
REMARK    1  A    between atoms: C_3  and  O_4 
REMARK    2  A    between atoms: O_4  and  C_5 
REMARK    3  A    between atoms: C_5  and  C_6 
REMARK       I    between atoms: C_6  and  N_7 
REMARK    4  A    between atoms: N_7  and  N_8 
REMARK    5  A    between atoms: C_9  and  C_10 
ROOT
HETATM    1  C   UNL     1       8.008  29.198  57.478  1.00  0.00     0.261 C 
HETATM    2  N   UNL     1       7.060  28.692  56.590  1.00  0.00    -0.246 N 
HETATM    3  O   UNL     1       9.201  28.900  57.495  1.00  0.00    -0.269 OA
HETATM    4  H   UNL     1       6.081  28.831  56.829  1.00  0.00     0.192 HD
ENDROOT
BRANCH   2   5
HETATM    5  N   UNL     1       7.291  27.628  55.748  1.00  0.00    -0.184 NA
HETATM    6  C   UNL     1       6.347  26.748  55.636  1.00  0.00     0.153 C 
BRANCH   6   7
HETATM    7  C   UNL     1       6.481  25.640  54.705  1.00  0.00     0.018 A 
HETATM    8  C   UNL     1       7.352  24.500  54.764  1.00  0.00     0.004 A 
HETATM    9  C   UNL     1       7.123  23.738  53.618  1.00  0.00     0.043 A 
HETATM   10  C   UNL     1       8.331  24.046  55.675  1.00  0.00     0.014 A 
HETATM   11  C   UNL     1       7.816  22.554  53.337  1.00  0.00     0.030 A 
HETATM   12  N   UNL     1       6.146  24.378  52.895  1.00  0.00    -0.358 N 
HETATM   13  C   UNL     1       8.779  22.131  54.257  1.00  0.00     0.002 A 
HETATM   14  C   UNL     1       9.034  22.864  55.411  1.00  0.00     0.001 A 
HETATM   15  H   UNL     1       5.785  24.043  52.012  1.00  0.00     0.166 HD
HETATM   16  C   UNL     1       5.750  25.529  53.527  1.00  0.00     0.018 A 
HETATM   17  C   UNL     1       4.706  26.411  52.942  1.00  0.00     0.069 C 
ENDBRANCH   6   7
ENDBRANCH   2   5
BRANCH   1  18
HETATM   18  C   UNL     1       7.403  30.115  58.538  1.00  0.00     0.280 C 
BRANCH  18  19
HETATM   19  O   UNL     1       8.338  30.361  59.585  1.00  0.00    -0.342 OA
BRANCH  19  20
HETATM   20  C   UNL     1       7.922  31.255  60.539  1.00  0.00     0.075 A 
HETATM   21  C   UNL     1       8.593  31.223  61.773  1.00  0.00    -0.029 A 
HETATM   22  C   UNL     1       9.660  30.204  62.065  1.00  0.00     0.051 C 
HETATM   23  C   UNL     1       8.203  32.112  62.788  1.00  0.00     0.009 A 
HETATM   24  C   UNL     1       7.190  33.043  62.566  1.00  0.00     0.001 A 
HETATM   25  C   UNL     1       6.551  33.093  61.331  1.00  0.00     0.003 A 
HETATM   26  C   UNL     1       6.917  32.204  60.319  1.00  0.00     0.037 A 
ENDBRANCH  19  20
ENDBRANCH  18  19
ENDBRANCH   1  18
TORSDOF 5
ENDMDL
MODEL 9
REMARK VINA RESULT:      -8.4      6.665      8.833
REMARK  5 active torsions:
REMARK  status: ('A' for Active; 'I' for Inactive)
REMARK    1  A    between atoms: C_3  and  O_4 
REMARK    2  A    between atoms: O_4  and  C_5 
REMARK    3  A    between atoms: C_5  and  C_6 
REMARK       I    between atoms: C_6  and  N_7 
REMARK    4  A    between atoms: N_7  and  N_8 
REMARK    5  A    between atoms: C_9  and  C_10 
ROOT
HETATM    1  C   UNL     1       7.141  25.076  52.559  1.00  0.00     0.261 C 
HETATM    2  N   UNL     1       6.121  26.017  52.424  1.00  0.00    -0.246 N 
HETATM    3  O   UNL     1       8.028  24.861  51.734  1.00  0.00    -0.269 OA
HETATM    4  H   UNL     1       5.326  25.932  53.053  1.00  0.00     0.192 HD
ENDROOT
BRANCH   2   5
HETATM    5  N   UNL     1       5.845  26.683  51.251  1.00  0.00    -0.184 NA
HETATM    6  C   UNL     1       4.849  26.249  50.545  1.00  0.00     0.153 C 
BRANCH   6   7
HETATM    7  C   UNL     1       4.443  26.948  49.338  1.00  0.00     0.018 A 
HETATM    8  C   UNL     1       4.654  28.317  48.962  1.00  0.00     0.004 A 
HETATM    9  C   UNL     1       4.047  28.509  47.720  1.00  0.00     0.043 A 
HETATM   10  C   UNL     1       5.291  29.424  49.565  1.00  0.00     0.014 A 
HETATM   11  C   UNL     1       4.043  29.742  47.055  1.00  0.00     0.030 A 
HETATM   12  N   UNL     1       3.497  27.307  47.348  1.00  0.00    -0.358 N 
HETATM   13  C   UNL     1       4.680  30.818  47.677  1.00  0.00     0.002 A 
HETATM   14  C   UNL     1       5.297  30.664  48.914  1.00  0.00     0.001 A 
HETATM   15  H   UNL     1       2.991  27.159  46.486  1.00  0.00     0.166 HD
HETATM   16  C   UNL     1       3.718  26.354  48.310  1.00  0.00     0.018 A 
HETATM   17  C   UNL     1       3.213  24.965  48.150  1.00  0.00     0.069 C 
ENDBRANCH   6   7
ENDBRANCH   2   5
BRANCH   1  18
HETATM   18  C   UNL     1       7.007  24.228  53.821  1.00  0.00     0.280 C 
BRANCH  18  19
HETATM   19  O   UNL     1       7.154  22.844  53.517  1.00  0.00    -0.342 OA
BRANCH  19  20
HETATM   20  C   UNL     1       7.708  22.084  54.516  1.00  0.00     0.075 A 
HETATM   21  C   UNL     1       8.317  20.877  54.130  1.00  0.00    -0.029 A 
HETATM   22  C   UNL     1       8.293  20.401  52.704  1.00  0.00     0.051 C 
HETATM   23  C   UNL     1       8.893  20.057  55.114  1.00  0.00     0.009 A 
HETATM   24  C   UNL     1       8.898  20.447  56.452  1.00  0.00     0.001 A 
HETATM   25  C   UNL     1       8.323  21.659  56.823  1.00  0.00     0.003 A 
HETATM   26  C   UNL     1       7.732  22.477  55.859  1.00  0.00     0.037 A 
ENDBRANCH  19  20
ENDBRANCH  18  19
ENDBRANCH   1  18
TORSDOF 5
ENDMDL
MODEL 10
REMARK VINA RESULT:      -8.4      1.734      2.555
REMARK  5 active torsions:
REMARK  status: ('A' for Active; 'I' for Inactive)
REMARK    1  A    between atoms: C_3  and  O_4 
REMARK    2  A    between atoms: O_4  and  C_5 
REMARK    3  A    between atoms: C_5  and  C_6 
REMARK       I    between atoms: C_6  and  N_7 
REMARK    4  A    between atoms: N_7  and  N_8 
REMARK    5  A    between atoms: C_9  and  C_10 
ROOT
HETATM    1  C   UNL     1       6.328  26.542  55.900  1.00  0.00     0.261 C 
HETATM    2  N   UNL     1       7.501  27.293  55.854  1.00  0.00    -0.246 N 
HETATM    3  O   UNL     1       5.461  26.624  56.768  1.00  0.00    -0.269 OA
HETATM    4  H   UNL     1       8.235  26.967  55.230  1.00  0.00     0.192 HD
ENDROOT
BRANCH   2   5
HETATM    5  N   UNL     1       7.949  28.077  56.893  1.00  0.00    -0.184 NA
HETATM    6  C   UNL     1       8.346  29.275  56.601  1.00  0.00     0.153 C 
BRANCH   6   7
HETATM    7  C   UNL     1       8.755  30.191  57.652  1.00  0.00     0.018 A 
HETATM    8  C   UNL     1       7.948  30.970  58.548  1.00  0.00     0.004 A 
HETATM    9  C   UNL     1       8.813  31.713  59.353  1.00  0.00     0.043 A 
HETATM   10  C   UNL     1       6.559  31.131  58.746  1.00  0.00     0.014 A 
HETATM   11  C   UNL     1       8.364  32.602  60.337  1.00  0.00     0.030 A 
HETATM   12  N   UNL     1      10.094  31.395  58.972  1.00  0.00    -0.358 N 
HETATM   13  C   UNL     1       6.985  32.741  60.508  1.00  0.00     0.002 A 
HETATM   14  C   UNL     1       6.092  32.016  59.726  1.00  0.00     0.001 A 
HETATM   15  H   UNL     1      10.923  31.791  59.391  1.00  0.00     0.166 HD
HETATM   16  C   UNL     1      10.083  30.485  57.946  1.00  0.00     0.018 A 
HETATM   17  C   UNL     1      11.347  29.983  57.346  1.00  0.00     0.069 C 
ENDBRANCH   6   7
ENDBRANCH   2   5
BRANCH   1  18
HETATM   18  C   UNL     1       6.247  25.493  54.793  1.00  0.00     0.280 C 
BRANCH  18  19
HETATM   19  O   UNL     1       7.542  25.208  54.273  1.00  0.00    -0.342 OA
BRANCH  19  20
HETATM   20  C   UNL     1       7.844  23.874  54.160  1.00  0.00     0.075 A 
HETATM   21  C   UNL     1       8.494  23.276  55.253  1.00  0.00    -0.029 A 
HETATM   22  C   UNL     1       8.914  24.077  56.455  1.00  0.00     0.051 C 
HETATM   23  C   UNL     1       8.832  21.915  55.188  1.00  0.00     0.009 A 
HETATM   24  C   UNL     1       8.494  21.151  54.072  1.00  0.00     0.001 A 
HETATM   25  C   UNL     1       7.820  21.740  53.007  1.00  0.00     0.003 A 
HETATM   26  C   UNL     1       7.493  23.097  53.050  1.00  0.00     0.037 A 
ENDBRANCH  19  20
ENDBRANCH  18  19
ENDBRANCH   1  18
TORSDOF 5
ENDMDL
