MODEL 1
REMARK VINA RESULT:      -7.7      0.000      0.000
REMARK  3 active torsions:
REMARK  status: ('A' for Active; 'I' for Inactive)
REMARK    1  A    between atoms: N_6  and  C_7 
REMARK    2  A    between atoms: C_10  and  S_11 
REMARK    3  A    between atoms: S_11  and  N_12 
ROOT
HETATM    1  C   UNL     1       7.614  29.707  57.850  1.00  0.00     0.030 A 
HETATM    2  C   UNL     1       8.418  28.587  57.578  1.00  0.00     0.031 A 
HETATM    3  C   UNL     1       7.890  27.409  57.026  1.00  0.00     0.027 A 
HETATM    4  C   UNL     1       6.527  27.319  56.762  1.00  0.00     0.079 A 
HETATM    5  C   UNL     1       5.694  28.399  57.038  1.00  0.00     0.027 A 
HETATM    6  C   UNL     1       6.236  29.564  57.594  1.00  0.00     0.031 A 
ENDROOT
BRANCH   4   7
HETATM    7  S   UNL     1       5.867  25.872  55.961  1.00  0.00     0.260 S 
HETATM    8  O   UNL     1       5.249  25.072  56.996  1.00  0.00    -0.200 OA
HETATM    9  O   UNL     1       5.101  26.341  54.825  1.00  0.00    -0.200 OA
BRANCH   7  10
HETATM   10  N   UNL     1       7.238  25.078  55.401  1.00  0.00    -0.307 N 
HETATM   11  C   UNL     1       7.755  23.886  56.095  1.00  0.00     0.135 C 
HETATM   12  C   UNL     1       7.519  22.624  55.274  1.00  0.00     0.021 C 
HETATM   13  C   UNL     1       8.064  22.772  53.858  1.00  0.00     0.003 C 
HETATM   14  C   UNL     1       7.471  24.003  53.183  1.00  0.00     0.021 C 
HETATM   15  C   UNL     1       7.701  25.261  54.013  1.00  0.00     0.135 C 
ENDBRANCH   7  10
ENDBRANCH   4   7
BRANCH   1  16
HETATM   16  N   UNL     1       8.116  30.902  58.380  1.00  0.00    -0.378 N 
HETATM   17  C   UNL     1       9.396  30.830  59.123  1.00  0.00     0.150 C 
HETATM   18  C   UNL     1       9.138  30.560  60.621  1.00  0.00     0.254 C 
HETATM   19  N   UNL     1       8.206  31.630  61.201  1.00  0.00    -0.072 N 
HETATM   20  C   UNL     1       7.958  31.421  62.664  1.00  0.00     0.269 C 
HETATM   21  H   UNL     1       8.685  32.533  61.093  1.00  0.00     0.279 HD
HETATM   22  C   UNL     1       6.902  31.716  60.403  1.00  0.00     0.254 C 
HETATM   23  C   UNL     1       7.199  31.936  58.902  1.00  0.00     0.150 C 
ENDBRANCH   1  16
TORSDOF 3
ENDMDL
MODEL 2
REMARK VINA RESULT:      -7.4      2.995      7.952
REMARK  3 active torsions:
REMARK  status: ('A' for Active; 'I' for Inactive)
REMARK    1  A    between atoms: N_6  and  C_7 
REMARK    2  A    between atoms: C_10  and  S_11 
REMARK    3  A    between atoms: S_11  and  N_12 
ROOT
HETATM    1  C   UNL     1       5.957  27.785  56.871  1.00  0.00     0.030 A 
HETATM    2  C   UNL     1       5.134  28.915  57.020  1.00  0.00     0.031 A 
HETATM    3  C   UNL     1       5.584  30.085  57.650  1.00  0.00     0.027 A 
HETATM    4  C   UNL     1       6.870  30.136  58.178  1.00  0.00     0.079 A 
HETATM    5  C   UNL     1       7.708  29.030  58.071  1.00  0.00     0.027 A 
HETATM    6  C   UNL     1       7.242  27.868  57.444  1.00  0.00     0.031 A 
ENDROOT
BRANCH   4   7
HETATM    7  S   UNL     1       7.487  31.651  58.880  1.00  0.00     0.260 S 
HETATM    8  O   UNL     1       8.891  31.725  58.538  1.00  0.00    -0.200 OA
HETATM    9  O   UNL     1       6.568  32.697  58.481  1.00  0.00    -0.200 OA
BRANCH   7  10
HETATM   10  N   UNL     1       7.340  31.402  60.536  1.00  0.00    -0.307 N 
HETATM   11  C   UNL     1       8.437  30.791  61.306  1.00  0.00     0.135 C 
HETATM   12  C   UNL     1       9.114  31.816  62.208  1.00  0.00     0.021 C 
HETATM   13  C   UNL     1       8.100  32.539  63.087  1.00  0.00     0.003 C 
HETATM   14  C   UNL     1       7.009  33.173  62.232  1.00  0.00     0.021 C 
HETATM   15  C   UNL     1       6.342  32.147  61.324  1.00  0.00     0.135 C 
ENDBRANCH   7  10
ENDBRANCH   4   7
BRANCH   1  16
HETATM   16  N   UNL     1       5.543  26.612  56.229  1.00  0.00    -0.378 N 
HETATM   17  C   UNL     1       5.566  25.360  57.021  1.00  0.00     0.150 C 
HETATM   18  C   UNL     1       6.936  24.659  56.885  1.00  0.00     0.254 C 
HETATM   19  N   UNL     1       7.257  24.401  55.409  1.00  0.00    -0.072 N 
HETATM   20  C   UNL     1       8.565  23.691  55.238  1.00  0.00     0.269 C 
HETATM   21  H   UNL     1       6.519  23.784  55.047  1.00  0.00     0.279 HD
HETATM   22  C   UNL     1       7.196  25.698  54.598  1.00  0.00     0.254 C 
HETATM   23  C   UNL     1       5.833  26.398  54.796  1.00  0.00     0.150 C 
ENDBRANCH   1  16
TORSDOF 3
ENDMDL
MODEL 3
REMARK VINA RESULT:      -7.2      4.924      7.114
REMARK  3 active torsions:
REMARK  status: ('A' for Active; 'I' for Inactive)
REMARK    1  A    between atoms: N_6  and  C_7 
REMARK    2  A    between atoms: C_10  and  S_11 
REMARK    3  A    between atoms: S_11  and  N_12 
ROOT
HETATM    1  C   UNL     1       5.171  28.056  52.551  1.00  0.00     0.030 A 
HETATM    2  C   UNL     1       4.603  26.831  52.940  1.00  0.00     0.031 A 
HETATM    3  C   UNL     1       5.212  25.996  53.889  1.00  0.00     0.027 A 
HETATM    4  C   UNL     1       6.432  26.361  54.449  1.00  0.00     0.079 A 
HETATM    5  C   UNL     1       7.038  27.555  54.074  1.00  0.00     0.027 A 
HETATM    6  C   UNL     1       6.420  28.374  53.121  1.00  0.00     0.031 A 
ENDROOT
BRANCH   4   7
HETATM    7  S   UNL     1       7.157  25.363  55.734  1.00  0.00     0.260 S 
HETATM    8  O   UNL     1       8.016  26.239  56.502  1.00  0.00    -0.200 OA
HETATM    9  O   UNL     1       6.070  24.646  56.365  1.00  0.00    -0.200 OA
BRANCH   7  10
HETATM   10  N   UNL     1       8.110  24.269  54.886  1.00  0.00    -0.307 N 
HETATM   11  C   UNL     1       8.591  23.033  55.527  1.00  0.00     0.135 C 
HETATM   12  C   UNL     1       7.879  21.808  54.965  1.00  0.00     0.021 C 
HETATM   13  C   UNL     1       7.967  21.763  53.444  1.00  0.00     0.003 C 
HETATM   14  C   UNL     1       7.430  23.055  52.840  1.00  0.00     0.021 C 
HETATM   15  C   UNL     1       8.138  24.277  53.412  1.00  0.00     0.135 C 
ENDBRANCH   7  10
ENDBRANCH   4   7
BRANCH   1  16
HETATM   16  N   UNL     1       4.576  28.919  51.623  1.00  0.00    -0.378 N 
HETATM   17  C   UNL     1       3.426  28.395  50.849  1.00  0.00     0.150 C 
HETATM   18  C   UNL     1       3.912  27.725  49.545  1.00  0.00     0.254 C 
HETATM   19  N   UNL     1       4.747  28.711  48.721  1.00  0.00    -0.072 N 
HETATM   20  C   UNL     1       5.210  28.107  47.429  1.00  0.00     0.269 C 
HETATM   21  H   UNL     1       4.134  29.503  48.492  1.00  0.00     0.279 HD
HETATM   22  C   UNL     1       5.912  29.269  49.544  1.00  0.00     0.254 C 
HETATM   23  C   UNL     1       5.395  29.886  50.864  1.00  0.00     0.150 C 
ENDBRANCH   1  16
TORSDOF 3
ENDMDL
MODEL 4
REMARK VINA RESULT:      -7.1      4.995      7.650
REMARK  3 active torsions:
REMARK  status: ('A' for Active; 'I' for Inactive)
REMARK    1  A    between atoms: N_6  and  C_7 
REMARK    2  A    between atoms: C_10  and  S_11 
REMARK    3  A    between atoms: S_11  and  N_12 
ROOT
HETATM    1  C   UNL     1       6.083  33.988  63.172  1.00  0.00     0.030 A 
HETATM    2  C   UNL     1       7.020  33.300  63.962  1.00  0.00     0.031 A 
HETATM    3  C   UNL     1       7.990  32.455  63.401  1.00  0.00     0.027 A 
HETATM    4  C   UNL     1       8.018  32.253  62.025  1.00  0.00     0.079 A 
HETATM    5  C   UNL     1       7.093  32.898  61.210  1.00  0.00     0.027 A 
HETATM    6  C   UNL     1       6.129  33.734  61.787  1.00  0.00     0.031 A 
ENDROOT
BRANCH   4   7
HETATM    7  S   UNL     1       9.310  31.270  61.294  1.00  0.00     0.260 S 
HETATM    8  O   UNL     1      10.542  32.011  61.467  1.00  0.00    -0.200 OA
HETATM    9  O   UNL     1       9.166  29.933  61.828  1.00  0.00    -0.200 OA
BRANCH   7  10
HETATM   10  N   UNL     1       8.910  31.251  59.662  1.00  0.00    -0.307 N 
HETATM   11  C   UNL     1       9.885  31.671  58.641  1.00  0.00     0.135 C 
HETATM   12  C   UNL     1      10.386  30.479  57.835  1.00  0.00     0.021 C 
HETATM   13  C   UNL     1       9.229  29.672  57.257  1.00  0.00     0.003 C 
HETATM   14  C   UNL     1       8.273  29.242  58.363  1.00  0.00     0.021 C 
HETATM   15  C   UNL     1       7.782  30.437  59.173  1.00  0.00     0.135 C 
ENDBRANCH   7  10
ENDBRANCH   4   7
BRANCH   1  16
HETATM   16  N   UNL     1       5.120  34.854  63.702  1.00  0.00    -0.378 N 
HETATM   17  C   UNL     1       4.026  34.248  64.498  1.00  0.00     0.150 C 
HETATM   18  C   UNL     1       2.836  33.876  63.588  1.00  0.00     0.254 C 
HETATM   19  N   UNL     1       2.355  35.106  62.811  1.00  0.00    -0.072 N 
HETATM   20  C   UNL     1       1.177  34.792  61.940  1.00  0.00     0.269 C 
HETATM   21  H   UNL     1       2.051  35.798  63.508  1.00  0.00     0.279 HD
HETATM   22  C   UNL     1       3.503  35.741  62.020  1.00  0.00     0.254 C 
HETATM   23  C   UNL     1       4.695  36.054  62.952  1.00  0.00     0.150 C 
ENDBRANCH   1  16
TORSDOF 3
ENDMDL
MODEL 5
REMARK VINA RESULT:      -7.1      5.401      8.563
REMARK  3 active torsions:
REMARK  status: ('A' for Active; 'I' for Inactive)
REMARK    1  A    between atoms: N_6  and  C_7 
REMARK    2  A    between atoms: C_10  and  S_11 
REMARK    3  A    between atoms: S_11  and  N_12 
ROOT
HETATM    1  C   UNL     1       5.094  27.487  50.152  1.00  0.00     0.030 A 
HETATM    2  C   UNL     1       4.929  26.141  50.524  1.00  0.00     0.031 A 
HETATM    3  C   UNL     1       5.234  25.683  51.815  1.00  0.00     0.027 A 
HETATM    4  C   UNL     1       5.747  26.566  52.759  1.00  0.00     0.079 A 
HETATM    5  C   UNL     1       5.946  27.902  52.424  1.00  0.00     0.027 A 
HETATM    6  C   UNL     1       5.642  28.342  51.130  1.00  0.00     0.031 A 
ENDROOT
BRANCH   4   7
HETATM    7  S   UNL     1       6.033  26.019  54.429  1.00  0.00     0.260 S 
HETATM    8  O   UNL     1       6.237  27.210  55.226  1.00  0.00    -0.200 OA
HETATM    9  O   UNL     1       4.974  25.084  54.746  1.00  0.00    -0.200 OA
BRANCH   7  10
HETATM   10  N   UNL     1       7.485  25.179  54.321  1.00  0.00    -0.307 N 
HETATM   11  C   UNL     1       8.022  24.449  55.482  1.00  0.00     0.135 C 
HETATM   12  C   UNL     1       7.920  22.942  55.281  1.00  0.00     0.021 C 
HETATM   13  C   UNL     1       8.553  22.513  53.963  1.00  0.00     0.003 C 
HETATM   14  C   UNL     1       7.937  23.280  52.799  1.00  0.00     0.021 C 
HETATM   15  C   UNL     1       8.032  24.787  53.009  1.00  0.00     0.135 C 
ENDBRANCH   7  10
ENDBRANCH   4   7
BRANCH   1  16
HETATM   16  N   UNL     1       4.778  27.977  48.880  1.00  0.00    -0.378 N 
HETATM   17  C   UNL     1       3.878  29.153  48.810  1.00  0.00     0.150 C 
HETATM   18  C   UNL     1       2.403  28.703  48.735  1.00  0.00     0.254 C 
HETATM   19  N   UNL     1       2.196  27.760  47.544  1.00  0.00    -0.072 N 
HETATM   20  C   UNL     1       0.767  27.327  47.417  1.00  0.00     0.269 C 
HETATM   21  H   UNL     1       2.436  28.292  46.698  1.00  0.00     0.279 HD
HETATM   22  C   UNL     1       3.155  26.568  47.612  1.00  0.00     0.254 C 
HETATM   23  C   UNL     1       4.616  27.054  47.738  1.00  0.00     0.150 C 
ENDBRANCH   1  16
TORSDOF 3
ENDMDL
MODEL 6
REMARK VINA RESULT:      -6.9      6.153      8.682
REMARK  3 active torsions:
REMARK  status: ('A' for Active; 'I' for Inactive)
REMARK    1  A    between atoms: N_6  and  C_7 
REMARK    2  A    between atoms: C_10  and  S_11 
REMARK    3  A    between atoms: S_11  and  N_12 
ROOT
HETATM    1  C   UNL     1       5.689  27.093  52.042  1.00  0.00     0.030 A 
HETATM    2  C   UNL     1       5.175  25.942  51.421  1.00  0.00     0.031 A 
HETATM    3  C   UNL     1       4.731  25.950  50.090  1.00  0.00     0.027 A 
HETATM    4  C   UNL     1       4.763  27.132  49.357  1.00  0.00     0.079 A 
HETATM    5  C   UNL     1       5.244  28.299  49.944  1.00  0.00     0.027 A 
HETATM    6  C   UNL     1       5.678  28.274  51.275  1.00  0.00     0.031 A 
ENDROOT
BRANCH   4   7
HETATM    7  S   UNL     1       4.305  27.128  47.637  1.00  0.00     0.260 S 
HETATM    8  O   UNL     1       5.354  27.830  46.928  1.00  0.00    -0.200 OA
HETATM    9  O   UNL     1       3.966  25.761  47.302  1.00  0.00    -0.200 OA
BRANCH   7  10
HETATM   10  N   UNL     1       2.906  28.059  47.603  1.00  0.00    -0.307 N 
HETATM   11  C   UNL     1       1.744  27.704  48.436  1.00  0.00     0.135 C 
HETATM   12  C   UNL     1       1.562  28.695  49.580  1.00  0.00     0.021 C 
HETATM   13  C   UNL     1       1.512  30.130  49.069  1.00  0.00     0.003 C 
HETATM   14  C   UNL     1       2.752  30.446  48.240  1.00  0.00     0.021 C 
HETATM   15  C   UNL     1       2.935  29.446  47.104  1.00  0.00     0.135 C 
ENDBRANCH   7  10
ENDBRANCH   4   7
BRANCH   1  16
HETATM   16  N   UNL     1       6.160  27.109  53.361  1.00  0.00    -0.378 N 
HETATM   17  C   UNL     1       7.598  26.819  53.572  1.00  0.00     0.150 C 
HETATM   18  C   UNL     1       7.821  25.304  53.770  1.00  0.00     0.254 C 
HETATM   19  N   UNL     1       6.963  24.789  54.931  1.00  0.00    -0.072 N 
HETATM   20  C   UNL     1       7.178  23.326  55.177  1.00  0.00     0.269 C 
HETATM   21  H   UNL     1       7.267  25.293  55.773  1.00  0.00     0.279 HD
HETATM   22  C   UNL     1       5.485  25.125  54.715  1.00  0.00     0.254 C 
HETATM   23  C   UNL     1       5.304  26.640  54.470  1.00  0.00     0.150 C 
ENDBRANCH   1  16
TORSDOF 3
ENDMDL
MODEL 7
REMARK VINA RESULT:      -6.8      5.235      9.795
REMARK  3 active torsions:
REMARK  status: ('A' for Active; 'I' for Inactive)
REMARK    1  A    between atoms: N_6  and  C_7 
REMARK    2  A    between atoms: C_10  and  S_11 
REMARK    3  A    between atoms: S_11  and  N_12 
ROOT
HETATM    1  C   UNL     1       7.076  32.281  59.990  1.00  0.00     0.030 A 
HETATM    2  C   UNL     1       8.008  32.414  61.033  1.00  0.00     0.031 A 
HETATM    3  C   UNL     1       7.627  32.797  62.328  1.00  0.00     0.027 A 
HETATM    4  C   UNL     1       6.293  33.088  62.599  1.00  0.00     0.079 A 
HETATM    5  C   UNL     1       5.343  32.990  61.587  1.00  0.00     0.027 A 
HETATM    6  C   UNL     1       5.741  32.612  60.299  1.00  0.00     0.031 A 
ENDROOT
BRANCH   4   7
HETATM    7  S   UNL     1       5.783  33.467  64.262  1.00  0.00     0.260 S 
HETATM    8  O   UNL     1       4.699  32.561  64.578  1.00  0.00    -0.200 OA
HETATM    9  O   UNL     1       6.986  33.498  65.067  1.00  0.00    -0.200 OA
BRANCH   7  10
HETATM   10  N   UNL     1       5.172  35.027  64.137  1.00  0.00    -0.307 N 
HETATM   11  C   UNL     1       5.985  36.111  63.558  1.00  0.00     0.135 C 
HETATM   12  C   UNL     1       5.458  36.524  62.189  1.00  0.00     0.021 C 
HETATM   13  C   UNL     1       3.972  36.859  62.244  1.00  0.00     0.003 C 
HETATM   14  C   UNL     1       3.182  35.691  62.824  1.00  0.00     0.021 C 
HETATM   15  C   UNL     1       3.720  35.274  64.188  1.00  0.00     0.135 C 
ENDBRANCH   7  10
ENDBRANCH   4   7
BRANCH   1  16
HETATM   16  N   UNL     1       7.424  31.881  58.694  1.00  0.00    -0.378 N 
HETATM   17  C   UNL     1       6.319  31.499  57.782  1.00  0.00     0.150 C 
HETATM   18  C   UNL     1       6.015  29.990  57.903  1.00  0.00     0.254 C 
HETATM   19  N   UNL     1       7.281  29.170  57.633  1.00  0.00    -0.072 N 
HETATM   20  C   UNL     1       7.018  27.696  57.708  1.00  0.00     0.269 C 
HETATM   21  H   UNL     1       7.576  29.384  56.673  1.00  0.00     0.279 HD
HETATM   22  C   UNL     1       8.422  29.598  58.560  1.00  0.00     0.254 C 
HETATM   23  C   UNL     1       8.666  31.120  58.451  1.00  0.00     0.150 C 
ENDBRANCH   1  16
TORSDOF 3
ENDMDL
MODEL 8
REMARK VINA RESULT:      -6.8      5.517      8.539
REMARK  3 active torsions:
REMARK  status: ('A' for Active; 'I' for Inactive)
REMARK    1  A    between atoms: N_6  and  C_7 
REMARK    2  A    between atoms: C_10  and  S_11 
REMARK    3  A    between atoms: S_11  and  N_12 
ROOT
HETATM    1  C   UNL     1       3.959  29.091  50.803  1.00  0.00     0.030 A 
HETATM    2  C   UNL     1       5.341  28.934  51.004  1.00  0.00     0.031 A 
HETATM    3  C   UNL     1       5.874  28.557  52.246  1.00  0.00     0.027 A 
HETATM    4  C   UNL     1       5.026  28.359  53.331  1.00  0.00     0.079 A 
HETATM    5  C   UNL     1       3.653  28.527  53.178  1.00  0.00     0.027 A 
HETATM    6  C   UNL     1       3.138  28.909  51.934  1.00  0.00     0.031 A 
ENDROOT
BRANCH   4   7
HETATM    7  S   UNL     1       5.681  27.775  54.880  1.00  0.00     0.260 S 
HETATM    8  O   UNL     1       6.862  28.565  55.154  1.00  0.00    -0.200 OA
HETATM    9  O   UNL     1       4.574  27.743  55.813  1.00  0.00    -0.200 OA
BRANCH   7  10
HETATM   10  N   UNL     1       6.146  26.197  54.536  1.00  0.00    -0.307 N 
HETATM   11  C   UNL     1       5.179  25.226  53.996  1.00  0.00     0.135 C 
HETATM   12  C   UNL     1       5.473  24.911  52.534  1.00  0.00     0.021 C 
HETATM   13  C   UNL     1       6.922  24.478  52.339  1.00  0.00     0.003 C 
HETATM   14  C   UNL     1       7.873  25.534  52.891  1.00  0.00     0.021 C 
HETATM   15  C   UNL     1       7.568  25.854  54.350  1.00  0.00     0.135 C 
ENDBRANCH   7  10
ENDBRANCH   4   7
BRANCH   1  16
HETATM   16  N   UNL     1       3.397  29.445  49.570  1.00  0.00    -0.378 N 
HETATM   17  C   UNL     1       1.957  29.157  49.373  1.00  0.00     0.150 C 
HETATM   18  C   UNL     1       1.764  27.746  48.778  1.00  0.00     0.254 C 
HETATM   19  N   UNL     1       2.553  27.607  47.471  1.00  0.00    -0.072 N 
HETATM   20  C   UNL     1       2.363  26.259  46.845  1.00  0.00     0.269 C 
HETATM   21  H   UNL     1       2.177  28.308  46.821  1.00  0.00     0.279 HD
HETATM   22  C   UNL     1       4.032  27.940  47.684  1.00  0.00     0.254 C 
HETATM   23  C   UNL     1       4.186  29.338  48.326  1.00  0.00     0.150 C 
ENDBRANCH   1  16
TORSDOF 3
ENDMDL
MODEL 9
REMARK VINA RESULT:      -6.8      8.695     11.483
REMARK  3 active torsions:
REMARK  status: ('A' for Active; 'I' for Inactive)
REMARK    1  A    between atoms: N_6  and  C_7 
REMARK    2  A    between atoms: C_10  and  S_11 
REMARK    3  A    between atoms: S_11  and  N_12 
ROOT
HETATM    1  C   UNL     1       6.040  38.327  63.035  1.00  0.00     0.030 A 
HETATM    2  C   UNL     1       6.040  37.268  62.111  1.00  0.00     0.031 A 
HETATM    3  C   UNL     1       5.415  36.041  62.385  1.00  0.00     0.027 A 
HETATM    4  C   UNL     1       4.800  35.838  63.615  1.00  0.00     0.079 A 
HETATM    5  C   UNL     1       4.797  36.854  64.566  1.00  0.00     0.027 A 
HETATM    6  C   UNL     1       5.430  38.070  64.279  1.00  0.00     0.031 A 
ENDROOT
BRANCH   4   7
HETATM    7  S   UNL     1       3.911  34.328  63.930  1.00  0.00     0.260 S 
HETATM    8  O   UNL     1       3.157  34.537  65.147  1.00  0.00    -0.200 OA
HETATM    9  O   UNL     1       3.245  33.974  62.693  1.00  0.00    -0.200 OA
BRANCH   7  10
HETATM   10  N   UNL     1       5.131  33.212  64.227  1.00  0.00    -0.307 N 
HETATM   11  C   UNL     1       5.506  32.215  63.210  1.00  0.00     0.135 C 
HETATM   12  C   UNL     1       6.871  32.527  62.609  1.00  0.00     0.021 C 
HETATM   13  C   UNL     1       7.930  32.699  63.692  1.00  0.00     0.003 C 
HETATM   14  C   UNL     1       7.499  33.762  64.696  1.00  0.00     0.021 C 
HETATM   15  C   UNL     1       6.128  33.450  65.287  1.00  0.00     0.135 C 
ENDBRANCH   7  10
ENDBRANCH   4   7
BRANCH   1  16
HETATM   16  N   UNL     1       6.635  39.568  62.781  1.00  0.00    -0.378 N 
HETATM   17  C   UNL     1       5.976  40.767  63.353  1.00  0.00     0.150 C 
HETATM   18  C   UNL     1       4.939  41.338  62.362  1.00  0.00     0.254 C 
HETATM   19  N   UNL     1       5.602  41.645  61.016  1.00  0.00    -0.072 N 
HETATM   20  C   UNL     1       4.633  42.234  60.036  1.00  0.00     0.269 C 
HETATM   21  H   UNL     1       6.329  42.349  61.195  1.00  0.00     0.279 HD
HETATM   22  C   UNL     1       6.307  40.407  60.454  1.00  0.00     0.254 C 
HETATM   23  C   UNL     1       7.301  39.832  61.489  1.00  0.00     0.150 C 
ENDBRANCH   1  16
TORSDOF 3
ENDMDL
MODEL 10
REMARK VINA RESULT:      -6.8      9.092     11.541
REMARK  3 active torsions:
REMARK  status: ('A' for Active; 'I' for Inactive)
REMARK    1  A    between atoms: N_6  and  C_7 
REMARK    2  A    between atoms: C_10  and  S_11 
REMARK    3  A    between atoms: S_11  and  N_12 
ROOT
HETATM    1  C   UNL     1       5.397  38.123  62.319  1.00  0.00     0.030 A 
HETATM    2  C   UNL     1       4.969  36.978  61.625  1.00  0.00     0.031 A 
HETATM    3  C   UNL     1       4.493  35.839  62.291  1.00  0.00     0.027 A 
HETATM    4  C   UNL     1       4.466  35.811  63.682  1.00  0.00     0.079 A 
HETATM    5  C   UNL     1       4.902  36.916  64.406  1.00  0.00     0.027 A 
HETATM    6  C   UNL     1       5.380  38.043  63.726  1.00  0.00     0.031 A 
ENDROOT
BRANCH   4   7
HETATM    7  S   UNL     1       3.761  34.415  64.532  1.00  0.00     0.260 S 
HETATM    8  O   UNL     1       3.390  34.879  65.852  1.00  0.00    -0.200 OA
HETATM    9  O   UNL     1       2.775  33.841  63.641  1.00  0.00    -0.200 OA
BRANCH   7  10
HETATM   10  N   UNL     1       5.054  33.350  64.671  1.00  0.00    -0.307 N 
HETATM   11  C   UNL     1       5.379  32.413  63.581  1.00  0.00     0.135 C 
HETATM   12  C   UNL     1       6.667  32.816  62.874  1.00  0.00     0.021 C 
HETATM   13  C   UNL     1       7.812  32.998  63.865  1.00  0.00     0.003 C 
HETATM   14  C   UNL     1       7.426  33.998  64.949  1.00  0.00     0.021 C 
HETATM   15  C   UNL     1       6.131  33.596  65.646  1.00  0.00     0.135 C 
ENDBRANCH   7  10
ENDBRANCH   4   7
BRANCH   1  16
HETATM   16  N   UNL     1       5.857  39.281  61.681  1.00  0.00    -0.378 N 
HETATM   17  C   UNL     1       7.323  39.492  61.630  1.00  0.00     0.150 C 
HETATM   18  C   UNL     1       7.801  40.279  62.869  1.00  0.00     0.254 C 
HETATM   19  N   UNL     1       7.043  41.606  62.980  1.00  0.00    -0.072 N 
HETATM   20  C   UNL     1       7.503  42.417  64.153  1.00  0.00     0.269 C 
HETATM   21  H   UNL     1       7.255  42.143  62.129  1.00  0.00     0.279 HD
HETATM   22  C   UNL     1       5.529  41.376  62.998  1.00  0.00     0.254 C 
HETATM   23  C   UNL     1       5.092  40.542  61.772  1.00  0.00     0.150 C 
ENDBRANCH   1  16
TORSDOF 3
ENDMDL
