MODEL 1
REMARK VINA RESULT:     -11.7      0.000      0.000
REMARK  9 active torsions:
REMARK  status: ('A' for Active; 'I' for Inactive)
REMARK    1  A    between atoms: C_5  and  C_6 
REMARK    2  A    between atoms: C_6  and  N_7 
REMARK       I    between atoms: N_7  and  C_8 
REMARK    3  A    between atoms: C_8  and  C_9 
REMARK    4  A    between atoms: C_9  and  N_10 
REMARK    5  A    between atoms: N_14  and  C_15 
REMARK    6  A    between atoms: C_17  and  N_18 
REMARK    7  A    between atoms: N_18  and  C_19 
REMARK    8  A    between atoms: C_26  and  N_27 
REMARK    9  A    between atoms: N_27  and  C_28 
ROOT
HETATM    1  C   UNL     1       6.234  26.547  55.546  1.00  0.00     0.756 A 
HETATM    2  N   UNL     1       5.348  26.850  54.614  1.00  0.00     0.131 NA
HETATM    3  C   UNL     1       5.480  26.238  53.441  1.00  0.00     0.758 A 
HETATM    4  N   UNL     1       6.447  25.374  53.166  1.00  0.00     0.131 NA
HETATM    5  C   UNL     1       7.242  25.058  54.178  1.00  0.00     0.758 A 
HETATM    6  N   UNL     1       7.150  25.609  55.382  1.00  0.00     0.131 NA
ENDROOT
BRANCH   1   7
HETATM    7  N   UNL     1       6.226  27.256  56.730  1.00  0.00    -0.210 N 
HETATM    8  C   UNL     1       5.043  28.036  57.094  1.00  0.00     0.169 C 
HETATM    9  C   UNL     1       5.372  29.545  57.063  1.00  0.00     0.256 C 
HETATM   10  N   UNL     1       6.594  29.812  57.947  1.00  0.00    -0.060 N 
HETATM   11  H   UNL     1       6.374  29.406  58.864  1.00  0.00     0.280 HD
HETATM   12  C   UNL     1       7.804  29.028  57.417  1.00  0.00     0.256 C 
HETATM   13  C   UNL     1       7.481  27.519  57.435  1.00  0.00     0.169 C 
BRANCH  10  14
HETATM   14  C   UNL     1       6.865  31.289  58.189  1.00  0.00     0.337 C 
BRANCH  14  15
HETATM   15  C   UNL     1       7.779  31.641  59.368  1.00  0.00     0.243 C 
HETATM   16  N   UNL     1       7.450  30.998  60.540  1.00  0.00    -0.355 N 
HETATM   17  H   UNL     1       6.571  30.506  60.637  1.00  0.00     0.162 HD
HETATM   18  O   UNL     1       8.732  32.405  59.252  1.00  0.00    -0.272 OA
BRANCH  16  19
HETATM   19  C   UNL     1       8.197  31.209  61.766  1.00  0.00     0.161 C 
BRANCH  19  20
HETATM   20  C   UNL     1       7.391  31.973  62.781  1.00  0.00    -0.041 A 
HETATM   21  C   UNL     1       5.991  31.903  62.792  1.00  0.00     0.009 A 
HETATM   22  C   UNL     1       5.253  32.582  63.765  1.00  0.00     0.007 A 
HETATM   23  C   UNL     1       5.899  33.347  64.741  1.00  0.00    -0.062 A 
HETATM   24  C   UNL     1       5.111  34.015  65.830  1.00  0.00     0.048 C 
HETATM   25  C   UNL     1       7.296  33.417  64.735  1.00  0.00     0.007 A 
HETATM   26  C   UNL     1       8.035  32.745  63.757  1.00  0.00     0.009 A 
ENDBRANCH  19  20
ENDBRANCH  16  19
ENDBRANCH  14  15
ENDBRANCH  10  14
ENDBRANCH   1   7
BRANCH   3  27
HETATM   27  N   UNL     1       4.608  26.533  52.394  1.00  0.00    -0.187 N 
HETATM   28  H   UNL     1       3.670  26.661  52.753  1.00  0.00     0.184 HD
BRANCH  27  29
HETATM   29  C   UNL     1       4.843  27.153  51.157  1.00  0.00     0.049 A 
HETATM   30  C   UNL     1       4.700  26.391  49.987  1.00  0.00     0.030 A 
HETATM   31  C   UNL     1       4.941  26.949  48.728  1.00  0.00     0.002 A 
HETATM   32  C   UNL     1       5.333  28.279  48.619  1.00  0.00     0.000 A 
HETATM   33  C   UNL     1       5.496  29.046  49.770  1.00  0.00     0.002 A 
HETATM   34  C   UNL     1       5.266  28.481  51.028  1.00  0.00     0.030 A 
ENDBRANCH  27  29
ENDBRANCH   3  27
BRANCH   5  35
HETATM   35  N   UNL     1       8.248  24.136  53.897  1.00  0.00    -0.187 N 
HETATM   36  H   UNL     1       8.967  24.551  53.321  1.00  0.00     0.184 HD
BRANCH  35  37
HETATM   37  C   UNL     1       8.356  22.761  54.135  1.00  0.00     0.049 A 
HETATM   38  C   UNL     1       8.833  22.227  55.338  1.00  0.00     0.030 A 
HETATM   39  C   UNL     1       8.965  20.846  55.516  1.00  0.00     0.002 A 
HETATM   40  C   UNL     1       8.644  19.976  54.479  1.00  0.00     0.000 A 
HETATM   41  C   UNL     1       8.188  20.487  53.267  1.00  0.00     0.002 A 
HETATM   42  C   UNL     1       8.047  21.868  53.099  1.00  0.00     0.030 A 
ENDBRANCH  35  37
ENDBRANCH   5  35
TORSDOF 9
ENDMDL
MODEL 2
REMARK VINA RESULT:     -11.6      0.537      5.095
REMARK  9 active torsions:
REMARK  status: ('A' for Active; 'I' for Inactive)
REMARK    1  A    between atoms: C_5  and  C_6 
REMARK    2  A    between atoms: C_6  and  N_7 
REMARK       I    between atoms: N_7  and  C_8 
REMARK    3  A    between atoms: C_8  and  C_9 
REMARK    4  A    between atoms: C_9  and  N_10 
REMARK    5  A    between atoms: N_14  and  C_15 
REMARK    6  A    between atoms: C_17  and  N_18 
REMARK    7  A    between atoms: N_18  and  C_19 
REMARK    8  A    between atoms: C_26  and  N_27 
REMARK    9  A    between atoms: N_27  and  C_28 
ROOT
HETATM    1  C   UNL     1       6.329  26.997  55.061  1.00  0.00     0.756 A 
HETATM    2  N   UNL     1       7.211  26.031  54.883  1.00  0.00     0.131 NA
HETATM    3  C   UNL     1       7.196  25.416  53.704  1.00  0.00     0.758 A 
HETATM    4  N   UNL     1       6.345  25.711  52.731  1.00  0.00     0.131 NA
HETATM    5  C   UNL     1       5.550  26.748  52.955  1.00  0.00     0.758 A 
HETATM    6  N   UNL     1       5.531  27.423  54.098  1.00  0.00     0.131 NA
ENDROOT
BRANCH   1   7
HETATM    7  N   UNL     1       6.209  27.569  56.311  1.00  0.00    -0.210 N 
HETATM    8  C   UNL     1       4.961  28.236  56.682  1.00  0.00     0.169 C 
HETATM    9  C   UNL     1       5.195  29.755  56.831  1.00  0.00     0.256 C 
HETATM   10  N   UNL     1       6.346  29.993  57.814  1.00  0.00    -0.060 N 
HETATM   11  H   UNL     1       6.101  29.477  58.667  1.00  0.00     0.280 HD
HETATM   12  C   UNL     1       7.631  29.342  57.280  1.00  0.00     0.256 C 
HETATM   13  C   UNL     1       7.404  27.825  57.118  1.00  0.00     0.169 C 
BRANCH  10  14
HETATM   14  C   UNL     1       6.509  31.448  58.228  1.00  0.00     0.337 C 
BRANCH  14  15
HETATM   15  C   UNL     1       7.535  31.744  59.327  1.00  0.00     0.243 C 
HETATM   16  N   UNL     1       7.196  31.231  60.559  1.00  0.00    -0.355 N 
HETATM   17  H   UNL     1       6.265  30.876  60.740  1.00  0.00     0.162 HD
HETATM   18  O   UNL     1       8.574  32.356  59.104  1.00  0.00    -0.272 OA
BRANCH  16  19
HETATM   19  C   UNL     1       8.040  31.415  61.724  1.00  0.00     0.161 C 
BRANCH  19  20
HETATM   20  C   UNL     1       7.302  32.103  62.841  1.00  0.00    -0.041 A 
HETATM   21  C   UNL     1       7.992  32.829  63.821  1.00  0.00     0.009 A 
HETATM   22  C   UNL     1       7.295  33.500  64.830  1.00  0.00     0.007 A 
HETATM   23  C   UNL     1       5.898  33.454  64.880  1.00  0.00    -0.062 A 
HETATM   24  C   UNL     1       5.148  34.236  65.919  1.00  0.00     0.048 C 
HETATM   25  C   UNL     1       5.208  32.733  63.902  1.00  0.00     0.007 A 
HETATM   26  C   UNL     1       5.903  32.055  62.897  1.00  0.00     0.009 A 
ENDBRANCH  19  20
ENDBRANCH  16  19
ENDBRANCH  14  15
ENDBRANCH  10  14
ENDBRANCH   1   7
BRANCH   3  27
HETATM   27  N   UNL     1       8.070  24.360  53.452  1.00  0.00    -0.187 N 
HETATM   28  H   UNL     1       8.995  24.719  53.253  1.00  0.00     0.184 HD
BRANCH  27  29
HETATM   29  C   UNL     1       8.050  23.030  53.902  1.00  0.00     0.049 A 
HETATM   30  C   UNL     1       8.024  22.000  52.950  1.00  0.00     0.030 A 
HETATM   31  C   UNL     1       7.982  20.658  53.339  1.00  0.00     0.002 A 
HETATM   32  C   UNL     1       7.963  20.325  54.690  1.00  0.00     0.000 A 
HETATM   33  C   UNL     1       7.972  21.334  55.649  1.00  0.00     0.002 A 
HETATM   34  C   UNL     1       8.001  22.675  55.256  1.00  0.00     0.030 A 
ENDBRANCH  27  29
ENDBRANCH   3  27
BRANCH   5  35
HETATM   35  N   UNL     1       4.668  27.070  51.927  1.00  0.00    -0.187 N 
HETATM   36  H   UNL     1       3.709  26.991  52.236  1.00  0.00     0.184 HD
BRANCH  35  37
HETATM   37  C   UNL     1       4.863  27.328  50.565  1.00  0.00     0.049 A 
HETATM   38  C   UNL     1       5.300  28.564  50.073  1.00  0.00     0.030 A 
HETATM   39  C   UNL     1       5.440  28.789  48.700  1.00  0.00     0.002 A 
HETATM   40  C   UNL     1       5.121  27.784  47.793  1.00  0.00     0.000 A 
HETATM   41  C   UNL     1       4.665  26.554  48.260  1.00  0.00     0.002 A 
HETATM   42  C   UNL     1       4.538  26.331  49.634  1.00  0.00     0.030 A 
ENDBRANCH  35  37
ENDBRANCH   5  35
TORSDOF 9
ENDMDL
MODEL 3
REMARK VINA RESULT:     -10.7      3.827     11.090
REMARK  9 active torsions:
REMARK  status: ('A' for Active; 'I' for Inactive)
REMARK    1  A    between atoms: C_5  and  C_6 
REMARK    2  A    between atoms: C_6  and  N_7 
REMARK       I    between atoms: N_7  and  C_8 
REMARK    3  A    between atoms: C_8  and  C_9 
REMARK    4  A    between atoms: C_9  and  N_10 
REMARK    5  A    between atoms: N_14  and  C_15 
REMARK    6  A    between atoms: C_17  and  N_18 
REMARK    7  A    between atoms: N_18  and  C_19 
REMARK    8  A    between atoms: C_26  and  N_27 
REMARK    9  A    between atoms: N_27  and  C_28 
ROOT
HETATM    1  C   UNL     1       6.037  26.388  54.949  1.00  0.00     0.756 A 
HETATM    2  N   UNL     1       6.671  25.231  54.996  1.00  0.00     0.131 NA
HETATM    3  C   UNL     1       7.584  25.086  55.951  1.00  0.00     0.758 A 
HETATM    4  N   UNL     1       7.890  26.034  56.826  1.00  0.00     0.131 NA
HETATM    5  C   UNL     1       7.150  27.132  56.770  1.00  0.00     0.758 A 
HETATM    6  N   UNL     1       6.204  27.331  55.859  1.00  0.00     0.131 NA
ENDROOT
BRANCH   1   7
HETATM    7  N   UNL     1       5.183  26.640  53.895  1.00  0.00    -0.210 N 
HETATM    8  C   UNL     1       4.912  25.583  52.921  1.00  0.00     0.169 C 
HETATM    9  C   UNL     1       5.513  25.959  51.548  1.00  0.00     0.256 C 
HETATM   10  N   UNL     1       4.996  27.340  51.133  1.00  0.00    -0.060 N 
HETATM   11  H   UNL     1       3.972  27.287  51.190  1.00  0.00     0.280 HD
HETATM   12  C   UNL     1       5.425  28.391  52.168  1.00  0.00     0.256 C 
HETATM   13  C   UNL     1       4.836  28.019  53.545  1.00  0.00     0.169 C 
BRANCH  10  14
HETATM   14  C   UNL     1       5.323  27.711  49.695  1.00  0.00     0.337 C 
BRANCH  14  15
HETATM   15  C   UNL     1       4.448  27.089  48.603  1.00  0.00     0.243 C 
HETATM   16  N   UNL     1       3.106  27.064  48.910  1.00  0.00    -0.355 N 
HETATM   17  H   UNL     1       2.781  27.257  49.850  1.00  0.00     0.162 HD
HETATM   18  O   UNL     1       4.913  26.684  47.542  1.00  0.00    -0.272 OA
BRANCH  16  19
HETATM   19  C   UNL     1       2.121  26.507  48.002  1.00  0.00     0.161 C 
BRANCH  19  20
HETATM   20  C   UNL     1       1.276  27.583  47.374  1.00  0.00    -0.041 A 
HETATM   21  C   UNL     1       0.388  27.286  46.331  1.00  0.00     0.009 A 
HETATM   22  C   UNL     1      -0.424  28.282  45.784  1.00  0.00     0.007 A 
HETATM   23  C   UNL     1      -0.361  29.594  46.265  1.00  0.00    -0.062 A 
HETATM   24  C   UNL     1      -1.287  30.647  45.728  1.00  0.00     0.048 C 
HETATM   25  C   UNL     1       0.521  29.893  47.308  1.00  0.00     0.007 A 
HETATM   26  C   UNL     1       1.340  28.899  47.851  1.00  0.00     0.009 A 
ENDBRANCH  19  20
ENDBRANCH  16  19
ENDBRANCH  14  15
ENDBRANCH  10  14
ENDBRANCH   1   7
BRANCH   3  27
HETATM   27  N   UNL     1       8.326  23.909  56.041  1.00  0.00    -0.187 N 
HETATM   28  H   UNL     1       8.647  23.777  56.992  1.00  0.00     0.184 HD
BRANCH  27  29
HETATM   29  C   UNL     1       8.264  22.730  55.283  1.00  0.00     0.049 A 
HETATM   30  C   UNL     1       7.950  21.528  55.935  1.00  0.00     0.030 A 
HETATM   31  C   UNL     1       7.894  20.319  55.235  1.00  0.00     0.002 A 
HETATM   32  C   UNL     1       8.156  20.293  53.868  1.00  0.00     0.000 A 
HETATM   33  C   UNL     1       8.486  21.474  53.208  1.00  0.00     0.002 A 
HETATM   34  C   UNL     1       8.553  22.678  53.914  1.00  0.00     0.030 A 
ENDBRANCH  27  29
ENDBRANCH   3  27
BRANCH   5  35
HETATM   35  N   UNL     1       7.457  28.121  57.700  1.00  0.00    -0.187 N 
HETATM   36  H   UNL     1       6.744  28.181  58.413  1.00  0.00     0.184 HD
BRANCH  35  37
HETATM   37  C   UNL     1       8.455  29.103  57.735  1.00  0.00     0.049 A 
HETATM   38  C   UNL     1       9.539  29.125  56.849  1.00  0.00     0.030 A 
HETATM   39  C   UNL     1      10.536  30.101  56.948  1.00  0.00     0.002 A 
HETATM   40  C   UNL     1      10.476  31.059  57.955  1.00  0.00     0.000 A 
HETATM   41  C   UNL     1       9.417  31.043  58.859  1.00  0.00     0.002 A 
HETATM   42  C   UNL     1       8.417  30.072  58.748  1.00  0.00     0.030 A 
ENDBRANCH  35  37
ENDBRANCH   5  35
TORSDOF 9
ENDMDL
MODEL 4
REMARK VINA RESULT:     -10.5      3.654     10.515
REMARK  9 active torsions:
REMARK  status: ('A' for Active; 'I' for Inactive)
REMARK    1  A    between atoms: C_5  and  C_6 
REMARK    2  A    between atoms: C_6  and  N_7 
REMARK       I    between atoms: N_7  and  C_8 
REMARK    3  A    between atoms: C_8  and  C_9 
REMARK    4  A    between atoms: C_9  and  N_10 
REMARK    5  A    between atoms: N_14  and  C_15 
REMARK    6  A    between atoms: C_17  and  N_18 
REMARK    7  A    between atoms: N_18  and  C_19 
REMARK    8  A    between atoms: C_26  and  N_27 
REMARK    9  A    between atoms: N_27  and  C_28 
ROOT
HETATM    1  C   UNL     1       6.369  26.233  55.082  1.00  0.00     0.756 A 
HETATM    2  N   UNL     1       6.512  27.227  55.940  1.00  0.00     0.131 NA
HETATM    3  C   UNL     1       7.435  27.075  56.884  1.00  0.00     0.758 A 
HETATM    4  N   UNL     1       8.187  25.991  57.011  1.00  0.00     0.131 NA
HETATM    5  C   UNL     1       8.046  25.077  56.062  1.00  0.00     0.758 A 
HETATM    6  N   UNL     1       7.163  25.177  55.075  1.00  0.00     0.131 NA
ENDROOT
BRANCH   1   7
HETATM    7  N   UNL     1       5.334  26.281  54.172  1.00  0.00    -0.210 N 
HETATM    8  C   UNL     1       5.029  25.099  53.365  1.00  0.00     0.169 C 
HETATM    9  C   UNL     1       5.354  25.372  51.880  1.00  0.00     0.256 C 
HETATM   10  N   UNL     1       4.623  26.641  51.430  1.00  0.00    -0.060 N 
HETATM   11  H   UNL     1       3.634  26.498  51.668  1.00  0.00     0.280 HD
HETATM   12  C   UNL     1       5.092  27.839  52.270  1.00  0.00     0.256 C 
HETATM   13  C   UNL     1       4.780  27.571  53.757  1.00  0.00     0.169 C 
BRANCH  10  14
HETATM   14  C   UNL     1       4.669  26.876  49.928  1.00  0.00     0.337 C 
BRANCH  14  15
HETATM   15  C   UNL     1       3.928  28.107  49.397  1.00  0.00     0.243 C 
HETATM   16  N   UNL     1       2.586  28.126  49.703  1.00  0.00    -0.355 N 
HETATM   17  H   UNL     1       2.121  27.303  50.066  1.00  0.00     0.162 HD
HETATM   18  O   UNL     1       4.501  29.001  48.783  1.00  0.00    -0.272 OA
BRANCH  16  19
HETATM   19  C   UNL     1       1.718  29.209  49.280  1.00  0.00     0.161 C 
BRANCH  19  20
HETATM   20  C   UNL     1       1.060  28.908  47.961  1.00  0.00    -0.041 A 
HETATM   21  C   UNL     1       0.961  27.592  47.487  1.00  0.00     0.009 A 
HETATM   22  C   UNL     1       0.311  27.317  46.281  1.00  0.00     0.007 A 
HETATM   23  C   UNL     1      -0.250  28.352  45.525  1.00  0.00    -0.062 A 
HETATM   24  C   UNL     1      -1.014  28.049  44.269  1.00  0.00     0.048 C 
HETATM   25  C   UNL     1      -0.157  29.665  45.997  1.00  0.00     0.007 A 
HETATM   26  C   UNL     1       0.501  29.942  47.198  1.00  0.00     0.009 A 
ENDBRANCH  19  20
ENDBRANCH  16  19
ENDBRANCH  14  15
ENDBRANCH  10  14
ENDBRANCH   1   7
BRANCH   3  27
HETATM   27  N   UNL     1       7.619  28.063  57.851  1.00  0.00    -0.187 N 
HETATM   28  H   UNL     1       7.322  27.718  58.755  1.00  0.00     0.184 HD
BRANCH  27  29
HETATM   29  C   UNL     1       8.534  29.126  57.910  1.00  0.00     0.049 A 
HETATM   30  C   UNL     1       9.632  29.114  57.037  1.00  0.00     0.030 A 
HETATM   31  C   UNL     1      10.587  30.136  57.065  1.00  0.00     0.002 A 
HETATM   32  C   UNL     1      10.459  31.184  57.970  1.00  0.00     0.000 A 
HETATM   33  C   UNL     1       9.384  31.203  58.855  1.00  0.00     0.002 A 
HETATM   34  C   UNL     1       8.439  30.174  58.833  1.00  0.00     0.030 A 
ENDBRANCH  27  29
ENDBRANCH   3  27
BRANCH   5  35
HETATM   35  N   UNL     1       8.847  23.945  56.182  1.00  0.00    -0.187 N 
HETATM   36  H   UNL     1       9.708  24.161  56.664  1.00  0.00     0.184 HD
BRANCH  35  37
HETATM   37  C   UNL     1       8.742  22.656  55.646  1.00  0.00     0.049 A 
HETATM   38  C   UNL     1       8.938  22.372  54.289  1.00  0.00     0.030 A 
HETATM   39  C   UNL     1       8.780  21.075  53.790  1.00  0.00     0.002 A 
HETATM   40  C   UNL     1       8.397  20.043  54.640  1.00  0.00     0.000 A 
HETATM   41  C   UNL     1       8.177  20.307  55.989  1.00  0.00     0.002 A 
HETATM   42  C   UNL     1       8.348  21.604  56.485  1.00  0.00     0.030 A 
ENDBRANCH  35  37
ENDBRANCH   5  35
TORSDOF 9
ENDMDL
MODEL 5
REMARK VINA RESULT:     -10.2      3.666      9.588
REMARK  9 active torsions:
REMARK  status: ('A' for Active; 'I' for Inactive)
REMARK    1  A    between atoms: C_5  and  C_6 
REMARK    2  A    between atoms: C_6  and  N_7 
REMARK       I    between atoms: N_7  and  C_8 
REMARK    3  A    between atoms: C_8  and  C_9 
REMARK    4  A    between atoms: C_9  and  N_10 
REMARK    5  A    between atoms: N_14  and  C_15 
REMARK    6  A    between atoms: C_17  and  N_18 
REMARK    7  A    between atoms: N_18  and  C_19 
REMARK    8  A    between atoms: C_26  and  N_27 
REMARK    9  A    between atoms: N_27  and  C_28 
ROOT
HETATM    1  C   UNL     1       6.228  26.318  55.024  1.00  0.00     0.756 A 
HETATM    2  N   UNL     1       6.399  27.305  55.885  1.00  0.00     0.131 NA
HETATM    3  C   UNL     1       7.312  27.121  56.833  1.00  0.00     0.758 A 
HETATM    4  N   UNL     1       8.029  26.013  56.960  1.00  0.00     0.131 NA
HETATM    5  C   UNL     1       7.863  25.107  56.008  1.00  0.00     0.758 A 
HETATM    6  N   UNL     1       6.988  25.237  55.017  1.00  0.00     0.131 NA
ENDROOT
BRANCH   1   7
HETATM    7  N   UNL     1       5.198  26.400  54.110  1.00  0.00    -0.210 N 
HETATM    8  C   UNL     1       4.904  25.253  53.252  1.00  0.00     0.169 C 
HETATM    9  C   UNL     1       5.237  25.589  51.782  1.00  0.00     0.256 C 
HETATM   10  N   UNL     1       4.504  26.874  51.381  1.00  0.00    -0.060 N 
HETATM   11  H   UNL     1       3.515  26.717  51.606  1.00  0.00     0.280 HD
HETATM   12  C   UNL     1       4.963  28.037  52.273  1.00  0.00     0.256 C 
HETATM   13  C   UNL     1       4.643  27.706  53.746  1.00  0.00     0.169 C 
BRANCH  10  14
HETATM   14  C   UNL     1       4.560  27.172  49.890  1.00  0.00     0.337 C 
BRANCH  14  15
HETATM   15  C   UNL     1       3.768  28.388  49.398  1.00  0.00     0.243 C 
HETATM   16  N   UNL     1       4.444  29.160  48.480  1.00  0.00    -0.355 N 
HETATM   17  H   UNL     1       5.435  29.030  48.317  1.00  0.00     0.162 HD
HETATM   18  O   UNL     1       2.623  28.620  49.774  1.00  0.00    -0.272 OA
BRANCH  16  19
HETATM   19  C   UNL     1       3.859  30.356  47.905  1.00  0.00     0.161 C 
BRANCH  19  20
HETATM   20  C   UNL     1       4.879  31.450  47.744  1.00  0.00    -0.041 A 
HETATM   21  C   UNL     1       5.071  32.082  46.508  1.00  0.00     0.009 A 
HETATM   22  C   UNL     1       5.991  33.126  46.378  1.00  0.00     0.007 A 
HETATM   23  C   UNL     1       6.738  33.555  47.479  1.00  0.00    -0.062 A 
HETATM   24  C   UNL     1       7.670  34.726  47.357  1.00  0.00     0.048 C 
HETATM   25  C   UNL     1       6.547  32.929  48.715  1.00  0.00     0.007 A 
HETATM   26  C   UNL     1       5.634  31.879  48.844  1.00  0.00     0.009 A 
ENDBRANCH  19  20
ENDBRANCH  16  19
ENDBRANCH  14  15
ENDBRANCH  10  14
ENDBRANCH   1   7
BRANCH   3  27
HETATM   27  N   UNL     1       7.523  28.100  57.804  1.00  0.00    -0.187 N 
HETATM   28  H   UNL     1       7.214  27.761  58.706  1.00  0.00     0.184 HD
BRANCH  27  29
HETATM   29  C   UNL     1       8.468  29.135  57.868  1.00  0.00     0.049 A 
HETATM   30  C   UNL     1       9.559  29.104  56.985  1.00  0.00     0.030 A 
HETATM   31  C   UNL     1      10.543  30.097  57.017  1.00  0.00     0.002 A 
HETATM   32  C   UNL     1      10.452  31.137  57.936  1.00  0.00     0.000 A 
HETATM   33  C   UNL     1       9.385  31.176  58.830  1.00  0.00     0.002 A 
HETATM   34  C   UNL     1       8.411  30.175  58.804  1.00  0.00     0.030 A 
ENDBRANCH  27  29
ENDBRANCH   3  27
BRANCH   5  35
HETATM   35  N   UNL     1       8.628  23.950  56.129  1.00  0.00    -0.187 N 
HETATM   36  H   UNL     1       9.482  24.132  56.637  1.00  0.00     0.184 HD
BRANCH  35  37
HETATM   37  C   UNL     1       8.499  22.674  55.567  1.00  0.00     0.049 A 
HETATM   38  C   UNL     1       8.222  21.528  56.322  1.00  0.00     0.030 A 
HETATM   39  C   UNL     1       8.145  20.267  55.723  1.00  0.00     0.002 A 
HETATM   40  C   UNL     1       8.369  20.129  54.357  1.00  0.00     0.000 A 
HETATM   41  C   UNL     1       8.667  21.253  53.591  1.00  0.00     0.002 A 
HETATM   42  C   UNL     1       8.731  22.512  54.193  1.00  0.00     0.030 A 
ENDBRANCH  35  37
ENDBRANCH   5  35
TORSDOF 9
ENDMDL
MODEL 6
REMARK VINA RESULT:     -10.0      1.807      5.619
REMARK  9 active torsions:
REMARK  status: ('A' for Active; 'I' for Inactive)
REMARK    1  A    between atoms: C_5  and  C_6 
REMARK    2  A    between atoms: C_6  and  N_7 
REMARK       I    between atoms: N_7  and  C_8 
REMARK    3  A    between atoms: C_8  and  C_9 
REMARK    4  A    between atoms: C_9  and  N_10 
REMARK    5  A    between atoms: N_14  and  C_15 
REMARK    6  A    between atoms: C_17  and  N_18 
REMARK    7  A    between atoms: N_18  and  C_19 
REMARK    8  A    between atoms: C_26  and  N_27 
REMARK    9  A    between atoms: N_27  and  C_28 
ROOT
HETATM    1  C   UNL     1       4.793  27.562  53.782  1.00  0.00     0.756 A 
HETATM    2  N   UNL     1       5.166  26.314  54.001  1.00  0.00     0.131 NA
HETATM    3  C   UNL     1       5.355  25.549  52.931  1.00  0.00     0.758 A 
HETATM    4  N   UNL     1       5.173  25.966  51.686  1.00  0.00     0.131 NA
HETATM    5  C   UNL     1       4.884  27.252  51.546  1.00  0.00     0.758 A 
HETATM    6  N   UNL     1       4.708  28.079  52.570  1.00  0.00     0.131 NA
ENDROOT
BRANCH   1   7
HETATM    7  N   UNL     1       4.449  28.354  54.858  1.00  0.00    -0.210 N 
HETATM    8  C   UNL     1       4.315  29.799  54.675  1.00  0.00     0.169 C 
HETATM    9  C   UNL     1       5.432  30.538  55.444  1.00  0.00     0.256 C 
HETATM   10  N   UNL     1       5.415  30.090  56.909  1.00  0.00    -0.060 N 
HETATM   11  H   UNL     1       4.453  30.235  57.238  1.00  0.00     0.280 HD
HETATM   12  C   UNL     1       5.669  28.577  56.995  1.00  0.00     0.256 C 
HETATM   13  C   UNL     1       4.563  27.830  56.221  1.00  0.00     0.169 C 
BRANCH  10  14
HETATM   14  C   UNL     1       6.306  30.924  57.816  1.00  0.00     0.337 C 
BRANCH  14  15
HETATM   15  C   UNL     1       5.653  32.117  58.521  1.00  0.00     0.243 C 
HETATM   16  N   UNL     1       5.109  31.810  59.748  1.00  0.00    -0.355 N 
HETATM   17  H   UNL     1       4.988  30.849  60.041  1.00  0.00     0.162 HD
HETATM   18  O   UNL     1       5.651  33.244  58.036  1.00  0.00    -0.272 OA
BRANCH  16  19
HETATM   19  C   UNL     1       4.442  32.809  60.562  1.00  0.00     0.161 C 
BRANCH  19  20
HETATM   20  C   UNL     1       5.136  33.000  61.884  1.00  0.00    -0.041 A 
HETATM   21  C   UNL     1       6.535  33.001  61.970  1.00  0.00     0.009 A 
HETATM   22  C   UNL     1       7.172  33.222  63.194  1.00  0.00     0.007 A 
HETATM   23  C   UNL     1       6.423  33.443  64.355  1.00  0.00    -0.062 A 
HETATM   24  C   UNL     1       7.106  33.755  65.654  1.00  0.00     0.048 C 
HETATM   25  C   UNL     1       5.027  33.446  64.271  1.00  0.00     0.007 A 
HETATM   26  C   UNL     1       4.389  33.217  63.049  1.00  0.00     0.009 A 
ENDBRANCH  19  20
ENDBRANCH  16  19
ENDBRANCH  14  15
ENDBRANCH  10  14
ENDBRANCH   1   7
BRANCH   3  27
HETATM   27  N   UNL     1       5.710  24.209  53.080  1.00  0.00    -0.187 N 
HETATM   28  H   UNL     1       5.311  23.662  52.327  1.00  0.00     0.184 HD
BRANCH  27  29
HETATM   29  C   UNL     1       6.830  23.623  53.690  1.00  0.00     0.049 A 
HETATM   30  C   UNL     1       7.074  23.893  55.045  1.00  0.00     0.030 A 
HETATM   31  C   UNL     1       8.185  23.353  55.700  1.00  0.00     0.002 A 
HETATM   32  C   UNL     1       9.074  22.537  55.007  1.00  0.00     0.000 A 
HETATM   33  C   UNL     1       8.856  22.271  53.658  1.00  0.00     0.002 A 
HETATM   34  C   UNL     1       7.751  22.822  53.003  1.00  0.00     0.030 A 
ENDBRANCH  27  29
ENDBRANCH   3  27
BRANCH   5  35
HETATM   35  N   UNL     1       4.711  27.698  50.238  1.00  0.00    -0.187 N 
HETATM   36  H   UNL     1       5.371  28.430  50.015  1.00  0.00     0.184 HD
BRANCH  35  37
HETATM   37  C   UNL     1       3.731  27.430  49.275  1.00  0.00     0.049 A 
HETATM   38  C   UNL     1       3.879  26.452  48.283  1.00  0.00     0.030 A 
HETATM   39  C   UNL     1       2.892  26.247  47.314  1.00  0.00     0.002 A 
HETATM   40  C   UNL     1       1.747  27.038  47.308  1.00  0.00     0.000 A 
HETATM   41  C   UNL     1       1.589  28.030  48.272  1.00  0.00     0.002 A 
HETATM   42  C   UNL     1       2.575  28.222  49.245  1.00  0.00     0.030 A 
ENDBRANCH  35  37
ENDBRANCH   5  35
TORSDOF 9
ENDMDL
MODEL 7
REMARK VINA RESULT:     -10.0      2.856      5.875
REMARK  9 active torsions:
REMARK  status: ('A' for Active; 'I' for Inactive)
REMARK    1  A    between atoms: C_5  and  C_6 
REMARK    2  A    between atoms: C_6  and  N_7 
REMARK       I    between atoms: N_7  and  C_8 
REMARK    3  A    between atoms: C_8  and  C_9 
REMARK    4  A    between atoms: C_9  and  N_10 
REMARK    5  A    between atoms: N_14  and  C_15 
REMARK    6  A    between atoms: C_17  and  N_18 
REMARK    7  A    between atoms: N_18  and  C_19 
REMARK    8  A    between atoms: C_26  and  N_27 
REMARK    9  A    between atoms: N_27  and  C_28 
ROOT
HETATM    1  C   UNL     1       4.815  28.755  55.837  1.00  0.00     0.756 A 
HETATM    2  N   UNL     1       4.784  27.753  54.977  1.00  0.00     0.131 NA
HETATM    3  C   UNL     1       5.816  26.915  54.995  1.00  0.00     0.758 A 
HETATM    4  N   UNL     1       6.857  27.047  55.805  1.00  0.00     0.131 NA
HETATM    5  C   UNL     1       6.773  28.024  56.697  1.00  0.00     0.758 A 
HETATM    6  N   UNL     1       5.760  28.880  56.752  1.00  0.00     0.131 NA
ENDROOT
BRANCH   1   7
HETATM    7  N   UNL     1       3.841  29.729  55.763  1.00  0.00    -0.210 N 
HETATM    8  C   UNL     1       3.762  30.580  54.577  1.00  0.00     0.169 C 
HETATM    9  C   UNL     1       4.132  32.035  54.942  1.00  0.00     0.256 C 
HETATM   10  N   UNL     1       3.252  32.501  56.106  1.00  0.00    -0.060 N 
HETATM   11  H   UNL     1       2.282  32.331  55.814  1.00  0.00     0.280 HD
HETATM   12  C   UNL     1       3.489  31.605  57.331  1.00  0.00     0.256 C 
HETATM   13  C   UNL     1       3.131  30.148  56.973  1.00  0.00     0.169 C 
BRANCH  10  14
HETATM   14  C   UNL     1       3.354  33.992  56.394  1.00  0.00     0.337 C 
BRANCH  14  15
HETATM   15  C   UNL     1       2.995  34.449  57.812  1.00  0.00     0.243 C 
HETATM   16  N   UNL     1       4.079  34.552  58.655  1.00  0.00    -0.355 N 
HETATM   17  H   UNL     1       4.979  34.167  58.399  1.00  0.00     0.162 HD
HETATM   18  O   UNL     1       1.846  34.724  58.139  1.00  0.00    -0.272 OA
BRANCH  16  19
HETATM   19  C   UNL     1       3.936  34.965  60.038  1.00  0.00     0.161 C 
BRANCH  19  20
HETATM   20  C   UNL     1       4.948  34.291  60.925  1.00  0.00    -0.041 A 
HETATM   21  C   UNL     1       5.579  33.104  60.526  1.00  0.00     0.009 A 
HETATM   22  C   UNL     1       6.548  32.507  61.337  1.00  0.00     0.007 A 
HETATM   23  C   UNL     1       6.903  33.083  62.561  1.00  0.00    -0.062 A 
HETATM   24  C   UNL     1       7.998  32.484  63.395  1.00  0.00     0.048 C 
HETATM   25  C   UNL     1       6.279  34.269  62.959  1.00  0.00     0.007 A 
HETATM   26  C   UNL     1       5.303  34.862  62.154  1.00  0.00     0.009 A 
ENDBRANCH  19  20
ENDBRANCH  16  19
ENDBRANCH  14  15
ENDBRANCH  10  14
ENDBRANCH   1   7
BRANCH   3  27
HETATM   27  N   UNL     1       5.876  25.856  54.090  1.00  0.00    -0.187 N 
HETATM   28  H   UNL     1       5.666  26.189  53.157  1.00  0.00     0.184 HD
BRANCH  27  29
HETATM   29  C   UNL     1       6.615  24.663  54.127  1.00  0.00     0.049 A 
HETATM   30  C   UNL     1       7.178  24.186  52.934  1.00  0.00     0.030 A 
HETATM   31  C   UNL     1       7.907  22.994  52.906  1.00  0.00     0.002 A 
HETATM   32  C   UNL     1       8.082  22.256  54.073  1.00  0.00     0.000 A 
HETATM   33  C   UNL     1       7.516  22.706  55.263  1.00  0.00     0.002 A 
HETATM   34  C   UNL     1       6.777  23.893  55.285  1.00  0.00     0.030 A 
ENDBRANCH  27  29
ENDBRANCH   3  27
BRANCH   5  35
HETATM   35  N   UNL     1       7.857  28.153  57.561  1.00  0.00    -0.187 N 
HETATM   36  H   UNL     1       7.953  27.335  58.146  1.00  0.00     0.184 HD
BRANCH  35  37
HETATM   37  C   UNL     1       8.704  29.229  57.853  1.00  0.00     0.049 A 
HETATM   38  C   UNL     1       8.404  30.203  58.813  1.00  0.00     0.030 A 
HETATM   39  C   UNL     1       9.261  31.284  59.041  1.00  0.00     0.002 A 
HETATM   40  C   UNL     1      10.425  31.422  58.291  1.00  0.00     0.000 A 
HETATM   41  C   UNL     1      10.732  30.476  57.317  1.00  0.00     0.002 A 
HETATM   42  C   UNL     1       9.877  29.391  57.101  1.00  0.00     0.030 A 
ENDBRANCH  35  37
ENDBRANCH   5  35
TORSDOF 9
ENDMDL
MODEL 8
REMARK VINA RESULT:      -9.9      3.542      7.987
REMARK  9 active torsions:
REMARK  status: ('A' for Active; 'I' for Inactive)
REMARK    1  A    between atoms: C_5  and  C_6 
REMARK    2  A    between atoms: C_6  and  N_7 
REMARK       I    between atoms: N_7  and  C_8 
REMARK    3  A    between atoms: C_8  and  C_9 
REMARK    4  A    between atoms: C_9  and  N_10 
REMARK    5  A    between atoms: N_14  and  C_15 
REMARK    6  A    between atoms: C_17  and  N_18 
REMARK    7  A    between atoms: N_18  and  C_19 
REMARK    8  A    between atoms: C_26  and  N_27 
REMARK    9  A    between atoms: N_27  and  C_28 
ROOT
HETATM    1  C   UNL     1       6.406  26.593  54.589  1.00  0.00     0.756 A 
HETATM    2  N   UNL     1       7.252  25.588  54.461  1.00  0.00     0.131 NA
HETATM    3  C   UNL     1       7.181  24.884  53.335  1.00  0.00     0.758 A 
HETATM    4  N   UNL     1       6.307  25.128  52.369  1.00  0.00     0.131 NA
HETATM    5  C   UNL     1       5.552  26.205  52.533  1.00  0.00     0.758 A 
HETATM    6  N   UNL     1       5.591  26.968  53.619  1.00  0.00     0.131 NA
ENDROOT
BRANCH   1   7
HETATM    7  N   UNL     1       6.344  27.265  55.792  1.00  0.00    -0.210 N 
HETATM    8  C   UNL     1       5.051  27.448  56.450  1.00  0.00     0.169 C 
HETATM    9  C   UNL     1       4.661  28.943  56.450  1.00  0.00     0.256 C 
HETATM   10  N   UNL     1       5.799  29.759  57.071  1.00  0.00    -0.060 N 
HETATM   11  H   UNL     1       5.988  29.331  57.985  1.00  0.00     0.280 HD
HETATM   12  C   UNL     1       7.082  29.579  56.245  1.00  0.00     0.256 C 
HETATM   13  C   UNL     1       7.474  28.087  56.231  1.00  0.00     0.169 C 
BRANCH  10  14
HETATM   14  C   UNL     1       5.433  31.209  57.348  1.00  0.00     0.337 C 
BRANCH  14  15
HETATM   15  C   UNL     1       4.211  31.768  56.612  1.00  0.00     0.243 C 
HETATM   16  N   UNL     1       4.468  32.147  55.314  1.00  0.00    -0.355 N 
HETATM   17  H   UNL     1       5.417  32.228  54.970  1.00  0.00     0.162 HD
HETATM   18  O   UNL     1       3.105  31.835  57.138  1.00  0.00    -0.272 OA
BRANCH  16  19
HETATM   19  C   UNL     1       3.436  32.705  54.460  1.00  0.00     0.161 C 
BRANCH  19  20
HETATM   20  C   UNL     1       3.135  31.803  53.293  1.00  0.00    -0.041 A 
HETATM   21  C   UNL     1       3.446  30.437  53.338  1.00  0.00     0.009 A 
HETATM   22  C   UNL     1       3.124  29.599  52.267  1.00  0.00     0.007 A 
HETATM   23  C   UNL     1       2.490  30.111  51.130  1.00  0.00    -0.062 A 
HETATM   24  C   UNL     1       2.077  29.198  50.013  1.00  0.00     0.048 C 
HETATM   25  C   UNL     1       2.176  31.473  51.084  1.00  0.00     0.007 A 
HETATM   26  C   UNL     1       2.504  32.313  52.151  1.00  0.00     0.009 A 
ENDBRANCH  19  20
ENDBRANCH  16  19
ENDBRANCH  14  15
ENDBRANCH  10  14
ENDBRANCH   1   7
BRANCH   3  27
HETATM   27  N   UNL     1       8.014  23.783  53.142  1.00  0.00    -0.187 N 
HETATM   28  H   UNL     1       8.881  24.080  52.713  1.00  0.00     0.184 HD
BRANCH  27  29
HETATM   29  C   UNL     1       8.099  22.568  53.840  1.00  0.00     0.049 A 
HETATM   30  C   UNL     1       8.553  21.431  53.154  1.00  0.00     0.030 A 
HETATM   31  C   UNL     1       8.640  20.190  53.792  1.00  0.00     0.002 A 
HETATM   32  C   UNL     1       8.269  20.066  55.127  1.00  0.00     0.000 A 
HETATM   33  C   UNL     1       7.801  21.180  55.819  1.00  0.00     0.002 A 
HETATM   34  C   UNL     1       7.704  22.416  55.174  1.00  0.00     0.030 A 
ENDBRANCH  27  29
ENDBRANCH   3  27
BRANCH   5  35
HETATM   35  N   UNL     1       4.646  26.475  51.510  1.00  0.00    -0.187 N 
HETATM   36  H   UNL     1       3.711  26.199  51.774  1.00  0.00     0.184 HD
BRANCH  35  37
HETATM   37  C   UNL     1       4.820  26.901  50.188  1.00  0.00     0.049 A 
HETATM   38  C   UNL     1       5.442  28.108  49.847  1.00  0.00     0.030 A 
HETATM   39  C   UNL     1       5.555  28.514  48.513  1.00  0.00     0.002 A 
HETATM   40  C   UNL     1       5.023  27.725  47.497  1.00  0.00     0.000 A 
HETATM   41  C   UNL     1       4.383  26.531  47.816  1.00  0.00     0.002 A 
HETATM   42  C   UNL     1       4.283  26.125  49.150  1.00  0.00     0.030 A 
ENDBRANCH  35  37
ENDBRANCH   5  35
TORSDOF 9
ENDMDL
MODEL 9
REMARK VINA RESULT:      -9.9      3.911     10.138
REMARK  9 active torsions:
REMARK  status: ('A' for Active; 'I' for Inactive)
REMARK    1  A    between atoms: C_5  and  C_6 
REMARK    2  A    between atoms: C_6  and  N_7 
REMARK       I    between atoms: N_7  and  C_8 
REMARK    3  A    between atoms: C_8  and  C_9 
REMARK    4  A    between atoms: C_9  and  N_10 
REMARK    5  A    between atoms: N_14  and  C_15 
REMARK    6  A    between atoms: C_17  and  N_18 
REMARK    7  A    between atoms: N_18  and  C_19 
REMARK    8  A    between atoms: C_26  and  N_27 
REMARK    9  A    between atoms: N_27  and  C_28 
ROOT
HETATM    1  C   UNL     1       5.977  26.242  54.933  1.00  0.00     0.756 A 
HETATM    2  N   UNL     1       6.674  25.125  55.030  1.00  0.00     0.131 NA
HETATM    3  C   UNL     1       7.611  25.083  55.971  1.00  0.00     0.758 A 
HETATM    4  N   UNL     1       7.883  26.093  56.785  1.00  0.00     0.131 NA
HETATM    5  C   UNL     1       7.084  27.146  56.685  1.00  0.00     0.758 A 
HETATM    6  N   UNL     1       6.111  27.243  55.786  1.00  0.00     0.131 NA
ENDROOT
BRANCH   1   7
HETATM    7  N   UNL     1       5.092  26.389  53.885  1.00  0.00    -0.210 N 
HETATM    8  C   UNL     1       4.567  25.200  53.214  1.00  0.00     0.169 C 
HETATM    9  C   UNL     1       5.105  25.126  51.768  1.00  0.00     0.256 C 
HETATM   10  N   UNL     1       4.790  26.440  51.047  1.00  0.00    -0.060 N 
HETATM   11  H   UNL     1       3.781  26.590  51.157  1.00  0.00     0.280 HD
HETATM   12  C   UNL     1       5.474  27.610  51.772  1.00  0.00     0.256 C 
HETATM   13  C   UNL     1       4.950  27.686  53.221  1.00  0.00     0.169 C 
BRANCH  10  14
HETATM   14  C   UNL     1       5.053  26.396  49.549  1.00  0.00     0.337 C 
BRANCH  14  15
HETATM   15  C   UNL     1       3.925  26.885  48.634  1.00  0.00     0.243 C 
HETATM   16  N   UNL     1       2.865  27.448  49.308  1.00  0.00    -0.355 N 
HETATM   17  H   UNL     1       2.774  27.354  50.311  1.00  0.00     0.162 HD
HETATM   18  O   UNL     1       3.991  26.801  47.412  1.00  0.00    -0.272 OA
BRANCH  16  19
HETATM   19  C   UNL     1       1.700  27.962  48.612  1.00  0.00     0.161 C 
BRANCH  19  20
HETATM   20  C   UNL     1       1.426  29.397  48.976  1.00  0.00    -0.041 A 
HETATM   21  C   UNL     1       0.611  30.203  48.169  1.00  0.00     0.009 A 
HETATM   22  C   UNL     1       0.327  31.520  48.537  1.00  0.00     0.007 A 
HETATM   23  C   UNL     1       0.854  32.058  49.716  1.00  0.00    -0.062 A 
HETATM   24  C   UNL     1       0.487  33.448  50.149  1.00  0.00     0.048 C 
HETATM   25  C   UNL     1       1.664  31.255  50.525  1.00  0.00     0.007 A 
HETATM   26  C   UNL     1       1.956  29.940  50.154  1.00  0.00     0.009 A 
ENDBRANCH  19  20
ENDBRANCH  16  19
ENDBRANCH  14  15
ENDBRANCH  10  14
ENDBRANCH   1   7
BRANCH   3  27
HETATM   27  N   UNL     1       8.416  23.953  56.110  1.00  0.00    -0.187 N 
HETATM   28  H   UNL     1       8.796  23.915  57.048  1.00  0.00     0.184 HD
BRANCH  27  29
HETATM   29  C   UNL     1       8.373  22.713  55.453  1.00  0.00     0.049 A 
HETATM   30  C   UNL     1       8.671  22.670  54.082  1.00  0.00     0.030 A 
HETATM   31  C   UNL     1       8.624  21.467  53.371  1.00  0.00     0.002 A 
HETATM   32  C   UNL     1       8.274  20.287  54.021  1.00  0.00     0.000 A 
HETATM   33  C   UNL     1       7.959  20.314  55.377  1.00  0.00     0.002 A 
HETATM   34  C   UNL     1       7.995  21.521  56.082  1.00  0.00     0.030 A 
ENDBRANCH  27  29
ENDBRANCH   3  27
BRANCH   5  35
HETATM   35  N   UNL     1       7.355  28.201  57.551  1.00  0.00    -0.187 N 
HETATM   36  H   UNL     1       6.580  28.361  58.180  1.00  0.00     0.184 HD
BRANCH  35  37
HETATM   37  C   UNL     1       8.399  29.132  57.602  1.00  0.00     0.049 A 
HETATM   38  C   UNL     1       9.478  29.124  56.709  1.00  0.00     0.030 A 
HETATM   39  C   UNL     1      10.521  30.047  56.824  1.00  0.00     0.002 A 
HETATM   40  C   UNL     1      10.514  30.983  57.854  1.00  0.00     0.000 A 
HETATM   41  C   UNL     1       9.461  30.995  58.765  1.00  0.00     0.002 A 
HETATM   42  C   UNL     1       8.415  30.076  58.638  1.00  0.00     0.030 A 
ENDBRANCH  35  37
ENDBRANCH   5  35
TORSDOF 9
ENDMDL
MODEL 10
REMARK VINA RESULT:      -9.8      1.620      5.431
REMARK  9 active torsions:
REMARK  status: ('A' for Active; 'I' for Inactive)
REMARK    1  A    between atoms: C_5  and  C_6 
REMARK    2  A    between atoms: C_6  and  N_7 
REMARK       I    between atoms: N_7  and  C_8 
REMARK    3  A    between atoms: C_8  and  C_9 
REMARK    4  A    between atoms: C_9  and  N_10 
REMARK    5  A    between atoms: N_14  and  C_15 
REMARK    6  A    between atoms: C_17  and  N_18 
REMARK    7  A    between atoms: N_18  and  C_19 
REMARK    8  A    between atoms: C_26  and  N_27 
REMARK    9  A    between atoms: N_27  and  C_28 
ROOT
HETATM    1  C   UNL     1       5.238  27.722  54.431  1.00  0.00     0.756 A 
HETATM    2  N   UNL     1       6.305  26.966  54.618  1.00  0.00     0.131 NA
HETATM    3  C   UNL     1       6.647  26.156  53.621  1.00  0.00     0.758 A 
HETATM    4  N   UNL     1       5.972  26.063  52.484  1.00  0.00     0.131 NA
HETATM    5  C   UNL     1       4.968  26.915  52.338  1.00  0.00     0.758 A 
HETATM    6  N   UNL     1       4.589  27.769  53.282  1.00  0.00     0.131 NA
ENDROOT
BRANCH   1   7
HETATM    7  N   UNL     1       4.760  28.474  55.485  1.00  0.00    -0.210 N 
HETATM    8  C   UNL     1       4.084  29.743  55.215  1.00  0.00     0.169 C 
HETATM    9  C   UNL     1       4.937  30.920  55.738  1.00  0.00     0.256 C 
HETATM   10  N   UNL     1       5.262  30.687  57.217  1.00  0.00    -0.060 N 
HETATM   11  H   UNL     1       4.362  30.526  57.683  1.00  0.00     0.280 HD
HETATM   12  C   UNL     1       6.062  29.385  57.377  1.00  0.00     0.256 C 
HETATM   13  C   UNL     1       5.222  28.204  56.848  1.00  0.00     0.169 C 
BRANCH  10  14
HETATM   14  C   UNL     1       5.888  31.892  57.904  1.00  0.00     0.337 C 
BRANCH  14  15
HETATM   15  C   UNL     1       5.076  32.547  59.026  1.00  0.00     0.243 C 
HETATM   16  N   UNL     1       4.686  31.673  60.016  1.00  0.00    -0.355 N 
HETATM   17  H   UNL     1       4.766  30.672  59.891  1.00  0.00     0.162 HD
HETATM   18  O   UNL     1       4.832  33.749  59.041  1.00  0.00    -0.272 OA
BRANCH  16  19
HETATM   19  C   UNL     1       3.905  32.108  61.159  1.00  0.00     0.161 C 
BRANCH  19  20
HETATM   20  C   UNL     1       4.783  32.625  62.266  1.00  0.00    -0.041 A 
HETATM   21  C   UNL     1       4.366  33.686  63.082  1.00  0.00     0.009 A 
HETATM   22  C   UNL     1       5.170  34.132  64.135  1.00  0.00     0.007 A 
HETATM   23  C   UNL     1       6.406  33.529  64.389  1.00  0.00    -0.062 A 
HETATM   24  C   UNL     1       7.234  33.957  65.566  1.00  0.00     0.048 C 
HETATM   25  C   UNL     1       6.823  32.468  63.580  1.00  0.00     0.007 A 
HETATM   26  C   UNL     1       6.024  32.027  62.521  1.00  0.00     0.009 A 
ENDBRANCH  19  20
ENDBRANCH  16  19
ENDBRANCH  14  15
ENDBRANCH  10  14
ENDBRANCH   1   7
BRANCH   3  27
HETATM   27  N   UNL     1       7.738  25.298  53.757  1.00  0.00    -0.187 N 
HETATM   28  H   UNL     1       8.534  25.809  54.117  1.00  0.00     0.184 HD
BRANCH  27  29
HETATM   29  C   UNL     1       7.789  23.914  53.982  1.00  0.00     0.049 A 
HETATM   30  C   UNL     1       7.969  23.061  52.882  1.00  0.00     0.030 A 
HETATM   31  C   UNL     1       8.007  21.673  53.043  1.00  0.00     0.002 A 
HETATM   32  C   UNL     1       7.861  21.114  54.309  1.00  0.00     0.000 A 
HETATM   33  C   UNL     1       7.665  21.944  55.410  1.00  0.00     0.002 A 
HETATM   34  C   UNL     1       7.615  23.331  55.243  1.00  0.00     0.030 A 
ENDBRANCH  27  29
ENDBRANCH   3  27
BRANCH   5  35
HETATM   35  N   UNL     1       4.269  26.832  51.137  1.00  0.00    -0.187 N 
HETATM   36  H   UNL     1       3.627  26.052  51.145  1.00  0.00     0.184 HD
BRANCH  35  37
HETATM   37  C   UNL     1       4.401  27.516  49.922  1.00  0.00     0.049 A 
HETATM   38  C   UNL     1       3.969  28.834  49.733  1.00  0.00     0.030 A 
HETATM   39  C   UNL     1       4.082  29.463  48.490  1.00  0.00     0.002 A 
HETATM   40  C   UNL     1       4.610  28.771  47.404  1.00  0.00     0.000 A 
HETATM   41  C   UNL     1       5.027  27.453  47.565  1.00  0.00     0.002 A 
HETATM   42  C   UNL     1       4.922  26.833  48.813  1.00  0.00     0.030 A 
ENDBRANCH  35  37
ENDBRANCH   5  35
TORSDOF 9
ENDMDL
