MODEL 1
REMARK VINA RESULT:      -9.0      0.000      0.000
REMARK  3 active torsions:
REMARK  status: ('A' for Active; 'I' for Inactive)
REMARK    1  A    between atoms: C_6  and  N_7 
REMARK       I    between atoms: N_7  and  C_8 
REMARK    2  A    between atoms: C_8  and  C_9 
REMARK    3  A    between atoms: C_9  and  C_10 
ROOT
HETATM    1  C   UNL     1       7.186  25.077  55.323  1.00  0.00     0.286 C 
HETATM    2  N   UNL     1       7.118  23.782  54.527  1.00  0.00    -0.056 N 
HETATM    3  H   UNL     1       6.478  23.157  55.064  1.00  0.00     0.278 HD
HETATM    4  H   UNL     1       6.667  23.937  53.619  1.00  0.00     0.278 HD
HETATM    5  C   UNL     1       8.472  23.139  54.368  1.00  0.00     0.209 C 
HETATM    6  C   UNL     1       9.074  22.859  55.771  1.00  0.00     0.115 C 
HETATM    7  N   UNL     1       9.002  24.027  56.651  1.00  0.00    -0.353 N 
HETATM    8  C   UNL     1       7.969  24.933  56.645  1.00  0.00     0.249 C 
HETATM    9  O   UNL     1       7.782  25.660  57.614  1.00  0.00    -0.271 OA
HETATM   10  C   UNL     1       8.336  21.881  53.510  1.00  0.00     0.035 C 
HETATM   11  C   UNL     1       7.684  20.713  54.245  1.00  0.00     0.002 C 
HETATM   12  C   UNL     1       8.389  20.425  55.564  1.00  0.00     0.002 C 
HETATM   13  C   UNL     1       8.417  21.655  56.461  1.00  0.00     0.027 C 
HETATM   14  H   UNL     1       9.498  23.986  57.540  1.00  0.00     0.163 HD
ENDROOT
BRANCH   1  15
HETATM   15  C   UNL     1       5.799  25.698  55.539  1.00  0.00     0.146 C 
BRANCH  15  16
HETATM   16  C   UNL     1       5.548  26.856  54.612  1.00  0.00     0.224 C 
HETATM   17  N   UNL     1       6.096  28.083  54.805  1.00  0.00    -0.327 N 
HETATM   18  H   UNL     1       5.840  28.722  54.056  1.00  0.00     0.169 HD
HETATM   19  O   UNL     1       4.890  26.655  53.579  1.00  0.00    -0.273 OA
BRANCH  17  20
HETATM   20  C   UNL     1       6.952  28.643  55.777  1.00  0.00     0.035 A 
HETATM   21  C   UNL     1       8.331  28.821  55.660  1.00  0.00     0.037 A 
HETATM   22  C   UNL     1       9.094  29.394  56.701  1.00  0.00    -0.054 A 
HETATM   23  C   UNL     1       8.454  29.835  57.872  1.00  0.00    -0.056 A 
HETATM   24  C   UNL     1      10.582  29.541  56.524  1.00  0.00     0.049 C 
HETATM   25  C   UNL     1       9.217  30.461  59.007  1.00  0.00     0.049 C 
HETATM   26  C   UNL     1       7.074  29.645  57.997  1.00  0.00     0.009 A 
HETATM   27  C   UNL     1       6.338  29.054  56.967  1.00  0.00     0.030 A 
ENDBRANCH  17  20
ENDBRANCH  15  16
ENDBRANCH   1  15
TORSDOF 3
ENDMDL
MODEL 2
REMARK VINA RESULT:      -8.8      1.561      7.171
REMARK  3 active torsions:
REMARK  status: ('A' for Active; 'I' for Inactive)
REMARK    1  A    between atoms: C_6  and  N_7 
REMARK       I    between atoms: N_7  and  C_8 
REMARK    2  A    between atoms: C_8  and  C_9 
REMARK    3  A    between atoms: C_9  and  C_10 
ROOT
HETATM    1  C   UNL     1       6.801  27.500  56.106  1.00  0.00     0.286 C 
HETATM    2  N   UNL     1       8.287  27.830  56.112  1.00  0.00    -0.056 N 
HETATM    3  H   UNL     1       8.619  27.608  57.075  1.00  0.00     0.278 HD
HETATM    4  H   UNL     1       8.801  27.204  55.483  1.00  0.00     0.278 HD
HETATM    5  C   UNL     1       8.550  29.279  55.785  1.00  0.00     0.209 C 
HETATM    6  C   UNL     1       7.811  30.178  56.811  1.00  0.00     0.115 C 
HETATM    7  N   UNL     1       6.410  29.789  56.985  1.00  0.00    -0.353 N 
HETATM    8  C   UNL     1       5.959  28.492  56.936  1.00  0.00     0.249 C 
HETATM    9  O   UNL     1       4.878  28.197  57.433  1.00  0.00    -0.271 OA
HETATM   10  C   UNL     1      10.059  29.522  55.749  1.00  0.00     0.035 C 
HETATM   11  C   UNL     1      10.702  29.545  57.133  1.00  0.00     0.002 C 
HETATM   12  C   UNL     1       9.993  30.526  58.058  1.00  0.00     0.002 C 
HETATM   13  C   UNL     1       8.509  30.203  58.179  1.00  0.00     0.027 C 
HETATM   14  H   UNL     1       5.808  30.406  57.528  1.00  0.00     0.163 HD
ENDROOT
BRANCH   1  15
HETATM   15  C   UNL     1       6.530  26.042  56.501  1.00  0.00     0.146 C 
BRANCH  15  16
HETATM   16  C   UNL     1       7.547  25.524  57.482  1.00  0.00     0.224 C 
HETATM   17  N   UNL     1       8.230  24.366  57.286  1.00  0.00    -0.327 N 
HETATM   18  H   UNL     1       8.897  24.202  58.037  1.00  0.00     0.169 HD
HETATM   19  O   UNL     1       7.842  26.230  58.458  1.00  0.00    -0.273 OA
BRANCH  17  20
HETATM   20  C   UNL     1       8.240  23.381  56.276  1.00  0.00     0.035 A 
HETATM   21  C   UNL     1       8.236  21.999  56.469  1.00  0.00     0.037 A 
HETATM   22  C   UNL     1       8.248  21.101  55.381  1.00  0.00    -0.054 A 
HETATM   23  C   UNL     1       8.225  21.598  54.066  1.00  0.00    -0.056 A 
HETATM   24  C   UNL     1       8.264  19.619  55.652  1.00  0.00     0.049 C 
HETATM   25  C   UNL     1       8.227  20.686  52.870  1.00  0.00     0.049 C 
HETATM   26  C   UNL     1       8.243  22.983  53.870  1.00  0.00     0.009 A 
HETATM   27  C   UNL     1       8.256  23.858  54.959  1.00  0.00     0.030 A 
ENDBRANCH  17  20
ENDBRANCH  15  16
ENDBRANCH   1  15
TORSDOF 3
ENDMDL
MODEL 3
REMARK VINA RESULT:      -8.8      1.731      6.236
REMARK  3 active torsions:
REMARK  status: ('A' for Active; 'I' for Inactive)
REMARK    1  A    between atoms: C_6  and  N_7 
REMARK       I    between atoms: N_7  and  C_8 
REMARK    2  A    between atoms: C_8  and  C_9 
REMARK    3  A    between atoms: C_9  and  C_10 
ROOT
HETATM    1  C   UNL     1       5.272  26.613  55.006  1.00  0.00     0.286 C 
HETATM    2  N   UNL     1       6.241  27.784  54.924  1.00  0.00    -0.056 N 
HETATM    3  H   UNL     1       7.157  27.370  54.649  1.00  0.00     0.278 HD
HETATM    4  H   UNL     1       5.977  28.422  54.165  1.00  0.00     0.278 HD
HETATM    5  C   UNL     1       6.365  28.514  56.238  1.00  0.00     0.209 C 
HETATM    6  C   UNL     1       6.838  27.520  57.332  1.00  0.00     0.115 C 
HETATM    7  N   UNL     1       6.051  26.285  57.340  1.00  0.00    -0.353 N 
HETATM    8  C   UNL     1       5.543  25.688  56.211  1.00  0.00     0.249 C 
HETATM    9  O   UNL     1       5.217  24.507  56.232  1.00  0.00    -0.271 OA
HETATM   10  C   UNL     1       7.303  29.709  56.066  1.00  0.00     0.035 C 
HETATM   11  C   UNL     1       8.773  29.314  55.955  1.00  0.00     0.002 C 
HETATM   12  C   UNL     1       9.198  28.425  57.117  1.00  0.00     0.002 C 
HETATM   13  C   UNL     1       8.329  27.177  57.209  1.00  0.00     0.027 C 
HETATM   14  H   UNL     1       6.192  25.634  58.112  1.00  0.00     0.163 HD
ENDROOT
BRANCH   1  15
HETATM   15  C   UNL     1       5.194  25.833  53.687  1.00  0.00     0.146 C 
BRANCH  15  16
HETATM   16  C   UNL     1       6.363  26.127  52.786  1.00  0.00     0.224 C 
HETATM   17  N   UNL     1       7.461  25.330  52.726  1.00  0.00    -0.327 N 
HETATM   18  H   UNL     1       8.125  25.672  52.036  1.00  0.00     0.169 HD
HETATM   19  O   UNL     1       6.279  27.083  52.000  1.00  0.00    -0.273 OA
BRANCH  17  20
HETATM   20  C   UNL     1       7.857  24.141  53.373  1.00  0.00     0.035 A 
HETATM   21  C   UNL     1       7.862  22.860  52.818  1.00  0.00     0.037 A 
HETATM   22  C   UNL     1       8.279  21.734  53.559  1.00  0.00    -0.054 A 
HETATM   23  C   UNL     1       8.741  21.900  54.877  1.00  0.00    -0.056 A 
HETATM   24  C   UNL     1       8.242  20.374  52.912  1.00  0.00     0.049 C 
HETATM   25  C   UNL     1       9.207  20.736  55.708  1.00  0.00     0.049 C 
HETATM   26  C   UNL     1       8.725  23.180  55.439  1.00  0.00     0.009 A 
HETATM   27  C   UNL     1       8.285  24.280  54.699  1.00  0.00     0.030 A 
ENDBRANCH  17  20
ENDBRANCH  15  16
ENDBRANCH   1  15
TORSDOF 3
ENDMDL
MODEL 4
REMARK VINA RESULT:      -8.8      3.543      7.808
REMARK  3 active torsions:
REMARK  status: ('A' for Active; 'I' for Inactive)
REMARK    1  A    between atoms: C_6  and  N_7 
REMARK       I    between atoms: N_7  and  C_8 
REMARK    2  A    between atoms: C_8  and  C_9 
REMARK    3  A    between atoms: C_9  and  C_10 
ROOT
HETATM    1  C   UNL     1       5.099  27.195  52.367  1.00  0.00     0.286 C 
HETATM    2  N   UNL     1       3.807  27.977  52.173  1.00  0.00    -0.056 N 
HETATM    3  H   UNL     1       3.080  27.264  51.948  1.00  0.00     0.278 HD
HETATM    4  H   UNL     1       3.512  28.416  53.052  1.00  0.00     0.278 HD
HETATM    5  C   UNL     1       3.915  28.989  51.060  1.00  0.00     0.209 C 
HETATM    6  C   UNL     1       4.290  28.262  49.742  1.00  0.00     0.115 C 
HETATM    7  N   UNL     1       5.423  27.350  49.911  1.00  0.00    -0.353 N 
HETATM    8  C   UNL     1       5.660  26.619  51.050  1.00  0.00     0.249 C 
HETATM    9  O   UNL     1       6.387  25.633  51.009  1.00  0.00    -0.271 OA
HETATM   10  C   UNL     1       2.608  29.775  50.964  1.00  0.00     0.035 C 
HETATM   11  C   UNL     1       1.464  28.974  50.348  1.00  0.00     0.002 C 
HETATM   12  C   UNL     1       1.865  28.375  49.006  1.00  0.00     0.002 C 
HETATM   13  C   UNL     1       3.104  27.499  49.135  1.00  0.00     0.027 C 
HETATM   14  H   UNL     1       5.832  26.937  49.074  1.00  0.00     0.163 HD
ENDROOT
BRANCH   1  15
HETATM   15  C   UNL     1       4.968  26.122  53.456  1.00  0.00     0.146 C 
BRANCH  15  16
HETATM   16  C   UNL     1       5.855  26.406  54.639  1.00  0.00     0.224 C 
HETATM   17  N   UNL     1       6.793  25.529  55.079  1.00  0.00    -0.327 N 
HETATM   18  H   UNL     1       7.315  25.912  55.863  1.00  0.00     0.169 HD
HETATM   19  O   UNL     1       5.790  27.524  55.172  1.00  0.00    -0.273 OA
BRANCH  17  20
HETATM   20  C   UNL     1       7.216  24.245  54.674  1.00  0.00     0.035 A 
HETATM   21  C   UNL     1       7.221  23.090  55.457  1.00  0.00     0.037 A 
HETATM   22  C   UNL     1       7.668  21.853  54.948  1.00  0.00    -0.054 A 
HETATM   23  C   UNL     1       8.084  21.760  53.608  1.00  0.00    -0.056 A 
HETATM   24  C   UNL     1       7.670  20.645  55.849  1.00  0.00     0.049 C 
HETATM   25  C   UNL     1       8.560  20.464  53.011  1.00  0.00     0.049 C 
HETATM   26  C   UNL     1       8.092  22.918  52.824  1.00  0.00     0.009 A 
HETATM   27  C   UNL     1       7.669  24.140  53.352  1.00  0.00     0.030 A 
ENDBRANCH  17  20
ENDBRANCH  15  16
ENDBRANCH   1  15
TORSDOF 3
ENDMDL
MODEL 5
REMARK VINA RESULT:      -8.5      2.002      7.534
REMARK  3 active torsions:
REMARK  status: ('A' for Active; 'I' for Inactive)
REMARK    1  A    between atoms: C_6  and  N_7 
REMARK       I    between atoms: N_7  and  C_8 
REMARK    2  A    between atoms: C_8  and  C_9 
REMARK    3  A    between atoms: C_9  and  C_10 
ROOT
HETATM    1  C   UNL     1       6.435  27.599  56.399  1.00  0.00     0.286 C 
HETATM    2  N   UNL     1       5.732  28.525  57.380  1.00  0.00    -0.056 N 
HETATM    3  H   UNL     1       4.729  28.240  57.366  1.00  0.00     0.278 HD
HETATM    4  H   UNL     1       6.061  28.358  58.338  1.00  0.00     0.278 HD
HETATM    5  C   UNL     1       5.873  29.977  56.995  1.00  0.00     0.209 C 
HETATM    6  C   UNL     1       5.293  30.187  55.571  1.00  0.00     0.115 C 
HETATM    7  N   UNL     1       5.798  29.202  54.613  1.00  0.00    -0.353 N 
HETATM    8  C   UNL     1       6.075  27.893  54.927  1.00  0.00     0.249 C 
HETATM    9  O   UNL     1       6.144  27.048  54.042  1.00  0.00    -0.271 OA
HETATM   10  C   UNL     1       5.198  30.848  58.054  1.00  0.00     0.035 C 
HETATM   11  C   UNL     1       3.674  30.807  57.991  1.00  0.00     0.002 C 
HETATM   12  C   UNL     1       3.168  31.126  56.590  1.00  0.00     0.002 C 
HETATM   13  C   UNL     1       3.757  30.176  55.556  1.00  0.00     0.027 C 
HETATM   14  H   UNL     1       5.587  29.344  53.626  1.00  0.00     0.163 HD
ENDROOT
BRANCH   1  15
HETATM   15  C   UNL     1       6.237  26.120  56.756  1.00  0.00     0.146 C 
BRANCH  15  16
HETATM   16  C   UNL     1       7.367  25.585  57.593  1.00  0.00     0.224 C 
HETATM   17  N   UNL     1       8.095  24.495  57.233  1.00  0.00    -0.327 N 
HETATM   18  H   UNL     1       8.835  24.310  57.906  1.00  0.00     0.169 HD
HETATM   19  O   UNL     1       7.708  26.219  58.603  1.00  0.00    -0.273 OA
BRANCH  17  20
HETATM   20  C   UNL     1       8.070  23.606  56.139  1.00  0.00     0.035 A 
HETATM   21  C   UNL     1       7.962  23.955  54.792  1.00  0.00     0.037 A 
HETATM   22  C   UNL     1       7.946  22.978  53.773  1.00  0.00    -0.054 A 
HETATM   23  C   UNL     1       8.080  21.619  54.109  1.00  0.00    -0.056 A 
HETATM   24  C   UNL     1       7.806  23.416  52.339  1.00  0.00     0.049 C 
HETATM   25  C   UNL     1       8.079  20.538  53.063  1.00  0.00     0.049 C 
HETATM   26  C   UNL     1       8.175  21.266  55.459  1.00  0.00     0.009 A 
HETATM   27  C   UNL     1       8.165  22.245  56.456  1.00  0.00     0.030 A 
ENDBRANCH  17  20
ENDBRANCH  15  16
ENDBRANCH   1  15
TORSDOF 3
ENDMDL
MODEL 6
REMARK VINA RESULT:      -8.4      3.536      7.446
REMARK  3 active torsions:
REMARK  status: ('A' for Active; 'I' for Inactive)
REMARK    1  A    between atoms: C_6  and  N_7 
REMARK       I    between atoms: N_7  and  C_8 
REMARK    2  A    between atoms: C_8  and  C_9 
REMARK    3  A    between atoms: C_9  and  C_10 
ROOT
HETATM    1  C   UNL     1       4.312  26.939  52.843  1.00  0.00     0.286 C 
HETATM    2  N   UNL     1       4.816  27.037  51.410  1.00  0.00    -0.056 N 
HETATM    3  H   UNL     1       5.770  27.451  51.476  1.00  0.00     0.278 HD
HETATM    4  H   UNL     1       4.940  26.102  51.004  1.00  0.00     0.278 HD
HETATM    5  C   UNL     1       3.925  27.898  50.549  1.00  0.00     0.209 C 
HETATM    6  C   UNL     1       3.834  29.317  51.169  1.00  0.00     0.115 C 
HETATM    7  N   UNL     1       3.528  29.282  52.600  1.00  0.00    -0.353 N 
HETATM    8  C   UNL     1       3.985  28.314  53.462  1.00  0.00     0.249 C 
HETATM    9  O   UNL     1       4.003  28.524  54.670  1.00  0.00    -0.271 OA
HETATM   10  C   UNL     1       4.457  27.900  49.116  1.00  0.00     0.035 C 
HETATM   11  C   UNL     1       5.720  28.738  48.939  1.00  0.00     0.002 C 
HETATM   12  C   UNL     1       5.526  30.152  49.472  1.00  0.00     0.002 C 
HETATM   13  C   UNL     1       5.109  30.142  50.937  1.00  0.00     0.027 C 
HETATM   14  H   UNL     1       3.308  30.163  53.063  1.00  0.00     0.163 HD
ENDROOT
BRANCH   1  15
HETATM   15  C   UNL     1       5.252  26.115  53.732  1.00  0.00     0.146 C 
BRANCH  15  16
HETATM   16  C   UNL     1       6.696  26.482  53.521  1.00  0.00     0.224 C 
HETATM   17  N   UNL     1       7.712  25.602  53.716  1.00  0.00    -0.327 N 
HETATM   18  H   UNL     1       8.610  26.021  53.488  1.00  0.00     0.169 HD
HETATM   19  O   UNL     1       6.961  27.602  53.059  1.00  0.00    -0.273 OA
BRANCH  17  20
HETATM   20  C   UNL     1       7.790  24.254  54.125  1.00  0.00     0.035 A 
HETATM   21  C   UNL     1       7.870  23.139  53.289  1.00  0.00     0.037 A 
HETATM   22  C   UNL     1       7.942  21.829  53.807  1.00  0.00    -0.054 A 
HETATM   23  C   UNL     1       7.975  21.631  55.199  1.00  0.00    -0.056 A 
HETATM   24  C   UNL     1       8.006  20.665  52.854  1.00  0.00     0.049 C 
HETATM   25  C   UNL     1       8.061  20.257  55.805  1.00  0.00     0.049 C 
HETATM   26  C   UNL     1       7.881  22.745  56.039  1.00  0.00     0.009 A 
HETATM   27  C   UNL     1       7.785  24.034  55.508  1.00  0.00     0.030 A 
ENDBRANCH  17  20
ENDBRANCH  15  16
ENDBRANCH   1  15
TORSDOF 3
ENDMDL
MODEL 7
REMARK VINA RESULT:      -8.4      2.826      5.001
REMARK  3 active torsions:
REMARK  status: ('A' for Active; 'I' for Inactive)
REMARK    1  A    between atoms: C_6  and  N_7 
REMARK       I    between atoms: N_7  and  C_8 
REMARK    2  A    between atoms: C_8  and  C_9 
REMARK    3  A    between atoms: C_9  and  C_10 
ROOT
HETATM    1  C   UNL     1       6.550  28.312  57.530  1.00  0.00     0.286 C 
HETATM    2  N   UNL     1       7.446  27.142  57.148  1.00  0.00    -0.056 N 
HETATM    3  H   UNL     1       7.647  27.263  56.132  1.00  0.00     0.278 HD
HETATM    4  H   UNL     1       8.351  27.206  57.627  1.00  0.00     0.278 HD
HETATM    5  C   UNL     1       6.783  25.811  57.399  1.00  0.00     0.209 C 
HETATM    6  C   UNL     1       5.458  25.739  56.594  1.00  0.00     0.115 C 
HETATM    7  N   UNL     1       4.628  26.931  56.780  1.00  0.00    -0.353 N 
HETATM    8  C   UNL     1       5.128  28.201  56.941  1.00  0.00     0.249 C 
HETATM    9  O   UNL     1       4.413  29.175  56.734  1.00  0.00    -0.271 OA
HETATM   10  C   UNL     1       7.759  24.687  57.052  1.00  0.00     0.035 C 
HETATM   11  C   UNL     1       7.953  24.495  55.550  1.00  0.00     0.002 C 
HETATM   12  C   UNL     1       6.619  24.326  54.835  1.00  0.00     0.002 C 
HETATM   13  C   UNL     1       5.695  25.509  55.094  1.00  0.00     0.027 C 
HETATM   14  H   UNL     1       3.680  26.915  56.408  1.00  0.00     0.163 HD
ENDROOT
BRANCH   1  15
HETATM   15  C   UNL     1       7.200  29.666  57.216  1.00  0.00     0.146 C 
BRANCH  15  16
HETATM   16  C   UNL     1       8.678  29.662  57.499  1.00  0.00     0.224 C 
HETATM   17  N   UNL     1       9.209  30.192  58.632  1.00  0.00    -0.327 N 
HETATM   18  H   UNL     1      10.217  30.063  58.660  1.00  0.00     0.169 HD
HETATM   19  O   UNL     1       9.431  29.068  56.712  1.00  0.00    -0.273 OA
BRANCH  17  20
HETATM   20  C   UNL     1       8.675  30.838  59.767  1.00  0.00     0.035 A 
HETATM   21  C   UNL     1       7.547  31.659  59.798  1.00  0.00     0.037 A 
HETATM   22  C   UNL     1       7.100  32.257  60.995  1.00  0.00    -0.054 A 
HETATM   23  C   UNL     1       7.775  31.994  62.200  1.00  0.00    -0.056 A 
HETATM   24  C   UNL     1       5.888  33.151  60.961  1.00  0.00     0.049 C 
HETATM   25  C   UNL     1       7.335  32.597  63.506  1.00  0.00     0.049 C 
HETATM   26  C   UNL     1       8.913  31.182  62.170  1.00  0.00     0.009 A 
HETATM   27  C   UNL     1       9.357  30.618  60.971  1.00  0.00     0.030 A 
ENDBRANCH  17  20
ENDBRANCH  15  16
ENDBRANCH   1  15
TORSDOF 3
ENDMDL
MODEL 8
REMARK VINA RESULT:      -8.2      2.067      6.514
REMARK  3 active torsions:
REMARK  status: ('A' for Active; 'I' for Inactive)
REMARK    1  A    between atoms: C_6  and  N_7 
REMARK       I    between atoms: N_7  and  C_8 
REMARK    2  A    between atoms: C_8  and  C_9 
REMARK    3  A    between atoms: C_9  and  C_10 
ROOT
HETATM    1  C   UNL     1       5.983  27.442  53.692  1.00  0.00     0.286 C 
HETATM    2  N   UNL     1       7.177  27.429  54.636  1.00  0.00    -0.056 N 
HETATM    3  H   UNL     1       6.884  26.846  55.450  1.00  0.00     0.278 HD
HETATM    4  H   UNL     1       7.972  26.941  54.209  1.00  0.00     0.278 HD
HETATM    5  C   UNL     1       7.559  28.815  55.090  1.00  0.00     0.209 C 
HETATM    6  C   UNL     1       6.344  29.477  55.793  1.00  0.00     0.115 C 
HETATM    7  N   UNL     1       5.114  29.360  55.007  1.00  0.00    -0.353 N 
HETATM    8  C   UNL     1       4.798  28.273  54.228  1.00  0.00     0.249 C 
HETATM    9  O   UNL     1       3.636  28.072  53.893  1.00  0.00    -0.271 OA
HETATM   10  C   UNL     1       8.798  28.730  55.982  1.00  0.00     0.035 C 
HETATM   11  C   UNL     1       8.506  28.175  57.373  1.00  0.00     0.002 C 
HETATM   12  C   UNL     1       7.373  28.938  58.049  1.00  0.00     0.002 C 
HETATM   13  C   UNL     1       6.106  28.917  57.203  1.00  0.00     0.027 C 
HETATM   14  H   UNL     1       4.298  29.885  55.317  1.00  0.00     0.163 HD
ENDROOT
BRANCH   1  15
HETATM   15  C   UNL     1       5.555  26.027  53.281  1.00  0.00     0.146 C 
BRANCH  15  16
HETATM   16  C   UNL     1       6.392  25.488  52.152  1.00  0.00     0.224 C 
HETATM   17  N   UNL     1       7.246  24.444  52.306  1.00  0.00    -0.327 N 
HETATM   18  H   UNL     1       7.694  24.203  51.426  1.00  0.00     0.169 HD
HETATM   19  O   UNL     1       6.224  25.956  51.016  1.00  0.00    -0.273 OA
BRANCH  17  20
HETATM   20  C   UNL     1       7.614  23.617  53.389  1.00  0.00     0.035 A 
HETATM   21  C   UNL     1       7.924  24.038  54.683  1.00  0.00     0.037 A 
HETATM   22  C   UNL     1       8.281  23.121  55.694  1.00  0.00    -0.054 A 
HETATM   23  C   UNL     1       8.290  21.743  55.412  1.00  0.00    -0.056 A 
HETATM   24  C   UNL     1       8.626  23.637  57.066  1.00  0.00     0.049 C 
HETATM   25  C   UNL     1       8.654  20.721  56.455  1.00  0.00     0.049 C 
HETATM   26  C   UNL     1       7.993  21.320  54.113  1.00  0.00     0.009 A 
HETATM   27  C   UNL     1       7.665  22.244  53.119  1.00  0.00     0.030 A 
ENDBRANCH  17  20
ENDBRANCH  15  16
ENDBRANCH   1  15
TORSDOF 3
ENDMDL
MODEL 9
REMARK VINA RESULT:      -8.1      4.169      7.337
REMARK  3 active torsions:
REMARK  status: ('A' for Active; 'I' for Inactive)
REMARK    1  A    between atoms: C_6  and  N_7 
REMARK       I    between atoms: N_7  and  C_8 
REMARK    2  A    between atoms: C_8  and  C_9 
REMARK    3  A    between atoms: C_9  and  C_10 
ROOT
HETATM    1  C   UNL     1       4.647  27.623  51.506  1.00  0.00     0.286 C 
HETATM    2  N   UNL     1       3.337  28.023  50.841  1.00  0.00    -0.056 N 
HETATM    3  H   UNL     1       2.722  27.184  50.907  1.00  0.00     0.278 HD
HETATM    4  H   UNL     1       2.868  28.762  51.376  1.00  0.00     0.278 HD
HETATM    5  C   UNL     1       3.529  28.424  49.400  1.00  0.00     0.209 C 
HETATM    6  C   UNL     1       4.172  27.245  48.622  1.00  0.00     0.115 C 
HETATM    7  N   UNL     1       5.341  26.694  49.311  1.00  0.00    -0.353 N 
HETATM    8  C   UNL     1       5.459  26.606  50.678  1.00  0.00     0.249 C 
HETATM    9  O   UNL     1       6.268  25.833  51.177  1.00  0.00    -0.271 OA
HETATM   10  C   UNL     1       2.189  28.870  48.817  1.00  0.00     0.035 C 
HETATM   11  C   UNL     1       1.233  27.712  48.541  1.00  0.00     0.002 C 
HETATM   12  C   UNL     1       1.894  26.639  47.684  1.00  0.00     0.002 C 
HETATM   13  C   UNL     1       3.170  26.118  48.332  1.00  0.00     0.027 C 
HETATM   14  H   UNL     1       5.913  26.015  48.812  1.00  0.00     0.163 HD
ENDROOT
BRANCH   1  15
HETATM   15  C   UNL     1       4.442  27.155  52.953  1.00  0.00     0.146 C 
BRANCH  15  16
HETATM   16  C   UNL     1       5.357  27.866  53.912  1.00  0.00     0.224 C 
HETATM   17  N   UNL     1       6.280  27.213  54.665  1.00  0.00    -0.327 N 
HETATM   18  H   UNL     1       6.827  27.864  55.223  1.00  0.00     0.169 HD
HETATM   19  O   UNL     1       5.333  29.105  53.946  1.00  0.00    -0.273 OA
BRANCH  17  20
HETATM   20  C   UNL     1       6.660  25.862  54.814  1.00  0.00     0.035 A 
HETATM   21  C   UNL     1       7.196  25.040  53.823  1.00  0.00     0.037 A 
HETATM   22  C   UNL     1       7.541  23.696  54.082  1.00  0.00    -0.054 A 
HETATM   23  C   UNL     1       7.382  23.174  55.378  1.00  0.00    -0.056 A 
HETATM   24  C   UNL     1       8.097  22.852  52.966  1.00  0.00     0.049 C 
HETATM   25  C   UNL     1       7.743  21.752  55.712  1.00  0.00     0.049 C 
HETATM   26  C   UNL     1       6.833  23.992  56.370  1.00  0.00     0.009 A 
HETATM   27  C   UNL     1       6.473  25.312  56.089  1.00  0.00     0.030 A 
ENDBRANCH  17  20
ENDBRANCH  15  16
ENDBRANCH   1  15
TORSDOF 3
ENDMDL
MODEL 10
REMARK VINA RESULT:      -8.1      1.663      2.533
REMARK  3 active torsions:
REMARK  status: ('A' for Active; 'I' for Inactive)
REMARK    1  A    between atoms: C_6  and  N_7 
REMARK       I    between atoms: N_7  and  C_8 
REMARK    2  A    between atoms: C_8  and  C_9 
REMARK    3  A    between atoms: C_9  and  C_10 
ROOT
HETATM    1  C   UNL     1       6.806  24.655  54.555  1.00  0.00     0.286 C 
HETATM    2  N   UNL     1       7.100  23.340  53.848  1.00  0.00    -0.056 N 
HETATM    3  H   UNL     1       6.420  22.654  54.239  1.00  0.00     0.278 HD
HETATM    4  H   UNL     1       6.888  23.411  52.847  1.00  0.00     0.278 HD
HETATM    5  C   UNL     1       8.515  22.872  54.079  1.00  0.00     0.209 C 
HETATM    6  C   UNL     1       8.758  22.711  55.603  1.00  0.00     0.115 C 
HETATM    7  N   UNL     1       8.322  23.884  56.364  1.00  0.00    -0.353 N 
HETATM    8  C   UNL     1       7.228  24.650  56.040  1.00  0.00     0.249 C 
HETATM    9  O   UNL     1       6.711  25.373  56.883  1.00  0.00    -0.271 OA
HETATM   10  C   UNL     1       8.756  21.584  53.292  1.00  0.00     0.035 C 
HETATM   11  C   UNL     1       8.075  20.364  53.905  1.00  0.00     0.002 C 
HETATM   12  C   UNL     1       8.440  20.204  55.375  1.00  0.00     0.002 C 
HETATM   13  C   UNL     1       8.088  21.453  56.174  1.00  0.00     0.027 C 
HETATM   14  H   UNL     1       8.570  23.932  57.351  1.00  0.00     0.163 HD
ENDROOT
BRANCH   1  15
HETATM   15  C   UNL     1       5.349  25.098  54.372  1.00  0.00     0.146 C 
BRANCH  15  16
HETATM   16  C   UNL     1       5.187  26.041  53.211  1.00  0.00     0.224 C 
HETATM   17  N   UNL     1       5.159  27.391  53.360  1.00  0.00    -0.327 N 
HETATM   18  H   UNL     1       5.079  27.859  52.461  1.00  0.00     0.169 HD
HETATM   19  O   UNL     1       5.173  25.571  52.063  1.00  0.00    -0.273 OA
BRANCH  17  20
HETATM   20  C   UNL     1       5.249  28.267  54.463  1.00  0.00     0.035 A 
HETATM   21  C   UNL     1       4.183  28.890  55.114  1.00  0.00     0.037 A 
HETATM   22  C   UNL     1       4.389  29.752  56.212  1.00  0.00    -0.054 A 
HETATM   23  C   UNL     1       5.692  29.966  56.695  1.00  0.00    -0.056 A 
HETATM   24  C   UNL     1       3.200  30.411  56.860  1.00  0.00     0.049 C 
HETATM   25  C   UNL     1       5.967  30.867  57.868  1.00  0.00     0.049 C 
HETATM   26  C   UNL     1       6.763  29.354  56.036  1.00  0.00     0.009 A 
HETATM   27  C   UNL     1       6.543  28.522  54.935  1.00  0.00     0.030 A 
ENDBRANCH  17  20
ENDBRANCH  15  16
ENDBRANCH   1  15
TORSDOF 3
ENDMDL
