MODEL 1
REMARK VINA RESULT:      -8.7      0.000      0.000
REMARK  3 active torsions:
REMARK  status: ('A' for Active; 'I' for Inactive)
REMARK    1  A    between atoms: C_2  and  N_3 
REMARK       I    between atoms: N_3  and  C_4 
REMARK    2  A    between atoms: C_4  and  C_5 
REMARK    3  A    between atoms: C_5  and  C_6 
ROOT
HETATM    1  C   UNL     1       7.462  25.416  56.491  1.00  0.00     0.286 C 
HETATM    2  N   UNL     1       6.333  24.795  55.675  1.00  0.00    -0.056 N 
HETATM    3  H   UNL     1       5.660  24.425  56.381  1.00  0.00     0.278 HD
HETATM    4  H   UNL     1       5.820  25.507  55.142  1.00  0.00     0.278 HD
HETATM    5  C   UNL     1       6.747  23.647  54.799  1.00  0.00     0.209 C 
HETATM    6  C   UNL     1       7.491  22.591  55.653  1.00  0.00     0.115 C 
HETATM    7  N   UNL     1       8.536  23.173  56.497  1.00  0.00    -0.353 N 
HETATM    8  C   UNL     1       8.382  24.372  57.154  1.00  0.00     0.249 C 
HETATM    9  O   UNL     1       9.040  24.612  58.161  1.00  0.00    -0.271 OA
HETATM   10  C   UNL     1       7.572  24.160  53.616  1.00  0.00     0.035 C 
HETATM   11  C   UNL     1       8.084  23.004  52.761  1.00  0.00     0.002 C 
HETATM   12  C   UNL     1       8.878  22.004  53.598  1.00  0.00     0.002 C 
HETATM   13  C   UNL     1       8.055  21.471  54.772  1.00  0.00     0.027 C 
HETATM   14  H   UNL     1       9.132  22.530  57.016  1.00  0.00     0.163 HD
ENDROOT
BRANCH   1  15
HETATM   15  C   UNL     1       6.915  26.423  57.512  1.00  0.00     0.146 C 
BRANCH  15  16
HETATM   16  C   UNL     1       6.224  27.570  56.822  1.00  0.00     0.224 C 
HETATM   17  N   UNL     1       6.784  28.802  56.709  1.00  0.00    -0.327 N 
HETATM   18  H   UNL     1       6.131  29.469  56.305  1.00  0.00     0.169 HD
HETATM   19  O   UNL     1       5.121  27.360  56.297  1.00  0.00    -0.273 OA
BRANCH  17  20
HETATM   20  C   UNL     1       8.054  29.332  57.014  1.00  0.00     0.034 A 
HETATM   21  C   UNL     1       8.437  29.875  58.244  1.00  0.00     0.032 A 
HETATM   22  C   UNL     1       9.742  30.345  58.438  1.00  0.00     0.044 A 
HETATM   23  C   UNL     1      10.669  30.270  57.409  1.00  0.00     0.116 A 
HETATM   24  C   UNL     1      10.316  29.729  56.183  1.00  0.00     0.044 A 
HETATM   25  F   UNL     1      11.914  30.717  57.605  1.00  0.00    -0.206 F 
HETATM   26  C   UNL     1       9.015  29.258  55.990  1.00  0.00     0.032 A 
ENDBRANCH  17  20
ENDBRANCH  15  16
ENDBRANCH   1  15
TORSDOF 3
ENDMDL
MODEL 2
REMARK VINA RESULT:      -8.4      3.320      6.866
REMARK  3 active torsions:
REMARK  status: ('A' for Active; 'I' for Inactive)
REMARK    1  A    between atoms: C_2  and  N_3 
REMARK       I    between atoms: N_3  and  C_4 
REMARK    2  A    between atoms: C_4  and  C_5 
REMARK    3  A    between atoms: C_5  and  C_6 
ROOT
HETATM    1  C   UNL     1       5.929  26.077  54.651  1.00  0.00     0.286 C 
HETATM    2  N   UNL     1       6.841  27.173  54.110  1.00  0.00    -0.056 N 
HETATM    3  H   UNL     1       7.705  26.679  53.799  1.00  0.00     0.278 HD
HETATM    4  H   UNL     1       6.445  27.608  53.268  1.00  0.00     0.278 HD
HETATM    5  C   UNL     1       7.249  28.208  55.120  1.00  0.00     0.209 C 
HETATM    6  C   UNL     1       7.862  27.505  56.356  1.00  0.00     0.115 C 
HETATM    7  N   UNL     1       7.037  26.403  56.854  1.00  0.00    -0.353 N 
HETATM    8  C   UNL     1       6.381  25.528  56.020  1.00  0.00     0.249 C 
HETATM    9  O   UNL     1       6.087  24.404  56.413  1.00  0.00    -0.271 OA
HETATM   10  C   UNL     1       6.058  29.107  55.462  1.00  0.00     0.035 C 
HETATM   11  C   UNL     1       6.421  30.107  56.555  1.00  0.00     0.002 C 
HETATM   12  C   UNL     1       6.958  29.401  57.798  1.00  0.00     0.002 C 
HETATM   13  C   UNL     1       8.160  28.516  57.469  1.00  0.00     0.027 C 
HETATM   14  H   UNL     1       7.328  25.954  57.721  1.00  0.00     0.163 HD
ENDROOT
BRANCH   1  15
HETATM   15  C   UNL     1       5.746  24.954  53.620  1.00  0.00     0.146 C 
BRANCH  15  16
HETATM   16  C   UNL     1       6.887  24.931  52.639  1.00  0.00     0.224 C 
HETATM   17  N   UNL     1       7.914  24.046  52.729  1.00  0.00    -0.327 N 
HETATM   18  H   UNL     1       8.638  24.249  52.043  1.00  0.00     0.169 HD
HETATM   19  O   UNL     1       6.857  25.722  51.685  1.00  0.00    -0.273 OA
BRANCH  17  20
HETATM   20  C   UNL     1       8.174  22.928  53.546  1.00  0.00     0.034 A 
HETATM   21  C   UNL     1       8.716  22.967  54.833  1.00  0.00     0.032 A 
HETATM   22  C   UNL     1       8.901  21.785  55.563  1.00  0.00     0.044 A 
HETATM   23  C   UNL     1       8.541  20.564  55.012  1.00  0.00     0.116 A 
HETATM   24  C   UNL     1       7.994  20.500  53.741  1.00  0.00     0.044 A 
HETATM   25  F   UNL     1       8.716  19.442  55.719  1.00  0.00    -0.206 F 
HETATM   26  C   UNL     1       7.807  21.679  53.014  1.00  0.00     0.032 A 
ENDBRANCH  17  20
ENDBRANCH  15  16
ENDBRANCH   1  15
TORSDOF 3
ENDMDL
MODEL 3
REMARK VINA RESULT:      -8.4      3.715      4.770
REMARK  3 active torsions:
REMARK  status: ('A' for Active; 'I' for Inactive)
REMARK    1  A    between atoms: C_2  and  N_3 
REMARK       I    between atoms: N_3  and  C_4 
REMARK    2  A    between atoms: C_4  and  C_5 
REMARK    3  A    between atoms: C_5  and  C_6 
ROOT
HETATM    1  C   UNL     1       7.925  24.567  55.081  1.00  0.00     0.286 C 
HETATM    2  N   UNL     1       6.861  23.678  54.445  1.00  0.00    -0.056 N 
HETATM    3  H   UNL     1       6.029  23.762  55.068  1.00  0.00     0.278 HD
HETATM    4  H   UNL     1       6.568  24.041  53.530  1.00  0.00     0.278 HD
HETATM    5  C   UNL     1       7.224  22.222  54.365  1.00  0.00     0.209 C 
HETATM    6  C   UNL     1       7.633  21.717  55.771  1.00  0.00     0.115 C 
HETATM    7  N   UNL     1       8.603  22.591  56.431  1.00  0.00    -0.353 N 
HETATM    8  C   UNL     1       8.539  23.964  56.361  1.00  0.00     0.249 C 
HETATM    9  O   UNL     1       9.050  24.651  57.239  1.00  0.00    -0.271 OA
HETATM   10  C   UNL     1       8.306  22.007  53.304  1.00  0.00     0.035 C 
HETATM   11  C   UNL     1       8.759  20.550  53.269  1.00  0.00     0.002 C 
HETATM   12  C   UNL     1       9.228  20.081  54.644  1.00  0.00     0.002 C 
HETATM   13  C   UNL     1       8.146  20.274  55.706  1.00  0.00     0.027 C 
HETATM   14  H   UNL     1       8.991  22.275  57.319  1.00  0.00     0.163 HD
ENDROOT
BRANCH   1  15
HETATM   15  C   UNL     1       7.386  25.984  55.322  1.00  0.00     0.146 C 
BRANCH  15  16
HETATM   16  C   UNL     1       5.898  25.964  55.552  1.00  0.00     0.224 C 
HETATM   17  N   UNL     1       5.009  26.428  54.637  1.00  0.00    -0.327 N 
HETATM   18  H   UNL     1       4.062  26.427  55.008  1.00  0.00     0.169 HD
HETATM   19  O   UNL     1       5.474  25.458  56.601  1.00  0.00    -0.273 OA
BRANCH  17  20
HETATM   20  C   UNL     1       5.120  26.888  53.309  1.00  0.00     0.034 A 
HETATM   21  C   UNL     1       5.288  28.219  52.918  1.00  0.00     0.032 A 
HETATM   22  C   UNL     1       5.417  28.552  51.563  1.00  0.00     0.044 A 
HETATM   23  C   UNL     1       5.384  27.557  50.597  1.00  0.00     0.116 A 
HETATM   24  C   UNL     1       5.227  26.229  50.960  1.00  0.00     0.044 A 
HETATM   25  F   UNL     1       5.514  27.883  49.306  1.00  0.00    -0.206 F 
HETATM   26  C   UNL     1       5.101  25.897  52.311  1.00  0.00     0.032 A 
ENDBRANCH  17  20
ENDBRANCH  15  16
ENDBRANCH   1  15
TORSDOF 3
ENDMDL
MODEL 4
REMARK VINA RESULT:      -8.3      3.734      6.847
REMARK  3 active torsions:
REMARK  status: ('A' for Active; 'I' for Inactive)
REMARK    1  A    between atoms: C_2  and  N_3 
REMARK       I    between atoms: N_3  and  C_4 
REMARK    2  A    between atoms: C_4  and  C_5 
REMARK    3  A    between atoms: C_5  and  C_6 
ROOT
HETATM    1  C   UNL     1       6.247  25.459  56.295  1.00  0.00     0.286 C 
HETATM    2  N   UNL     1       7.140  26.639  55.922  1.00  0.00    -0.056 N 
HETATM    3  H   UNL     1       7.535  26.976  56.827  1.00  0.00     0.278 HD
HETATM    4  H   UNL     1       7.944  26.336  55.358  1.00  0.00     0.278 HD
HETATM    5  C   UNL     1       6.423  27.793  55.281  1.00  0.00     0.209 C 
HETATM    6  C   UNL     1       5.240  28.226  56.181  1.00  0.00     0.115 C 
HETATM    7  N   UNL     1       4.406  27.102  56.608  1.00  0.00    -0.353 N 
HETATM    8  C   UNL     1       4.929  25.882  56.974  1.00  0.00     0.249 C 
HETATM    9  O   UNL     1       4.301  25.142  57.723  1.00  0.00    -0.271 OA
HETATM   10  C   UNL     1       5.999  27.422  53.858  1.00  0.00     0.035 C 
HETATM   11  C   UNL     1       5.187  28.544  53.218  1.00  0.00     0.002 C 
HETATM   12  C   UNL     1       3.981  28.917  54.076  1.00  0.00     0.002 C 
HETATM   13  C   UNL     1       4.397  29.307  55.495  1.00  0.00     0.027 C 
HETATM   14  H   UNL     1       3.555  27.319  57.124  1.00  0.00     0.163 HD
ENDROOT
BRANCH   1  15
HETATM   15  C   UNL     1       7.016  24.431  57.137  1.00  0.00     0.146 C 
BRANCH  15  16
HETATM   16  C   UNL     1       8.502  24.576  56.942  1.00  0.00     0.224 C 
HETATM   17  N   UNL     1       9.200  23.827  56.051  1.00  0.00    -0.327 N 
HETATM   18  H   UNL     1      10.201  23.993  56.132  1.00  0.00     0.169 HD
HETATM   19  O   UNL     1       9.096  25.450  57.590  1.00  0.00    -0.273 OA
BRANCH  17  20
HETATM   20  C   UNL     1       8.837  22.900  55.052  1.00  0.00     0.034 A 
HETATM   21  C   UNL     1       8.270  23.215  53.815  1.00  0.00     0.032 A 
HETATM   22  C   UNL     1       7.979  22.206  52.888  1.00  0.00     0.044 A 
HETATM   23  C   UNL     1       8.256  20.881  53.193  1.00  0.00     0.116 A 
HETATM   24  C   UNL     1       8.826  20.544  54.410  1.00  0.00     0.044 A 
HETATM   25  F   UNL     1       7.979  19.925  52.300  1.00  0.00    -0.206 F 
HETATM   26  C   UNL     1       9.119  21.552  55.333  1.00  0.00     0.032 A 
ENDBRANCH  17  20
ENDBRANCH  15  16
ENDBRANCH   1  15
TORSDOF 3
ENDMDL
MODEL 5
REMARK VINA RESULT:      -8.3      5.158      7.536
REMARK  3 active torsions:
REMARK  status: ('A' for Active; 'I' for Inactive)
REMARK    1  A    between atoms: C_2  and  N_3 
REMARK       I    between atoms: N_3  and  C_4 
REMARK    2  A    between atoms: C_4  and  C_5 
REMARK    3  A    between atoms: C_5  and  C_6 
ROOT
HETATM    1  C   UNL     1       8.805  31.344  59.238  1.00  0.00     0.286 C 
HETATM    2  N   UNL     1       7.935  30.142  59.591  1.00  0.00    -0.056 N 
HETATM    3  H   UNL     1       8.543  29.529  60.176  1.00  0.00     0.278 HD
HETATM    4  H   UNL     1       7.146  30.414  60.191  1.00  0.00     0.278 HD
HETATM    5  C   UNL     1       7.473  29.331  58.413  1.00  0.00     0.209 C 
HETATM    6  C   UNL     1       8.699  28.925  57.558  1.00  0.00     0.115 C 
HETATM    7  N   UNL     1       9.586  30.050  57.262  1.00  0.00    -0.353 N 
HETATM    8  C   UNL     1       9.886  31.026  58.185  1.00  0.00     0.249 C 
HETATM    9  O   UNL     1      10.926  31.670  58.086  1.00  0.00    -0.271 OA
HETATM   10  C   UNL     1       6.413  30.105  57.626  1.00  0.00     0.035 C 
HETATM   11  C   UNL     1       5.996  29.343  56.372  1.00  0.00     0.002 C 
HETATM   12  C   UNL     1       7.202  29.009  55.498  1.00  0.00     0.002 C 
HETATM   13  C   UNL     1       8.258  28.219  56.271  1.00  0.00     0.027 C 
HETATM   14  H   UNL     1      10.363  29.880  56.625  1.00  0.00     0.163 HD
ENDROOT
BRANCH   1  15
HETATM   15  C   UNL     1       9.409  31.977  60.500  1.00  0.00     0.146 C 
BRANCH  15  16
HETATM   16  C   UNL     1       9.174  31.107  61.705  1.00  0.00     0.224 C 
HETATM   17  N   UNL     1       8.416  31.503  62.759  1.00  0.00    -0.327 N 
HETATM   18  H   UNL     1       8.456  30.828  63.519  1.00  0.00     0.169 HD
HETATM   19  O   UNL     1       9.656  29.964  61.707  1.00  0.00    -0.273 OA
BRANCH  17  20
HETATM   20  C   UNL     1       7.595  32.622  63.010  1.00  0.00     0.034 A 
HETATM   21  C   UNL     1       6.759  33.244  62.080  1.00  0.00     0.032 A 
HETATM   22  C   UNL     1       5.964  34.335  62.456  1.00  0.00     0.044 A 
HETATM   23  C   UNL     1       6.000  34.804  63.761  1.00  0.00     0.116 A 
HETATM   24  C   UNL     1       6.815  34.199  64.703  1.00  0.00     0.044 A 
HETATM   25  F   UNL     1       5.233  35.843  64.112  1.00  0.00    -0.206 F 
HETATM   26  C   UNL     1       7.606  33.109  64.329  1.00  0.00     0.032 A 
ENDBRANCH  17  20
ENDBRANCH  15  16
ENDBRANCH   1  15
TORSDOF 3
ENDMDL
MODEL 6
REMARK VINA RESULT:      -8.2      3.508      7.124
REMARK  3 active torsions:
REMARK  status: ('A' for Active; 'I' for Inactive)
REMARK    1  A    between atoms: C_2  and  N_3 
REMARK       I    between atoms: N_3  and  C_4 
REMARK    2  A    between atoms: C_4  and  C_5 
REMARK    3  A    between atoms: C_5  and  C_6 
ROOT
HETATM    1  C   UNL     1       6.086  26.012  54.402  1.00  0.00     0.286 C 
HETATM    2  N   UNL     1       6.031  25.598  55.869  1.00  0.00    -0.056 N 
HETATM    3  H   UNL     1       5.088  25.172  55.996  1.00  0.00     0.278 HD
HETATM    4  H   UNL     1       6.708  24.853  56.074  1.00  0.00     0.278 HD
HETATM    5  C   UNL     1       6.153  26.732  56.848  1.00  0.00     0.209 C 
HETATM    6  C   UNL     1       5.097  27.814  56.513  1.00  0.00     0.115 C 
HETATM    7  N   UNL     1       5.083  28.179  55.096  1.00  0.00    -0.353 N 
HETATM    8  C   UNL     1       5.232  27.256  54.087  1.00  0.00     0.249 C 
HETATM    9  O   UNL     1       4.786  27.489  52.968  1.00  0.00    -0.271 OA
HETATM   10  C   UNL     1       7.587  27.266  56.857  1.00  0.00     0.035 C 
HETATM   11  C   UNL     1       7.715  28.479  57.774  1.00  0.00     0.002 C 
HETATM   12  C   UNL     1       6.719  29.571  57.393  1.00  0.00     0.002 C 
HETATM   13  C   UNL     1       5.281  29.051  57.399  1.00  0.00     0.027 C 
HETATM   14  H   UNL     1       4.481  28.952  54.817  1.00  0.00     0.163 HD
ENDROOT
BRANCH   1  15
HETATM   15  C   UNL     1       5.734  24.833  53.484  1.00  0.00     0.146 C 
BRANCH  15  16
HETATM   16  C   UNL     1       6.803  24.622  52.444  1.00  0.00     0.224 C 
HETATM   17  N   UNL     1       7.790  23.700  52.584  1.00  0.00    -0.327 N 
HETATM   18  H   UNL     1       8.473  23.773  51.833  1.00  0.00     0.169 HD
HETATM   19  O   UNL     1       6.744  25.286  51.399  1.00  0.00    -0.273 OA
BRANCH  17  20
HETATM   20  C   UNL     1       8.053  22.681  53.522  1.00  0.00     0.034 A 
HETATM   21  C   UNL     1       7.986  21.308  53.274  1.00  0.00     0.032 A 
HETATM   22  C   UNL     1       8.300  20.387  54.282  1.00  0.00     0.044 A 
HETATM   23  C   UNL     1       8.686  20.835  55.537  1.00  0.00     0.116 A 
HETATM   24  C   UNL     1       8.767  22.191  55.805  1.00  0.00     0.044 A 
HETATM   25  F   UNL     1       8.989  19.948  56.492  1.00  0.00    -0.206 F 
HETATM   26  C   UNL     1       8.456  23.110  54.799  1.00  0.00     0.032 A 
ENDBRANCH  17  20
ENDBRANCH  15  16
ENDBRANCH   1  15
TORSDOF 3
ENDMDL
MODEL 7
REMARK VINA RESULT:      -8.2      3.185      4.179
REMARK  3 active torsions:
REMARK  status: ('A' for Active; 'I' for Inactive)
REMARK    1  A    between atoms: C_2  and  N_3 
REMARK       I    between atoms: N_3  and  C_4 
REMARK    2  A    between atoms: C_4  and  C_5 
REMARK    3  A    between atoms: C_5  and  C_6 
ROOT
HETATM    1  C   UNL     1       6.806  24.357  56.276  1.00  0.00     0.286 C 
HETATM    2  N   UNL     1       8.273  23.982  56.464  1.00  0.00    -0.056 N 
HETATM    3  H   UNL     1       8.810  24.811  56.130  1.00  0.00     0.278 HD
HETATM    4  H   UNL     1       8.507  23.875  57.459  1.00  0.00     0.278 HD
HETATM    5  C   UNL     1       8.726  22.794  55.663  1.00  0.00     0.209 C 
HETATM    6  C   UNL     1       8.373  23.016  54.172  1.00  0.00     0.115 C 
HETATM    7  N   UNL     1       6.988  23.443  53.970  1.00  0.00    -0.353 N 
HETATM    8  C   UNL     1       6.356  24.339  54.801  1.00  0.00     0.249 C 
HETATM    9  O   UNL     1       5.410  25.002  54.388  1.00  0.00    -0.271 OA
HETATM   10  C   UNL     1       8.128  21.510  56.244  1.00  0.00     0.035 C 
HETATM   11  C   UNL     1       8.498  20.299  55.392  1.00  0.00     0.002 C 
HETATM   12  C   UNL     1       8.082  20.496  53.937  1.00  0.00     0.002 C 
HETATM   13  C   UNL     1       8.690  21.766  53.343  1.00  0.00     0.027 C 
HETATM   14  H   UNL     1       6.656  23.517  53.010  1.00  0.00     0.163 HD
ENDROOT
BRANCH   1  15
HETATM   15  C   UNL     1       6.490  25.700  56.951  1.00  0.00     0.146 C 
BRANCH  15  16
HETATM   16  C   UNL     1       7.622  26.676  56.767  1.00  0.00     0.224 C 
HETATM   17  N   UNL     1       7.600  27.655  55.827  1.00  0.00    -0.327 N 
HETATM   18  H   UNL     1       8.489  28.148  55.785  1.00  0.00     0.169 HD
HETATM   19  O   UNL     1       8.587  26.607  57.542  1.00  0.00    -0.273 OA
BRANCH  17  20
HETATM   20  C   UNL     1       6.622  28.128  54.928  1.00  0.00     0.034 A 
HETATM   21  C   UNL     1       5.447  28.796  55.279  1.00  0.00     0.032 A 
HETATM   22  C   UNL     1       4.562  29.247  54.290  1.00  0.00     0.044 A 
HETATM   23  C   UNL     1       4.852  29.036  52.950  1.00  0.00     0.116 A 
HETATM   24  C   UNL     1       6.015  28.383  52.576  1.00  0.00     0.044 A 
HETATM   25  F   UNL     1       4.004  29.475  52.013  1.00  0.00    -0.206 F 
HETATM   26  C   UNL     1       6.898  27.935  53.562  1.00  0.00     0.032 A 
ENDBRANCH  17  20
ENDBRANCH  15  16
ENDBRANCH   1  15
TORSDOF 3
ENDMDL
MODEL 8
REMARK VINA RESULT:      -8.1      4.685      8.922
REMARK  3 active torsions:
REMARK  status: ('A' for Active; 'I' for Inactive)
REMARK    1  A    between atoms: C_2  and  N_3 
REMARK       I    between atoms: N_3  and  C_4 
REMARK    2  A    between atoms: C_4  and  C_5 
REMARK    3  A    between atoms: C_5  and  C_6 
ROOT
HETATM    1  C   UNL     1       7.359  31.800  59.992  1.00  0.00     0.286 C 
HETATM    2  N   UNL     1       7.566  30.855  61.172  1.00  0.00    -0.056 N 
HETATM    3  H   UNL     1       6.941  30.043  60.981  1.00  0.00     0.278 HD
HETATM    4  H   UNL     1       8.522  30.479  61.187  1.00  0.00     0.278 HD
HETATM    5  C   UNL     1       7.179  31.422  62.508  1.00  0.00     0.209 C 
HETATM    6  C   UNL     1       5.725  31.951  62.440  1.00  0.00     0.115 C 
HETATM    7  N   UNL     1       5.482  32.806  61.278  1.00  0.00    -0.353 N 
HETATM    8  C   UNL     1       6.007  32.541  60.034  1.00  0.00     0.249 C 
HETATM    9  O   UNL     1       5.458  32.977  59.027  1.00  0.00    -0.271 OA
HETATM   10  C   UNL     1       8.192  32.486  62.940  1.00  0.00     0.035 C 
HETATM   11  C   UNL     1       7.770  33.144  64.251  1.00  0.00     0.002 C 
HETATM   12  C   UNL     1       6.362  33.725  64.153  1.00  0.00     0.002 C 
HETATM   13  C   UNL     1       5.341  32.665  63.740  1.00  0.00     0.027 C 
HETATM   14  H   UNL     1       4.576  33.267  61.216  1.00  0.00     0.163 HD
ENDROOT
BRANCH   1  15
HETATM   15  C   UNL     1       7.567  31.070  58.658  1.00  0.00     0.146 C 
BRANCH  15  16
HETATM   16  C   UNL     1       9.016  30.712  58.459  1.00  0.00     0.224 C 
HETATM   17  N   UNL     1       9.412  29.640  57.726  1.00  0.00    -0.327 N 
HETATM   18  H   UNL     1      10.417  29.499  57.790  1.00  0.00     0.169 HD
HETATM   19  O   UNL     1       9.877  31.458  58.948  1.00  0.00    -0.273 OA
BRANCH  17  20
HETATM   20  C   UNL     1       8.738  28.712  56.906  1.00  0.00     0.034 A 
HETATM   21  C   UNL     1       8.183  27.502  57.329  1.00  0.00     0.032 A 
HETATM   22  C   UNL     1       7.508  26.673  56.423  1.00  0.00     0.044 A 
HETATM   23  C   UNL     1       7.383  27.052  55.095  1.00  0.00     0.116 A 
HETATM   24  C   UNL     1       7.918  28.251  54.652  1.00  0.00     0.044 A 
HETATM   25  F   UNL     1       6.733  26.257  54.238  1.00  0.00    -0.206 F 
HETATM   26  C   UNL     1       8.589  29.079  55.556  1.00  0.00     0.032 A 
ENDBRANCH  17  20
ENDBRANCH  15  16
ENDBRANCH   1  15
TORSDOF 3
ENDMDL
MODEL 9
REMARK VINA RESULT:      -8.1      2.371      3.137
REMARK  3 active torsions:
REMARK  status: ('A' for Active; 'I' for Inactive)
REMARK    1  A    between atoms: C_2  and  N_3 
REMARK       I    between atoms: N_3  and  C_4 
REMARK    2  A    between atoms: C_4  and  C_5 
REMARK    3  A    between atoms: C_5  and  C_6 
ROOT
HETATM    1  C   UNL     1       6.598  25.070  54.912  1.00  0.00     0.286 C 
HETATM    2  N   UNL     1       8.073  24.811  55.206  1.00  0.00    -0.056 N 
HETATM    3  H   UNL     1       8.593  25.422  54.540  1.00  0.00     0.278 HD
HETATM    4  H   UNL     1       8.329  25.133  56.146  1.00  0.00     0.278 HD
HETATM    5  C   UNL     1       8.522  23.396  54.970  1.00  0.00     0.209 C 
HETATM    6  C   UNL     1       8.135  22.968  53.533  1.00  0.00     0.115 C 
HETATM    7  N   UNL     1       6.741  23.268  53.203  1.00  0.00    -0.353 N 
HETATM    8  C   UNL     1       6.117  24.431  53.594  1.00  0.00     0.249 C 
HETATM    9  O   UNL     1       5.155  24.856  52.962  1.00  0.00    -0.271 OA
HETATM   10  C   UNL     1       7.951  22.477  56.052  1.00  0.00     0.035 C 
HETATM   11  C   UNL     1       8.316  21.020  55.782  1.00  0.00     0.002 C 
HETATM   12  C   UNL     1       7.867  20.583  54.389  1.00  0.00     0.002 C 
HETATM   13  C   UNL     1       8.448  21.486  53.300  1.00  0.00     0.027 C 
HETATM   14  H   UNL     1       6.387  22.930  52.310  1.00  0.00     0.163 HD
ENDROOT
BRANCH   1  15
HETATM   15  C   UNL     1       6.281  26.571  54.965  1.00  0.00     0.146 C 
BRANCH  15  16
HETATM   16  C   UNL     1       7.364  27.375  54.296  1.00  0.00     0.224 C 
HETATM   17  N   UNL     1       7.864  28.519  54.830  1.00  0.00    -0.327 N 
HETATM   18  H   UNL     1       8.511  28.974  54.190  1.00  0.00     0.169 HD
HETATM   19  O   UNL     1       7.847  26.943  53.239  1.00  0.00    -0.273 OA
BRANCH  17  20
HETATM   20  C   UNL     1       7.688  29.184  56.061  1.00  0.00     0.034 A 
HETATM   21  C   UNL     1       6.560  29.918  56.436  1.00  0.00     0.032 A 
HETATM   22  C   UNL     1       6.488  30.511  57.704  1.00  0.00     0.044 A 
HETATM   23  C   UNL     1       7.538  30.369  58.599  1.00  0.00     0.116 A 
HETATM   24  C   UNL     1       8.663  29.639  58.253  1.00  0.00     0.044 A 
HETATM   25  F   UNL     1       7.458  30.935  59.809  1.00  0.00    -0.206 F 
HETATM   26  C   UNL     1       8.735  29.046  56.990  1.00  0.00     0.032 A 
ENDBRANCH  17  20
ENDBRANCH  15  16
ENDBRANCH   1  15
TORSDOF 3
ENDMDL
MODEL 10
REMARK VINA RESULT:      -8.1      2.920      3.841
REMARK  3 active torsions:
REMARK  status: ('A' for Active; 'I' for Inactive)
REMARK    1  A    between atoms: C_2  and  N_3 
REMARK       I    between atoms: N_3  and  C_4 
REMARK    2  A    between atoms: C_4  and  C_5 
REMARK    3  A    between atoms: C_5  and  C_6 
ROOT
HETATM    1  C   UNL     1       7.579  25.516  56.484  1.00  0.00     0.286 C 
HETATM    2  N   UNL     1       6.421  24.947  55.669  1.00  0.00    -0.056 N 
HETATM    3  H   UNL     1       5.727  24.621  56.376  1.00  0.00     0.278 HD
HETATM    4  H   UNL     1       5.950  25.680  55.126  1.00  0.00     0.278 HD
HETATM    5  C   UNL     1       6.779  23.769  54.807  1.00  0.00     0.209 C 
HETATM    6  C   UNL     1       7.462  22.685  55.677  1.00  0.00     0.115 C 
HETATM    7  N   UNL     1       8.532  23.219  56.519  1.00  0.00    -0.353 N 
HETATM    8  C   UNL     1       8.439  24.432  57.163  1.00  0.00     0.249 C 
HETATM    9  O   UNL     1       9.104  24.647  58.171  1.00  0.00    -0.271 OA
HETATM   10  C   UNL     1       7.635  24.226  53.623  1.00  0.00     0.035 C 
HETATM   11  C   UNL     1       8.089  23.035  52.783  1.00  0.00     0.002 C 
HETATM   12  C   UNL     1       8.825  22.004  53.634  1.00  0.00     0.002 C 
HETATM   13  C   UNL     1       7.970  21.528  54.809  1.00  0.00     0.027 C 
HETATM   14  H   UNL     1       9.091  22.552  57.048  1.00  0.00     0.163 HD
ENDROOT
BRANCH   1  15
HETATM   15  C   UNL     1       7.081  26.562  57.492  1.00  0.00     0.146 C 
BRANCH  15  16
HETATM   16  C   UNL     1       7.714  27.903  57.236  1.00  0.00     0.224 C 
HETATM   17  N   UNL     1       7.492  28.613  56.100  1.00  0.00    -0.327 N 
HETATM   18  H   UNL     1       8.082  29.442  56.060  1.00  0.00     0.169 HD
HETATM   19  O   UNL     1       8.428  28.394  58.123  1.00  0.00    -0.273 OA
BRANCH  17  20
HETATM   20  C   UNL     1       6.628  28.453  54.998  1.00  0.00     0.034 A 
HETATM   21  C   UNL     1       6.994  27.975  53.737  1.00  0.00     0.032 A 
HETATM   22  C   UNL     1       6.035  27.830  52.726  1.00  0.00     0.044 A 
HETATM   23  C   UNL     1       4.710  28.158  52.972  1.00  0.00     0.116 A 
HETATM   24  C   UNL     1       4.320  28.626  54.216  1.00  0.00     0.044 A 
HETATM   25  F   UNL     1       3.801  28.012  52.001  1.00  0.00    -0.206 F 
HETATM   26  C   UNL     1       5.276  28.768  55.226  1.00  0.00     0.032 A 
ENDBRANCH  17  20
ENDBRANCH  15  16
ENDBRANCH   1  15
TORSDOF 3
ENDMDL
