MODEL 1
REMARK VINA RESULT:     -10.0      0.000      0.000
REMARK  8 active torsions:
REMARK  status: ('A' for Active; 'I' for Inactive)
REMARK    1  A    between atoms: C_2  and  C_3 
REMARK    2  A    between atoms: C_3  and  N_4 
REMARK    3  A    between atoms: N_4  and  C_6 
REMARK    4  A    between atoms: N_4  and  C_23 
REMARK    5  A    between atoms: C_6  and  C_7 
REMARK       I    between atoms: C_7  and  N_8 
REMARK    6  A    between atoms: N_8  and  C_9 
REMARK    7  A    between atoms: C_23  and  C_24 
REMARK       I    between atoms: C_24  and  N_25 
REMARK    8  A    between atoms: N_25  and  C_26 
ROOT
HETATM    1  N   UNL     1       7.440  27.655  57.098  1.00  0.00    -0.055 N 
HETATM    2  H   UNL     1       8.235  27.565  56.445  1.00  0.00     0.281 HD
ENDROOT
BRANCH   1   3
HETATM    3  C   UNL     1       6.202  27.900  56.265  1.00  0.00     0.235 C 
BRANCH   3   4
HETATM    4  C   UNL     1       6.511  28.450  54.873  1.00  0.00     0.023 C 
HETATM    5  C   UNL     1       7.554  27.650  54.109  1.00  0.00     0.007 C 
ENDBRANCH   3   4
ENDBRANCH   1   3
BRANCH   1   6
HETATM    6  C   UNL     1       7.770  28.793  58.088  1.00  0.00     0.338 C 
BRANCH   6   7
HETATM    7  C   UNL     1       8.818  29.779  57.539  1.00  0.00     0.249 C 
HETATM    8  N   UNL     1       9.221  30.883  58.212  1.00  0.00    -0.304 N 
HETATM    9  H   UNL     1       9.983  31.411  57.802  1.00  0.00     0.171 HD
HETATM   10  O   UNL     1       9.385  29.520  56.469  1.00  0.00    -0.271 OA
BRANCH   8  11
HETATM   11  C   UNL     1       8.651  31.411  59.329  1.00  0.00     0.174 A 
HETATM   12  S   UNL     1       9.467  31.028  60.767  1.00  0.00    -0.050 SA
HETATM   13  C   UNL     1       8.306  31.940  61.652  1.00  0.00     0.040 A 
HETATM   14  C   UNL     1       7.387  32.496  60.755  1.00  0.00     0.079 A 
HETATM   15  C   UNL     1       8.223  32.151  63.037  1.00  0.00     0.061 A 
HETATM   16  N   UNL     1       7.585  32.157  59.418  1.00  0.00    -0.223 NA
HETATM   17  C   UNL     1       6.369  33.331  61.259  1.00  0.00     0.072 A 
HETATM   18  C   UNL     1       6.301  33.576  62.634  1.00  0.00     0.104 A 
HETATM   19  C   UNL     1       7.196  32.966  63.512  1.00  0.00     0.103 A 
HETATM   20  O   UNL     1       5.314  34.434  63.051  1.00  0.00    -0.346 OA
HETATM   21  O   UNL     1       7.146  33.134  64.874  1.00  0.00    -0.346 OA
HETATM   22  C   UNL     1       5.911  33.728  65.292  1.00  0.00     0.202 C 
HETATM   23  C   UNL     1       5.551  34.895  64.388  1.00  0.00     0.202 C 
ENDBRANCH   8  11
ENDBRANCH   6   7
ENDBRANCH   1   6
BRANCH   1  24
HETATM   24  C   UNL     1       7.382  26.278  57.790  1.00  0.00     0.338 C 
BRANCH  24  25
HETATM   25  C   UNL     1       6.965  25.176  56.811  1.00  0.00     0.248 C 
HETATM   26  N   UNL     1       8.016  24.655  56.086  1.00  0.00    -0.323 N 
HETATM   27  H   UNL     1       8.953  25.025  56.240  1.00  0.00     0.169 HD
HETATM   28  O   UNL     1       5.789  24.819  56.784  1.00  0.00    -0.271 OA
BRANCH  26  29
HETATM   29  C   UNL     1       7.981  23.593  55.151  1.00  0.00     0.077 A 
HETATM   30  C   UNL     1       8.108  22.296  55.673  1.00  0.00     0.184 A 
HETATM   31  F   UNL     1       8.246  22.146  57.001  1.00  0.00    -0.200 F 
HETATM   32  C   UNL     1       8.075  21.179  54.849  1.00  0.00     0.195 A 
HETATM   33  F   UNL     1       8.183  19.952  55.376  1.00  0.00    -0.199 F 
HETATM   34  C   UNL     1       7.923  21.348  53.483  1.00  0.00     0.158 A 
HETATM   35  F   UNL     1       7.889  20.284  52.671  1.00  0.00    -0.203 F 
HETATM   36  C   UNL     1       7.802  22.625  52.940  1.00  0.00     0.048 A 
HETATM   37  C   UNL     1       7.829  23.752  53.773  1.00  0.00     0.036 A 
ENDBRANCH  26  29
ENDBRANCH  24  25
ENDBRANCH   1  24
TORSDOF 8
ENDMDL
MODEL 2
REMARK VINA RESULT:      -9.9      4.888     11.075
REMARK  8 active torsions:
REMARK  status: ('A' for Active; 'I' for Inactive)
REMARK    1  A    between atoms: C_2  and  C_3 
REMARK    2  A    between atoms: C_3  and  N_4 
REMARK    3  A    between atoms: N_4  and  C_6 
REMARK    4  A    between atoms: N_4  and  C_23 
REMARK    5  A    between atoms: C_6  and  C_7 
REMARK       I    between atoms: C_7  and  N_8 
REMARK    6  A    between atoms: N_8  and  C_9 
REMARK    7  A    between atoms: C_23  and  C_24 
REMARK       I    between atoms: C_24  and  N_25 
REMARK    8  A    between atoms: N_25  and  C_26 
ROOT
HETATM    1  N   UNL     1       8.042  29.952  57.796  1.00  0.00    -0.055 N 
HETATM    2  H   UNL     1       8.203  30.892  57.399  1.00  0.00     0.281 HD
ENDROOT
BRANCH   1   3
HETATM    3  C   UNL     1       8.966  28.998  57.072  1.00  0.00     0.235 C 
BRANCH   3   4
HETATM    4  C   UNL     1      10.116  29.701  56.353  1.00  0.00     0.023 C 
HETATM    5  C   UNL     1      11.385  29.818  57.181  1.00  0.00     0.007 C 
ENDBRANCH   3   4
ENDBRANCH   1   3
BRANCH   1   6
HETATM    6  C   UNL     1       6.542  29.622  57.636  1.00  0.00     0.338 C 
BRANCH   6   7
HETATM    7  C   UNL     1       5.935  30.206  56.347  1.00  0.00     0.249 C 
HETATM    8  N   UNL     1       5.672  29.460  55.247  1.00  0.00    -0.304 N 
HETATM    9  H   UNL     1       5.186  29.926  54.489  1.00  0.00     0.171 HD
HETATM   10  O   UNL     1       5.595  31.397  56.328  1.00  0.00    -0.271 OA
BRANCH   8  11
HETATM   11  C   UNL     1       6.072  28.181  55.015  1.00  0.00     0.174 A 
HETATM   12  S   UNL     1       6.987  27.991  53.598  1.00  0.00    -0.050 SA
HETATM   13  C   UNL     1       7.125  26.307  53.930  1.00  0.00     0.040 A 
HETATM   14  C   UNL     1       6.471  26.028  55.136  1.00  0.00     0.079 A 
HETATM   15  C   UNL     1       7.771  25.312  53.181  1.00  0.00     0.061 A 
HETATM   16  N   UNL     1       5.843  27.118  55.736  1.00  0.00    -0.223 NA
HETATM   17  C   UNL     1       6.501  24.709  55.632  1.00  0.00     0.072 A 
HETATM   18  C   UNL     1       7.174  23.719  54.911  1.00  0.00     0.104 A 
HETATM   19  C   UNL     1       7.771  24.012  53.685  1.00  0.00     0.103 A 
HETATM   20  O   UNL     1       7.202  22.468  55.475  1.00  0.00    -0.346 OA
HETATM   21  O   UNL     1       8.404  23.070  52.912  1.00  0.00    -0.346 OA
HETATM   22  C   UNL     1       8.105  21.738  53.346  1.00  0.00     0.202 C 
HETATM   23  C   UNL     1       8.198  21.639  54.860  1.00  0.00     0.202 C 
ENDBRANCH   8  11
ENDBRANCH   6   7
ENDBRANCH   1   6
BRANCH   1  24
HETATM   24  C   UNL     1       8.451  30.109  59.275  1.00  0.00     0.338 C 
BRANCH  24  25
HETATM   25  C   UNL     1       7.724  31.285  59.935  1.00  0.00     0.248 C 
HETATM   26  N   UNL     1       7.337  31.035  61.235  1.00  0.00    -0.323 N 
HETATM   27  H   UNL     1       7.548  30.127  61.646  1.00  0.00     0.169 HD
HETATM   28  O   UNL     1       7.593  32.332  59.305  1.00  0.00    -0.271 OA
BRANCH  26  29
HETATM   29  C   UNL     1       6.706  31.924  62.137  1.00  0.00     0.077 A 
HETATM   30  C   UNL     1       7.535  32.552  63.080  1.00  0.00     0.184 A 
HETATM   31  F   UNL     1       8.851  32.279  63.065  1.00  0.00    -0.200 F 
HETATM   32  C   UNL     1       7.025  33.452  64.005  1.00  0.00     0.195 A 
HETATM   33  F   UNL     1       7.843  34.047  64.884  1.00  0.00    -0.199 F 
HETATM   34  C   UNL     1       5.669  33.731  64.004  1.00  0.00     0.158 A 
HETATM   35  F   UNL     1       5.157  34.596  64.888  1.00  0.00    -0.203 F 
HETATM   36  C   UNL     1       4.823  33.116  63.082  1.00  0.00     0.048 A 
HETATM   37  C   UNL     1       5.340  32.212  62.145  1.00  0.00     0.036 A 
ENDBRANCH  26  29
ENDBRANCH  24  25
ENDBRANCH   1  24
TORSDOF 8
ENDMDL
MODEL 3
REMARK VINA RESULT:      -9.7      0.747      1.356
REMARK  8 active torsions:
REMARK  status: ('A' for Active; 'I' for Inactive)
REMARK    1  A    between atoms: C_2  and  C_3 
REMARK    2  A    between atoms: C_3  and  N_4 
REMARK    3  A    between atoms: N_4  and  C_6 
REMARK    4  A    between atoms: N_4  and  C_23 
REMARK    5  A    between atoms: C_6  and  C_7 
REMARK       I    between atoms: C_7  and  N_8 
REMARK    6  A    between atoms: N_8  and  C_9 
REMARK    7  A    between atoms: C_23  and  C_24 
REMARK       I    between atoms: C_24  and  N_25 
REMARK    8  A    between atoms: N_25  and  C_26 
ROOT
HETATM    1  N   UNL     1       7.271  27.449  57.065  1.00  0.00    -0.055 N 
HETATM    2  H   UNL     1       7.975  27.281  56.328  1.00  0.00     0.281 HD
ENDROOT
BRANCH   1   3
HETATM    3  C   UNL     1       6.027  27.974  56.383  1.00  0.00     0.235 C 
BRANCH   3   4
HETATM    4  C   UNL     1       6.279  28.451  54.953  1.00  0.00     0.023 C 
HETATM    5  C   UNL     1       7.334  27.647  54.210  1.00  0.00     0.007 C 
ENDBRANCH   3   4
ENDBRANCH   1   3
BRANCH   1   6
HETATM    6  C   UNL     1       7.887  28.424  58.092  1.00  0.00     0.338 C 
BRANCH   6   7
HETATM    7  C   UNL     1       8.956  29.346  57.475  1.00  0.00     0.249 C 
HETATM    8  N   UNL     1       9.388  30.482  58.072  1.00  0.00    -0.304 N 
HETATM    9  H   UNL     1      10.162  30.963  57.626  1.00  0.00     0.171 HD
HETATM   10  O   UNL     1       9.511  29.003  56.422  1.00  0.00    -0.271 OA
BRANCH   8  11
HETATM   11  C   UNL     1       8.837  31.097  59.153  1.00  0.00     0.174 A 
HETATM   12  S   UNL     1       7.292  31.740  58.868  1.00  0.00    -0.050 SA
HETATM   13  C   UNL     1       7.236  32.290  60.498  1.00  0.00     0.040 A 
HETATM   14  C   UNL     1       8.415  31.906  61.147  1.00  0.00     0.079 A 
HETATM   15  C   UNL     1       6.219  33.003  61.152  1.00  0.00     0.061 A 
HETATM   16  N   UNL     1       9.342  31.241  60.347  1.00  0.00    -0.223 NA
HETATM   17  C   UNL     1       8.564  32.210  62.516  1.00  0.00     0.072 A 
HETATM   18  C   UNL     1       7.540  32.887  63.184  1.00  0.00     0.104 A 
HETATM   19  C   UNL     1       6.399  33.307  62.501  1.00  0.00     0.103 A 
HETATM   20  O   UNL     1       7.731  33.109  64.525  1.00  0.00    -0.346 OA
HETATM   21  O   UNL     1       5.384  34.015  63.095  1.00  0.00    -0.346 OA
HETATM   22  C   UNL     1       5.774  34.533  64.373  1.00  0.00     0.202 C 
HETATM   23  C   UNL     1       6.505  33.470  65.176  1.00  0.00     0.202 C 
ENDBRANCH   8  11
ENDBRANCH   6   7
ENDBRANCH   1   6
BRANCH   1  24
HETATM   24  C   UNL     1       7.030  26.049  57.662  1.00  0.00     0.338 C 
BRANCH  24  25
HETATM   25  C   UNL     1       6.741  25.015  56.569  1.00  0.00     0.248 C 
HETATM   26  N   UNL     1       7.869  24.374  56.103  1.00  0.00    -0.323 N 
HETATM   27  H   UNL     1       8.776  24.623  56.496  1.00  0.00     0.169 HD
HETATM   28  O   UNL     1       5.574  24.807  56.242  1.00  0.00    -0.271 OA
BRANCH  26  29
HETATM   29  C   UNL     1       7.941  23.333  55.148  1.00  0.00     0.077 A 
HETATM   30  C   UNL     1       8.167  22.040  55.646  1.00  0.00     0.184 A 
HETATM   31  F   UNL     1       8.292  21.874  56.974  1.00  0.00    -0.200 F 
HETATM   32  C   UNL     1       8.244  20.942  54.801  1.00  0.00     0.195 A 
HETATM   33  F   UNL     1       8.445  19.718  55.307  1.00  0.00    -0.199 F 
HETATM   34  C   UNL     1       8.104  21.126  53.436  1.00  0.00     0.158 A 
HETATM   35  F   UNL     1       8.175  20.080  52.603  1.00  0.00    -0.203 F 
HETATM   36  C   UNL     1       7.886  22.400  52.914  1.00  0.00     0.048 A 
HETATM   37  C   UNL     1       7.803  23.507  53.769  1.00  0.00     0.036 A 
ENDBRANCH  26  29
ENDBRANCH  24  25
ENDBRANCH   1  24
TORSDOF 8
ENDMDL
MODEL 4
REMARK VINA RESULT:      -9.4      4.935     10.840
REMARK  8 active torsions:
REMARK  status: ('A' for Active; 'I' for Inactive)
REMARK    1  A    between atoms: C_2  and  C_3 
REMARK    2  A    between atoms: C_3  and  N_4 
REMARK    3  A    between atoms: N_4  and  C_6 
REMARK    4  A    between atoms: N_4  and  C_23 
REMARK    5  A    between atoms: C_6  and  C_7 
REMARK       I    between atoms: C_7  and  N_8 
REMARK    6  A    between atoms: N_8  and  C_9 
REMARK    7  A    between atoms: C_23  and  C_24 
REMARK       I    between atoms: C_24  and  N_25 
REMARK    8  A    between atoms: N_25  and  C_26 
ROOT
HETATM    1  N   UNL     1       6.614  29.087  55.834  1.00  0.00    -0.055 N 
HETATM    2  H   UNL     1       6.310  28.260  56.372  1.00  0.00     0.281 HD
ENDROOT
BRANCH   1   3
HETATM    3  C   UNL     1       5.717  30.237  56.237  1.00  0.00     0.235 C 
BRANCH   3   4
HETATM    4  C   UNL     1       4.607  29.824  57.202  1.00  0.00     0.023 C 
HETATM    5  C   UNL     1       3.257  30.456  56.898  1.00  0.00     0.007 C 
ENDBRANCH   3   4
ENDBRANCH   1   3
BRANCH   1   6
HETATM    6  C   UNL     1       6.545  28.728  54.334  1.00  0.00     0.338 C 
BRANCH   6   7
HETATM    7  C   UNL     1       5.123  28.355  53.874  1.00  0.00     0.249 C 
HETATM    8  N   UNL     1       4.655  27.084  53.872  1.00  0.00    -0.304 N 
HETATM    9  H   UNL     1       3.675  26.962  53.640  1.00  0.00     0.171 HD
HETATM   10  O   UNL     1       4.336  29.258  53.562  1.00  0.00    -0.271 OA
BRANCH   8  11
HETATM   11  C   UNL     1       5.378  25.947  54.058  1.00  0.00     0.174 A 
HETATM   12  S   UNL     1       5.921  25.232  52.617  1.00  0.00    -0.050 SA
HETATM   13  C   UNL     1       6.678  23.989  53.537  1.00  0.00     0.040 A 
HETATM   14  C   UNL     1       6.473  24.243  54.898  1.00  0.00     0.079 A 
HETATM   15  C   UNL     1       7.405  22.877  53.084  1.00  0.00     0.061 A 
HETATM   16  N   UNL     1       5.695  25.364  55.181  1.00  0.00    -0.223 NA
HETATM   17  C   UNL     1       7.053  23.374  55.844  1.00  0.00     0.072 A 
HETATM   18  C   UNL     1       7.810  22.285  55.402  1.00  0.00     0.104 A 
HETATM   19  C   UNL     1       7.954  22.023  54.040  1.00  0.00     0.103 A 
HETATM   20  O   UNL     1       8.384  21.507  56.377  1.00  0.00    -0.346 OA
HETATM   21  O   UNL     1       8.646  20.943  53.550  1.00  0.00    -0.346 OA
HETATM   22  C   UNL     1       8.915  19.976  54.573  1.00  0.00     0.202 C 
HETATM   23  C   UNL     1       9.409  20.662  55.835  1.00  0.00     0.202 C 
ENDBRANCH   8  11
ENDBRANCH   6   7
ENDBRANCH   1   6
BRANCH   1  24
HETATM   24  C   UNL     1       8.062  29.317  56.312  1.00  0.00     0.338 C 
BRANCH  24  25
HETATM   25  C   UNL     1       8.136  29.437  57.838  1.00  0.00     0.248 C 
HETATM   26  N   UNL     1       8.365  30.722  58.281  1.00  0.00    -0.323 N 
HETATM   27  H   UNL     1       8.469  31.469  57.595  1.00  0.00     0.169 HD
HETATM   28  O   UNL     1       7.943  28.434  58.523  1.00  0.00    -0.271 OA
BRANCH  26  29
HETATM   29  C   UNL     1       8.427  31.179  59.619  1.00  0.00     0.077 A 
HETATM   30  C   UNL     1       7.391  32.029  60.038  1.00  0.00     0.184 A 
HETATM   31  F   UNL     1       6.422  32.344  59.163  1.00  0.00    -0.200 F 
HETATM   32  C   UNL     1       7.344  32.527  61.333  1.00  0.00     0.195 A 
HETATM   33  F   UNL     1       6.335  33.324  61.710  1.00  0.00    -0.199 F 
HETATM   34  C   UNL     1       8.345  32.187  62.227  1.00  0.00     0.158 A 
HETATM   35  F   UNL     1       8.319  32.657  63.481  1.00  0.00    -0.203 F 
HETATM   36  C   UNL     1       9.388  31.351  61.834  1.00  0.00     0.048 A 
HETATM   37  C   UNL     1       9.431  30.843  60.528  1.00  0.00     0.036 A 
ENDBRANCH  26  29
ENDBRANCH  24  25
ENDBRANCH   1  24
TORSDOF 8
ENDMDL
MODEL 5
REMARK VINA RESULT:      -9.3      2.443      3.589
REMARK  8 active torsions:
REMARK  status: ('A' for Active; 'I' for Inactive)
REMARK    1  A    between atoms: C_2  and  C_3 
REMARK    2  A    between atoms: C_3  and  N_4 
REMARK    3  A    between atoms: N_4  and  C_6 
REMARK    4  A    between atoms: N_4  and  C_23 
REMARK    5  A    between atoms: C_6  and  C_7 
REMARK       I    between atoms: C_7  and  N_8 
REMARK    6  A    between atoms: N_8  and  C_9 
REMARK    7  A    between atoms: C_23  and  C_24 
REMARK       I    between atoms: C_24  and  N_25 
REMARK    8  A    between atoms: N_25  and  C_26 
ROOT
HETATM    1  N   UNL     1       4.656  26.876  55.575  1.00  0.00    -0.055 N 
HETATM    2  H   UNL     1       3.902  26.234  55.282  1.00  0.00     0.281 HD
ENDROOT
BRANCH   1   3
HETATM    3  C   UNL     1       5.259  26.309  56.841  1.00  0.00     0.235 C 
BRANCH   3   4
HETATM    4  C   UNL     1       6.646  26.872  57.151  1.00  0.00     0.023 C 
HETATM    5  C   UNL     1       7.577  25.882  57.832  1.00  0.00     0.007 C 
ENDBRANCH   3   4
ENDBRANCH   1   3
BRANCH   1   6
HETATM    6  C   UNL     1       4.038  28.282  55.745  1.00  0.00     0.338 C 
BRANCH   6   7
HETATM    7  C   UNL     1       4.596  29.305  54.738  1.00  0.00     0.249 C 
HETATM    8  N   UNL     1       5.591  30.174  55.038  1.00  0.00    -0.304 N 
HETATM    9  H   UNL     1       5.946  30.738  54.274  1.00  0.00     0.171 HD
HETATM   10  O   UNL     1       4.177  29.292  53.572  1.00  0.00    -0.271 OA
BRANCH   8  11
HETATM   11  C   UNL     1       6.101  30.435  56.272  1.00  0.00     0.174 A 
HETATM   12  S   UNL     1       5.282  31.661  57.112  1.00  0.00    -0.050 SA
HETATM   13  C   UNL     1       6.362  31.456  58.437  1.00  0.00     0.040 A 
HETATM   14  C   UNL     1       7.261  30.427  58.133  1.00  0.00     0.079 A 
HETATM   15  C   UNL     1       6.402  32.150  59.655  1.00  0.00     0.061 A 
HETATM   16  N   UNL     1       7.114  29.866  56.866  1.00  0.00    -0.223 NA
HETATM   17  C   UNL     1       8.211  30.050  59.104  1.00  0.00     0.072 A 
HETATM   18  C   UNL     1       8.234  30.712  60.335  1.00  0.00     0.104 A 
HETATM   19  C   UNL     1       7.363  31.770  60.592  1.00  0.00     0.103 A 
HETATM   20  O   UNL     1       9.154  30.263  61.250  1.00  0.00    -0.346 OA
HETATM   21  O   UNL     1       7.373  32.485  61.764  1.00  0.00    -0.346 OA
HETATM   22  C   UNL     1       8.556  32.234  62.530  1.00  0.00     0.202 C 
HETATM   23  C   UNL     1       8.859  30.745  62.568  1.00  0.00     0.202 C 
ENDBRANCH   8  11
ENDBRANCH   6   7
ENDBRANCH   1   6
BRANCH   1  24
HETATM   24  C   UNL     1       5.658  26.818  54.405  1.00  0.00     0.338 C 
BRANCH  24  25
HETATM   25  C   UNL     1       5.847  25.383  53.900  1.00  0.00     0.248 C 
HETATM   26  N   UNL     1       6.973  24.765  54.402  1.00  0.00    -0.323 N 
HETATM   27  H   UNL     1       7.576  25.282  55.040  1.00  0.00     0.169 HD
HETATM   28  O   UNL     1       4.993  24.896  53.162  1.00  0.00    -0.271 OA
BRANCH  26  29
HETATM   29  C   UNL     1       7.399  23.434  54.184  1.00  0.00     0.077 A 
HETATM   30  C   UNL     1       7.519  22.621  55.323  1.00  0.00     0.184 A 
HETATM   31  F   UNL     1       7.222  23.146  56.524  1.00  0.00    -0.200 F 
HETATM   32  C   UNL     1       7.918  21.295  55.226  1.00  0.00     0.195 A 
HETATM   33  F   UNL     1       8.009  20.539  56.329  1.00  0.00    -0.199 F 
HETATM   34  C   UNL     1       8.212  20.765  53.982  1.00  0.00     0.158 A 
HETATM   35  F   UNL     1       8.598  19.488  53.867  1.00  0.00    -0.203 F 
HETATM   36  C   UNL     1       8.108  21.552  52.837  1.00  0.00     0.048 A 
HETATM   37  C   UNL     1       7.699  22.888  52.935  1.00  0.00     0.036 A 
ENDBRANCH  26  29
ENDBRANCH  24  25
ENDBRANCH   1  24
TORSDOF 8
ENDMDL
MODEL 6
REMARK VINA RESULT:      -9.2      2.087      3.010
REMARK  8 active torsions:
REMARK  status: ('A' for Active; 'I' for Inactive)
REMARK    1  A    between atoms: C_2  and  C_3 
REMARK    2  A    between atoms: C_3  and  N_4 
REMARK    3  A    between atoms: N_4  and  C_6 
REMARK    4  A    between atoms: N_4  and  C_23 
REMARK    5  A    between atoms: C_6  and  C_7 
REMARK       I    between atoms: C_7  and  N_8 
REMARK    6  A    between atoms: N_8  and  C_9 
REMARK    7  A    between atoms: C_23  and  C_24 
REMARK       I    between atoms: C_24  and  N_25 
REMARK    8  A    between atoms: N_25  and  C_26 
ROOT
HETATM    1  N   UNL     1       7.214  27.952  55.874  1.00  0.00    -0.055 N 
HETATM    2  H   UNL     1       7.524  27.200  56.509  1.00  0.00     0.281 HD
ENDROOT
BRANCH   1   3
HETATM    3  C   UNL     1       8.366  28.923  55.736  1.00  0.00     0.235 C 
BRANCH   3   4
HETATM    4  C   UNL     1       9.264  28.972  56.971  1.00  0.00     0.023 C 
HETATM    5  C   UNL     1      10.631  29.588  56.718  1.00  0.00     0.007 C 
ENDBRANCH   3   4
ENDBRANCH   1   3
BRANCH   1   6
HETATM    6  C   UNL     1       5.932  28.574  56.469  1.00  0.00     0.338 C 
BRANCH   6   7
HETATM    7  C   UNL     1       5.429  29.790  55.668  1.00  0.00     0.249 C 
HETATM    8  N   UNL     1       5.464  31.057  56.145  1.00  0.00    -0.304 N 
HETATM    9  H   UNL     1       5.196  31.792  55.499  1.00  0.00     0.171 HD
HETATM   10  O   UNL     1       5.045  29.625  54.502  1.00  0.00    -0.271 OA
BRANCH   8  11
HETATM   11  C   UNL     1       5.730  31.441  57.422  1.00  0.00     0.174 A 
HETATM   12  S   UNL     1       4.346  31.813  58.333  1.00  0.00    -0.050 SA
HETATM   13  C   UNL     1       5.351  32.169  59.686  1.00  0.00     0.040 A 
HETATM   14  C   UNL     1       6.686  31.944  59.331  1.00  0.00     0.079 A 
HETATM   15  C   UNL     1       4.979  32.609  60.966  1.00  0.00     0.061 A 
HETATM   16  N   UNL     1       6.889  31.550  58.010  1.00  0.00    -0.223 NA
HETATM   17  C   UNL     1       7.685  32.124  60.309  1.00  0.00     0.072 A 
HETATM   18  C   UNL     1       7.321  32.525  61.598  1.00  0.00     0.104 A 
HETATM   19  C   UNL     1       5.989  32.796  61.910  1.00  0.00     0.103 A 
HETATM   20  O   UNL     1       8.339  32.636  62.511  1.00  0.00    -0.346 OA
HETATM   21  O   UNL     1       5.580  33.238  63.144  1.00  0.00    -0.346 OA
HETATM   22  C   UNL     1       6.684  33.681  63.942  1.00  0.00     0.202 C 
HETATM   23  C   UNL     1       7.835  32.693  63.853  1.00  0.00     0.202 C 
ENDBRANCH   8  11
ENDBRANCH   6   7
ENDBRANCH   1   6
BRANCH   1  24
HETATM   24  C   UNL     1       6.943  27.218  54.545  1.00  0.00     0.338 C 
BRANCH  24  25
HETATM   25  C   UNL     1       6.769  25.711  54.764  1.00  0.00     0.248 C 
HETATM   26  N   UNL     1       7.912  24.982  54.519  1.00  0.00    -0.323 N 
HETATM   27  H   UNL     1       8.755  25.471  54.219  1.00  0.00     0.169 HD
HETATM   28  O   UNL     1       5.688  25.291  55.172  1.00  0.00    -0.271 OA
BRANCH  26  29
HETATM   29  C   UNL     1       8.104  23.590  54.683  1.00  0.00     0.077 A 
HETATM   30  C   UNL     1       8.049  22.809  53.518  1.00  0.00     0.184 A 
HETATM   31  F   UNL     1       7.828  23.420  52.342  1.00  0.00    -0.200 F 
HETATM   32  C   UNL     1       8.234  21.434  53.560  1.00  0.00     0.195 A 
HETATM   33  F   UNL     1       8.192  20.716  52.430  1.00  0.00    -0.199 F 
HETATM   34  C   UNL     1       8.471  20.818  54.777  1.00  0.00     0.158 A 
HETATM   35  F   UNL     1       8.652  19.493  54.840  1.00  0.00    -0.203 F 
HETATM   36  C   UNL     1       8.523  21.569  55.950  1.00  0.00     0.048 A 
HETATM   37  C   UNL     1       8.341  22.958  55.906  1.00  0.00     0.036 A 
ENDBRANCH  26  29
ENDBRANCH  24  25
ENDBRANCH   1  24
TORSDOF 8
ENDMDL
MODEL 7
REMARK VINA RESULT:      -9.1      6.879     11.044
REMARK  8 active torsions:
REMARK  status: ('A' for Active; 'I' for Inactive)
REMARK    1  A    between atoms: C_2  and  C_3 
REMARK    2  A    between atoms: C_3  and  N_4 
REMARK    3  A    between atoms: N_4  and  C_6 
REMARK    4  A    between atoms: N_4  and  C_23 
REMARK    5  A    between atoms: C_6  and  C_7 
REMARK       I    between atoms: C_7  and  N_8 
REMARK    6  A    between atoms: N_8  and  C_9 
REMARK    7  A    between atoms: C_23  and  C_24 
REMARK       I    between atoms: C_24  and  N_25 
REMARK    8  A    between atoms: N_25  and  C_26 
ROOT
HETATM    1  N   UNL     1       4.320  26.529  53.440  1.00  0.00    -0.055 N 
HETATM    2  H   UNL     1       3.666  26.015  54.051  1.00  0.00     0.281 HD
ENDROOT
BRANCH   1   3
HETATM    3  C   UNL     1       3.704  27.884  53.167  1.00  0.00     0.235 C 
BRANCH   3   4
HETATM    4  C   UNL     1       4.677  29.042  53.383  1.00  0.00     0.023 C 
HETATM    5  C   UNL     1       4.001  30.365  53.706  1.00  0.00     0.007 C 
ENDBRANCH   3   4
ENDBRANCH   1   3
BRANCH   1   6
HETATM    6  C   UNL     1       4.554  25.676  52.174  1.00  0.00     0.338 C 
BRANCH   6   7
HETATM    7  C   UNL     1       5.805  26.107  51.385  1.00  0.00     0.249 C 
HETATM    8  N   UNL     1       5.746  26.826  50.239  1.00  0.00    -0.304 N 
HETATM    9  H   UNL     1       6.631  27.137  49.853  1.00  0.00     0.171 HD
HETATM   10  O   UNL     1       6.925  25.858  51.851  1.00  0.00    -0.271 OA
BRANCH   8  11
HETATM   11  C   UNL     1       4.636  27.097  49.502  1.00  0.00     0.174 A 
HETATM   12  S   UNL     1       4.103  28.704  49.622  1.00  0.00    -0.050 SA
HETATM   13  C   UNL     1       2.813  28.342  48.541  1.00  0.00     0.040 A 
HETATM   14  C   UNL     1       2.914  27.003  48.147  1.00  0.00     0.079 A 
HETATM   15  C   UNL     1       1.794  29.186  48.073  1.00  0.00     0.061 A 
HETATM   16  N   UNL     1       3.957  26.290  48.734  1.00  0.00    -0.223 NA
HETATM   17  C   UNL     1       1.983  26.499  47.216  1.00  0.00     0.072 A 
HETATM   18  C   UNL     1       0.987  27.343  46.716  1.00  0.00     0.104 A 
HETATM   19  C   UNL     1       0.875  28.659  47.166  1.00  0.00     0.103 A 
HETATM   20  O   UNL     1       0.144  26.800  45.779  1.00  0.00    -0.346 OA
HETATM   21  O   UNL     1      -0.111  29.516  46.745  1.00  0.00    -0.346 OA
HETATM   22  C   UNL     1      -1.162  28.824  46.062  1.00  0.00     0.202 C 
HETATM   23  C   UNL     1      -0.586  27.818  45.079  1.00  0.00     0.202 C 
ENDBRANCH   8  11
ENDBRANCH   6   7
ENDBRANCH   1   6
BRANCH   1  24
HETATM   24  C   UNL     1       5.594  26.660  54.299  1.00  0.00     0.338 C 
BRANCH  24  25
HETATM   25  C   UNL     1       5.888  25.366  55.066  1.00  0.00     0.248 C 
HETATM   26  N   UNL     1       6.898  24.611  54.509  1.00  0.00    -0.323 N 
HETATM   27  H   UNL     1       7.356  24.948  53.662  1.00  0.00     0.169 HD
HETATM   28  O   UNL     1       5.266  25.135  56.100  1.00  0.00    -0.271 OA
BRANCH  26  29
HETATM   29  C   UNL     1       7.449  23.405  55.000  1.00  0.00     0.077 A 
HETATM   30  C   UNL     1       7.585  22.357  54.076  1.00  0.00     0.184 A 
HETATM   31  F   UNL     1       7.197  22.563  52.806  1.00  0.00    -0.200 F 
HETATM   32  C   UNL     1       8.125  21.133  54.445  1.00  0.00     0.195 A 
HETATM   33  F   UNL     1       8.257  20.156  53.538  1.00  0.00    -0.199 F 
HETATM   34  C   UNL     1       8.530  20.937  55.754  1.00  0.00     0.158 A 
HETATM   35  F   UNL     1       9.053  19.764  56.131  1.00  0.00    -0.203 F 
HETATM   36  C   UNL     1       8.399  21.959  56.693  1.00  0.00     0.048 A 
HETATM   37  C   UNL     1       7.860  23.196  56.318  1.00  0.00     0.036 A 
ENDBRANCH  26  29
ENDBRANCH  24  25
ENDBRANCH   1  24
TORSDOF 8
ENDMDL
MODEL 8
REMARK VINA RESULT:      -9.0      5.368     10.964
REMARK  8 active torsions:
REMARK  status: ('A' for Active; 'I' for Inactive)
REMARK    1  A    between atoms: C_2  and  C_3 
REMARK    2  A    between atoms: C_3  and  N_4 
REMARK    3  A    between atoms: N_4  and  C_6 
REMARK    4  A    between atoms: N_4  and  C_23 
REMARK    5  A    between atoms: C_6  and  C_7 
REMARK       I    between atoms: C_7  and  N_8 
REMARK    6  A    between atoms: N_8  and  C_9 
REMARK    7  A    between atoms: C_23  and  C_24 
REMARK       I    between atoms: C_24  and  N_25 
REMARK    8  A    between atoms: N_25  and  C_26 
ROOT
HETATM    1  N   UNL     1       5.076  31.225  58.618  1.00  0.00    -0.055 N 
HETATM    2  H   UNL     1       5.335  30.616  59.410  1.00  0.00     0.281 HD
ENDROOT
BRANCH   1   3
HETATM    3  C   UNL     1       4.066  30.469  57.784  1.00  0.00     0.235 C 
BRANCH   3   4
HETATM    4  C   UNL     1       4.670  29.281  57.036  1.00  0.00     0.023 C 
HETATM    5  C   UNL     1       4.015  28.996  55.694  1.00  0.00     0.007 C 
ENDBRANCH   3   4
ENDBRANCH   1   3
BRANCH   1   6
HETATM    6  C   UNL     1       6.371  31.593  57.861  1.00  0.00     0.338 C 
BRANCH   6   7
HETATM    7  C   UNL     1       7.641  31.354  58.699  1.00  0.00     0.249 C 
HETATM    8  N   UNL     1       8.446  30.277  58.534  1.00  0.00    -0.304 N 
HETATM    9  H   UNL     1       9.306  30.267  59.072  1.00  0.00     0.171 HD
HETATM   10  O   UNL     1       7.998  32.219  59.510  1.00  0.00    -0.271 OA
BRANCH   8  11
HETATM   11  C   UNL     1       8.181  29.166  57.796  1.00  0.00     0.174 A 
HETATM   12  S   UNL     1       8.300  29.406  56.120  1.00  0.00    -0.050 SA
HETATM   13  C   UNL     1       7.883  27.754  55.868  1.00  0.00     0.040 A 
HETATM   14  C   UNL     1       7.711  27.136  57.111  1.00  0.00     0.079 A 
HETATM   15  C   UNL     1       7.728  27.061  54.658  1.00  0.00     0.061 A 
HETATM   16  N   UNL     1       7.859  27.973  58.215  1.00  0.00    -0.223 NA
HETATM   17  C   UNL     1       7.414  25.758  57.146  1.00  0.00     0.072 A 
HETATM   18  C   UNL     1       7.294  25.051  55.946  1.00  0.00     0.104 A 
HETATM   19  C   UNL     1       7.417  25.703  54.720  1.00  0.00     0.103 A 
HETATM   20  O   UNL     1       7.050  23.705  56.056  1.00  0.00    -0.346 OA
HETATM   21  O   UNL     1       7.263  25.068  53.512  1.00  0.00    -0.346 OA
HETATM   22  C   UNL     1       6.664  23.776  53.663  1.00  0.00     0.202 C 
HETATM   23  C   UNL     1       7.303  23.025  54.818  1.00  0.00     0.202 C 
ENDBRANCH   8  11
ENDBRANCH   6   7
ENDBRANCH   1   6
BRANCH   1  24
HETATM   24  C   UNL     1       4.431  32.449  59.298  1.00  0.00     0.338 C 
BRANCH  24  25
HETATM   25  C   UNL     1       4.656  32.431  60.814  1.00  0.00     0.248 C 
HETATM   26  N   UNL     1       5.777  33.125  61.214  1.00  0.00    -0.323 N 
HETATM   27  H   UNL     1       6.356  33.578  60.507  1.00  0.00     0.169 HD
HETATM   28  O   UNL     1       3.829  31.870  61.530  1.00  0.00    -0.271 OA
BRANCH  26  29
HETATM   29  C   UNL     1       6.230  33.352  62.535  1.00  0.00     0.077 A 
HETATM   30  C   UNL     1       5.574  34.361  63.258  1.00  0.00     0.184 A 
HETATM   31  F   UNL     1       4.572  35.031  62.664  1.00  0.00    -0.200 F 
HETATM   32  C   UNL     1       5.927  34.660  64.566  1.00  0.00     0.195 A 
HETATM   33  F   UNL     1       5.273  35.618  65.237  1.00  0.00    -0.199 F 
HETATM   34  C   UNL     1       6.955  33.954  65.169  1.00  0.00     0.158 A 
HETATM   35  F   UNL     1       7.312  34.227  66.431  1.00  0.00    -0.203 F 
HETATM   36  C   UNL     1       7.627  32.953  64.472  1.00  0.00     0.048 A 
HETATM   37  C   UNL     1       7.266  32.648  63.153  1.00  0.00     0.036 A 
ENDBRANCH  26  29
ENDBRANCH  24  25
ENDBRANCH   1  24
TORSDOF 8
ENDMDL
MODEL 9
REMARK VINA RESULT:      -8.6      2.887      3.786
REMARK  8 active torsions:
REMARK  status: ('A' for Active; 'I' for Inactive)
REMARK    1  A    between atoms: C_2  and  C_3 
REMARK    2  A    between atoms: C_3  and  N_4 
REMARK    3  A    between atoms: N_4  and  C_6 
REMARK    4  A    between atoms: N_4  and  C_23 
REMARK    5  A    between atoms: C_6  and  C_7 
REMARK       I    between atoms: C_7  and  N_8 
REMARK    6  A    between atoms: N_8  and  C_9 
REMARK    7  A    between atoms: C_23  and  C_24 
REMARK       I    between atoms: C_24  and  N_25 
REMARK    8  A    between atoms: N_25  and  C_26 
ROOT
HETATM    1  N   UNL     1       6.205  27.954  56.079  1.00  0.00    -0.055 N 
HETATM    2  H   UNL     1       5.331  27.422  56.214  1.00  0.00     0.281 HD
ENDROOT
BRANCH   1   3
HETATM    3  C   UNL     1       7.003  27.835  57.359  1.00  0.00     0.235 C 
BRANCH   3   4
HETATM    4  C   UNL     1       8.513  27.887  57.135  1.00  0.00     0.023 C 
HETATM    5  C   UNL     1       9.133  29.249  57.402  1.00  0.00     0.007 C 
ENDBRANCH   3   4
ENDBRANCH   1   3
BRANCH   1   6
HETATM    6  C   UNL     1       5.822  29.403  55.707  1.00  0.00     0.338 C 
BRANCH   6   7
HETATM    7  C   UNL     1       4.373  29.527  55.200  1.00  0.00     0.249 C 
HETATM    8  N   UNL     1       3.467  30.373  55.745  1.00  0.00    -0.304 N 
HETATM    9  H   UNL     1       2.572  30.444  55.274  1.00  0.00     0.171 HD
HETATM   10  O   UNL     1       4.030  28.886  54.197  1.00  0.00    -0.271 OA
BRANCH   8  11
HETATM   11  C   UNL     1       3.596  31.068  56.908  1.00  0.00     0.174 A 
HETATM   12  S   UNL     1       4.198  32.642  56.708  1.00  0.00    -0.050 SA
HETATM   13  C   UNL     1       4.094  32.883  58.410  1.00  0.00     0.040 A 
HETATM   14  C   UNL     1       3.571  31.726  58.999  1.00  0.00     0.079 A 
HETATM   15  C   UNL     1       4.444  34.015  59.161  1.00  0.00     0.061 A 
HETATM   16  N   UNL     1       3.315  30.676  58.120  1.00  0.00    -0.223 NA
HETATM   17  C   UNL     1       3.350  31.717  60.392  1.00  0.00     0.072 A 
HETATM   18  C   UNL     1       3.661  32.855  61.143  1.00  0.00     0.104 A 
HETATM   19  C   UNL     1       4.232  33.974  60.539  1.00  0.00     0.103 A 
HETATM   20  O   UNL     1       3.377  32.793  62.485  1.00  0.00    -0.346 OA
HETATM   21  O   UNL     1       4.600  35.099  61.235  1.00  0.00    -0.346 OA
HETATM   22  C   UNL     1       4.626  34.865  62.648  1.00  0.00     0.202 C 
HETATM   23  C   UNL     1       3.389  34.097  63.082  1.00  0.00     0.202 C 
ENDBRANCH   8  11
ENDBRANCH   6   7
ENDBRANCH   1   6
BRANCH   1  24
HETATM   24  C   UNL     1       6.904  27.219  54.918  1.00  0.00     0.338 C 
BRANCH  24  25
HETATM   25  C   UNL     1       6.691  25.704  55.005  1.00  0.00     0.248 C 
HETATM   26  N   UNL     1       7.850  24.974  54.849  1.00  0.00    -0.323 N 
HETATM   27  H   UNL     1       8.727  25.468  54.688  1.00  0.00     0.169 HD
HETATM   28  O   UNL     1       5.565  25.276  55.249  1.00  0.00    -0.271 OA
BRANCH  26  29
HETATM   29  C   UNL     1       8.007  23.571  54.935  1.00  0.00     0.077 A 
HETATM   30  C   UNL     1       8.024  22.867  53.720  1.00  0.00     0.184 A 
HETATM   31  F   UNL     1       7.897  23.556  52.574  1.00  0.00    -0.200 F 
HETATM   32  C   UNL     1       8.185  21.489  53.685  1.00  0.00     0.195 A 
HETATM   33  F   UNL     1       8.212  20.845  52.510  1.00  0.00    -0.199 F 
HETATM   34  C   UNL     1       8.324  20.792  54.873  1.00  0.00     0.158 A 
HETATM   35  F   UNL     1       8.481  19.462  54.862  1.00  0.00    -0.203 F 
HETATM   36  C   UNL     1       8.304  21.465  56.093  1.00  0.00     0.048 A 
HETATM   37  C   UNL     1       8.147  22.858  56.127  1.00  0.00     0.036 A 
ENDBRANCH  26  29
ENDBRANCH  24  25
ENDBRANCH   1  24
TORSDOF 8
ENDMDL
MODEL 10
REMARK VINA RESULT:      -8.5      6.354      9.829
REMARK  8 active torsions:
REMARK  status: ('A' for Active; 'I' for Inactive)
REMARK    1  A    between atoms: C_2  and  C_3 
REMARK    2  A    between atoms: C_3  and  N_4 
REMARK    3  A    between atoms: N_4  and  C_6 
REMARK    4  A    between atoms: N_4  and  C_23 
REMARK    5  A    between atoms: C_6  and  C_7 
REMARK       I    between atoms: C_7  and  N_8 
REMARK    6  A    between atoms: N_8  and  C_9 
REMARK    7  A    between atoms: C_23  and  C_24 
REMARK       I    between atoms: C_24  and  N_25 
REMARK    8  A    between atoms: N_25  and  C_26 
ROOT
HETATM    1  N   UNL     1       5.501  26.729  54.581  1.00  0.00    -0.055 N 
HETATM    2  H   UNL     1       5.439  25.738  54.864  1.00  0.00     0.281 HD
ENDROOT
BRANCH   1   3
HETATM    3  C   UNL     1       5.052  27.561  55.762  1.00  0.00     0.235 C 
BRANCH   3   4
HETATM    4  C   UNL     1       4.155  28.733  55.367  1.00  0.00     0.023 C 
HETATM    5  C   UNL     1       3.947  29.754  56.474  1.00  0.00     0.007 C 
ENDBRANCH   3   4
ENDBRANCH   1   3
BRANCH   1   6
HETATM    6  C   UNL     1       4.636  26.912  53.314  1.00  0.00     0.338 C 
BRANCH   6   7
HETATM    7  C   UNL     1       4.657  25.679  52.392  1.00  0.00     0.249 C 
HETATM    8  N   UNL     1       4.859  25.756  51.055  1.00  0.00    -0.304 N 
HETATM    9  H   UNL     1       4.948  24.876  50.558  1.00  0.00     0.171 HD
HETATM   10  O   UNL     1       4.563  24.550  52.895  1.00  0.00    -0.271 OA
BRANCH   8  11
HETATM   11  C   UNL     1       4.865  26.884  50.295  1.00  0.00     0.174 A 
HETATM   12  S   UNL     1       3.948  26.760  48.872  1.00  0.00    -0.050 SA
HETATM   13  C   UNL     1       4.372  28.381  48.475  1.00  0.00     0.040 A 
HETATM   14  C   UNL     1       5.173  28.903  49.497  1.00  0.00     0.079 A 
HETATM   15  C   UNL     1       4.014  29.133  47.346  1.00  0.00     0.061 A 
HETATM   16  N   UNL     1       5.471  28.015  50.528  1.00  0.00    -0.223 NA
HETATM   17  C   UNL     1       5.598  30.244  49.406  1.00  0.00     0.072 A 
HETATM   18  C   UNL     1       5.215  31.012  48.302  1.00  0.00     0.104 A 
HETATM   19  C   UNL     1       4.462  30.452  47.271  1.00  0.00     0.103 A 
HETATM   20  O   UNL     1       5.625  32.322  48.302  1.00  0.00    -0.346 OA
HETATM   21  O   UNL     1       4.098  31.145  46.143  1.00  0.00    -0.346 OA
HETATM   22  C   UNL     1       4.833  32.367  46.010  1.00  0.00     0.202 C 
HETATM   23  C   UNL     1       4.895  33.098  47.341  1.00  0.00     0.202 C 
ENDBRANCH   8  11
ENDBRANCH   6   7
ENDBRANCH   1   6
BRANCH   1  24
HETATM   24  C   UNL     1       7.002  26.932  54.295  1.00  0.00     0.338 C 
BRANCH  24  25
HETATM   25  C   UNL     1       7.650  25.650  53.762  1.00  0.00     0.248 C 
HETATM   26  N   UNL     1       7.454  24.554  54.574  1.00  0.00    -0.323 N 
HETATM   27  H   UNL     1       6.921  24.667  55.436  1.00  0.00     0.169 HD
HETATM   28  O   UNL     1       8.223  25.682  52.675  1.00  0.00    -0.271 OA
BRANCH  26  29
HETATM   29  C   UNL     1       7.865  23.220  54.342  1.00  0.00     0.077 A 
HETATM   30  C   UNL     1       8.530  22.578  55.399  1.00  0.00     0.184 A 
HETATM   31  F   UNL     1       8.726  23.254  56.543  1.00  0.00    -0.200 F 
HETATM   32  C   UNL     1       8.967  21.265  55.286  1.00  0.00     0.195 A 
HETATM   33  F   UNL     1       9.586  20.672  56.317  1.00  0.00    -0.199 F 
HETATM   34  C   UNL     1       8.750  20.577  54.105  1.00  0.00     0.158 A 
HETATM   35  F   UNL     1       9.163  19.310  53.976  1.00  0.00    -0.203 F 
HETATM   36  C   UNL     1       8.099  21.193  53.039  1.00  0.00     0.048 A 
HETATM   37  C   UNL     1       7.653  22.517  53.155  1.00  0.00     0.036 A 
ENDBRANCH  26  29
ENDBRANCH  24  25
ENDBRANCH   1  24
TORSDOF 8
ENDMDL
