MODEL 1
REMARK VINA RESULT:     -10.5      0.000      0.000
REMARK  8 active torsions:
REMARK  status: ('A' for Active; 'I' for Inactive)
REMARK    1  A    between atoms: C_5  and  C_6 
REMARK       I    between atoms: C_6  and  N_7 
REMARK    2  A    between atoms: N_7  and  N_8 
REMARK       I    between atoms: N_8  and  C_9 
REMARK    3  A    between atoms: C_9  and  C_10 
REMARK    4  A    between atoms: C_10  and  S_11 
REMARK    5  A    between atoms: S_11  and  C_12 
REMARK    6  A    between atoms: N_13  and  C_14 
REMARK    7  A    between atoms: C_21  and  C_22 
REMARK    8  A    between atoms: C_22  and  N_23 
ROOT
HETATM    1  C   UNL     1       5.538  29.200  55.645  1.00  0.00     0.196 A 
HETATM    2  N   UNL     1       6.715  28.523  55.906  1.00  0.00    -0.274 N 
HETATM    3  C   UNL     1       6.392  27.186  55.668  1.00  0.00     0.166 A 
HETATM    4  N   UNL     1       5.156  27.117  55.209  1.00  0.00    -0.131 NA
HETATM    5  N   UNL     1       4.624  28.370  55.203  1.00  0.00    -0.122 NA
ENDROOT
BRANCH   1   6
HETATM    6  S   UNL     1       5.322  30.916  55.715  1.00  0.00    -0.080 SA
BRANCH   6   7
HETATM    7  C   UNL     1       3.687  30.994  56.499  1.00  0.00     0.187 C 
BRANCH   7   8
HETATM    8  C   UNL     1       3.807  31.650  57.864  1.00  0.00     0.245 C 
HETATM    9  N   UNL     1       4.858  31.167  58.614  1.00  0.00    -0.267 N 
HETATM   10  H   UNL     1       5.486  30.419  58.313  1.00  0.00     0.190 HD
HETATM   11  O   UNL     1       3.048  32.539  58.256  1.00  0.00    -0.271 OA
BRANCH   9  12
HETATM   12  N   UNL     1       5.061  31.622  59.921  1.00  0.00    -0.263 N 
HETATM   13  C   UNL     1       6.269  32.251  60.172  1.00  0.00     0.270 C 
HETATM   14  O   UNL     1       7.077  32.448  59.264  1.00  0.00    -0.266 OA
HETATM   15  H   UNL     1       4.401  31.313  60.627  1.00  0.00     0.190 HD
BRANCH  13  16
HETATM   16  C   UNL     1       6.579  32.659  61.573  1.00  0.00     0.033 A 
HETATM   17  C   UNL     1       7.763  32.313  62.234  1.00  0.00     0.017 A 
HETATM   18  C   UNL     1       7.982  32.734  63.551  1.00  0.00     0.007 A 
HETATM   19  C   UNL     1       7.026  33.503  64.225  1.00  0.00    -0.062 A 
HETATM   20  C   UNL     1       7.242  33.934  65.646  1.00  0.00     0.048 C 
HETATM   21  C   UNL     1       5.835  33.832  63.570  1.00  0.00     0.007 A 
HETATM   22  C   UNL     1       5.615  33.416  62.255  1.00  0.00     0.017 A 
ENDBRANCH  13  16
ENDBRANCH   9  12
ENDBRANCH   7   8
ENDBRANCH   6   7
ENDBRANCH   1   6
BRANCH   2  23
HETATM   23  C   UNL     1       7.958  29.041  56.346  1.00  0.00     0.043 A 
HETATM   24  C   UNL     1       9.021  29.183  55.442  1.00  0.00     0.033 A 
HETATM   25  C   UNL     1      10.234  29.721  55.877  1.00  0.00     0.044 A 
HETATM   26  C   UNL     1      10.381  30.103  57.205  1.00  0.00     0.116 A 
HETATM   27  F   UNL     1      11.544  30.620  57.620  1.00  0.00    -0.206 F 
HETATM   28  C   UNL     1       9.337  29.953  58.113  1.00  0.00     0.044 A 
HETATM   29  C   UNL     1       8.119  29.419  57.687  1.00  0.00     0.033 A 
ENDBRANCH   2  23
BRANCH   3  30
HETATM   30  C   UNL     1       7.239  25.991  56.002  1.00  0.00     0.255 C 
HETATM   31  C   UNL     1       6.862  25.365  57.351  1.00  0.00     0.049 C 
BRANCH  30  32
HETATM   32  N   UNL     1       7.229  24.857  54.937  1.00  0.00    -0.060 N 
HETATM   33  H   UNL     1       6.246  24.569  54.860  1.00  0.00     0.280 HD
HETATM   34  C   UNL     1       7.665  25.271  53.541  1.00  0.00     0.236 C 
HETATM   35  C   UNL     1       7.376  24.128  52.574  1.00  0.00     0.028 C 
HETATM   36  C   UNL     1       8.067  22.839  53.006  1.00  0.00     0.003 C 
HETATM   37  C   UNL     1       7.714  22.479  54.445  1.00  0.00     0.028 C 
HETATM   38  C   UNL     1       7.994  23.632  55.401  1.00  0.00     0.236 C 
ENDBRANCH  30  32
ENDBRANCH   3  30
TORSDOF 8
ENDMDL
MODEL 2
REMARK VINA RESULT:     -10.2      2.725      3.913
REMARK  8 active torsions:
REMARK  status: ('A' for Active; 'I' for Inactive)
REMARK    1  A    between atoms: C_5  and  C_6 
REMARK       I    between atoms: C_6  and  N_7 
REMARK    2  A    between atoms: N_7  and  N_8 
REMARK       I    between atoms: N_8  and  C_9 
REMARK    3  A    between atoms: C_9  and  C_10 
REMARK    4  A    between atoms: C_10  and  S_11 
REMARK    5  A    between atoms: S_11  and  C_12 
REMARK    6  A    between atoms: N_13  and  C_14 
REMARK    7  A    between atoms: C_21  and  C_22 
REMARK    8  A    between atoms: C_22  and  N_23 
ROOT
HETATM    1  C   UNL     1       7.699  28.112  57.012  1.00  0.00     0.196 A 
HETATM    2  N   UNL     1       6.971  27.214  56.253  1.00  0.00    -0.274 N 
HETATM    3  C   UNL     1       7.035  26.027  56.985  1.00  0.00     0.166 A 
HETATM    4  N   UNL     1       7.665  26.256  58.122  1.00  0.00    -0.131 NA
HETATM    5  N   UNL     1       8.084  27.551  58.134  1.00  0.00    -0.122 NA
ENDROOT
BRANCH   1   6
HETATM    6  S   UNL     1       7.937  29.787  56.646  1.00  0.00    -0.080 SA
BRANCH   6   7
HETATM    7  C   UNL     1       9.276  30.174  57.809  1.00  0.00     0.187 C 
BRANCH   7   8
HETATM    8  C   UNL     1       8.783  31.175  58.840  1.00  0.00     0.245 C 
HETATM    9  N   UNL     1       7.837  30.658  59.699  1.00  0.00    -0.267 N 
HETATM   10  H   UNL     1       7.466  29.707  59.644  1.00  0.00     0.190 HD
HETATM   11  O   UNL     1       9.200  32.333  58.912  1.00  0.00    -0.271 OA
BRANCH   9  12
HETATM   12  N   UNL     1       7.234  31.474  60.661  1.00  0.00    -0.263 N 
HETATM   13  C   UNL     1       7.747  31.391  61.945  1.00  0.00     0.270 C 
HETATM   14  O   UNL     1       8.724  30.681  62.188  1.00  0.00    -0.266 OA
HETATM   15  H   UNL     1       6.367  31.933  60.404  1.00  0.00     0.190 HD
BRANCH  13  16
HETATM   16  C   UNL     1       7.073  32.161  63.030  1.00  0.00     0.033 A 
HETATM   17  C   UNL     1       5.683  32.216  63.187  1.00  0.00     0.017 A 
HETATM   18  C   UNL     1       5.122  32.962  64.232  1.00  0.00     0.007 A 
HETATM   19  C   UNL     1       5.938  33.660  65.130  1.00  0.00    -0.062 A 
HETATM   20  C   UNL     1       5.343  34.484  66.234  1.00  0.00     0.048 C 
HETATM   21  C   UNL     1       7.325  33.620  64.960  1.00  0.00     0.007 A 
HETATM   22  C   UNL     1       7.887  32.874  63.921  1.00  0.00     0.017 A 
ENDBRANCH  13  16
ENDBRANCH   9  12
ENDBRANCH   7   8
ENDBRANCH   6   7
ENDBRANCH   1   6
BRANCH   2  23
HETATM   23  C   UNL     1       6.331  27.420  55.006  1.00  0.00     0.043 A 
HETATM   24  C   UNL     1       7.024  27.179  53.811  1.00  0.00     0.033 A 
HETATM   25  C   UNL     1       6.376  27.357  52.586  1.00  0.00     0.044 A 
HETATM   26  C   UNL     1       5.053  27.780  52.562  1.00  0.00     0.116 A 
HETATM   27  F   UNL     1       4.434  27.948  51.387  1.00  0.00    -0.206 F 
HETATM   28  C   UNL     1       4.361  28.035  53.742  1.00  0.00     0.044 A 
HETATM   29  C   UNL     1       4.999  27.857  54.972  1.00  0.00     0.033 A 
ENDBRANCH   2  23
BRANCH   3  30
HETATM   30  C   UNL     1       6.595  24.668  56.520  1.00  0.00     0.255 C 
HETATM   31  C   UNL     1       5.170  24.676  55.954  1.00  0.00     0.049 C 
BRANCH  30  32
HETATM   32  N   UNL     1       7.519  24.003  55.460  1.00  0.00    -0.060 N 
HETATM   33  H   UNL     1       8.232  24.710  55.242  1.00  0.00     0.280 HD
HETATM   34  C   UNL     1       8.271  22.769  55.933  1.00  0.00     0.236 C 
HETATM   35  C   UNL     1       9.299  22.381  54.876  1.00  0.00     0.028 C 
HETATM   36  C   UNL     1       8.646  22.140  53.520  1.00  0.00     0.003 C 
HETATM   37  C   UNL     1       7.803  23.336  53.091  1.00  0.00     0.028 C 
HETATM   38  C   UNL     1       6.788  23.724  54.161  1.00  0.00     0.236 C 
ENDBRANCH  30  32
ENDBRANCH   3  30
TORSDOF 8
ENDMDL
MODEL 3
REMARK VINA RESULT:      -9.8      3.385      5.067
REMARK  8 active torsions:
REMARK  status: ('A' for Active; 'I' for Inactive)
REMARK    1  A    between atoms: C_5  and  C_6 
REMARK       I    between atoms: C_6  and  N_7 
REMARK    2  A    between atoms: N_7  and  N_8 
REMARK       I    between atoms: N_8  and  C_9 
REMARK    3  A    between atoms: C_9  and  C_10 
REMARK    4  A    between atoms: C_10  and  S_11 
REMARK    5  A    between atoms: S_11  and  C_12 
REMARK    6  A    between atoms: N_13  and  C_14 
REMARK    7  A    between atoms: C_21  and  C_22 
REMARK    8  A    between atoms: C_22  and  N_23 
ROOT
HETATM    1  C   UNL     1       6.582  28.181  55.115  1.00  0.00     0.196 A 
HETATM    2  N   UNL     1       6.190  27.409  54.037  1.00  0.00    -0.274 N 
HETATM    3  C   UNL     1       5.194  28.171  53.423  1.00  0.00     0.166 A 
HETATM    4  N   UNL     1       5.097  29.332  54.043  1.00  0.00    -0.131 NA
HETATM    5  N   UNL     1       5.955  29.333  55.100  1.00  0.00    -0.122 NA
ENDROOT
BRANCH   1   6
HETATM    6  S   UNL     1       7.839  27.788  56.238  1.00  0.00    -0.080 SA
BRANCH   6   7
HETATM    7  C   UNL     1       8.402  29.457  56.675  1.00  0.00     0.187 C 
BRANCH   7   8
HETATM    8  C   UNL     1       8.028  29.761  58.115  1.00  0.00     0.245 C 
HETATM    9  N   UNL     1       7.308  30.928  58.260  1.00  0.00    -0.267 N 
HETATM   10  H   UNL     1       7.068  31.557  57.492  1.00  0.00     0.190 HD
HETATM   11  O   UNL     1       8.325  29.028  59.060  1.00  0.00    -0.271 OA
BRANCH   9  12
HETATM   12  N   UNL     1       6.947  31.382  59.533  1.00  0.00    -0.263 N 
HETATM   13  C   UNL     1       7.831  32.252  60.148  1.00  0.00     0.270 C 
HETATM   14  O   UNL     1       8.840  32.644  59.561  1.00  0.00    -0.266 OA
HETATM   15  H   UNL     1       6.166  30.920  59.986  1.00  0.00     0.190 HD
BRANCH  13  16
HETATM   16  C   UNL     1       7.546  32.681  61.547  1.00  0.00     0.033 A 
HETATM   17  C   UNL     1       8.309  32.278  62.650  1.00  0.00     0.017 A 
HETATM   18  C   UNL     1       7.978  32.724  63.935  1.00  0.00     0.007 A 
HETATM   19  C   UNL     1       6.885  33.575  64.138  1.00  0.00    -0.062 A 
HETATM   20  C   UNL     1       6.507  34.033  65.516  1.00  0.00     0.048 C 
HETATM   21  C   UNL     1       6.112  33.961  63.039  1.00  0.00     0.007 A 
HETATM   22  C   UNL     1       6.441  33.521  61.755  1.00  0.00     0.017 A 
ENDBRANCH  13  16
ENDBRANCH   9  12
ENDBRANCH   7   8
ENDBRANCH   6   7
ENDBRANCH   1   6
BRANCH   2  23
HETATM   23  C   UNL     1       6.653  26.127  53.649  1.00  0.00     0.043 A 
HETATM   24  C   UNL     1       6.291  24.993  54.390  1.00  0.00     0.033 A 
HETATM   25  C   UNL     1       6.728  23.730  53.983  1.00  0.00     0.044 A 
HETATM   26  C   UNL     1       7.525  23.609  52.852  1.00  0.00     0.116 A 
HETATM   27  F   UNL     1       7.940  22.398  52.463  1.00  0.00    -0.206 F 
HETATM   28  C   UNL     1       7.900  24.729  52.117  1.00  0.00     0.044 A 
HETATM   29  C   UNL     1       7.466  25.996  52.513  1.00  0.00     0.033 A 
ENDBRANCH   2  23
BRANCH   3  30
HETATM   30  C   UNL     1       4.273  27.717  52.326  1.00  0.00     0.255 C 
HETATM   31  C   UNL     1       2.922  28.442  52.358  1.00  0.00     0.049 C 
BRANCH  30  32
HETATM   32  N   UNL     1       4.846  27.850  50.887  1.00  0.00    -0.060 N 
HETATM   33  H   UNL     1       5.807  27.494  50.945  1.00  0.00     0.280 HD
HETATM   34  C   UNL     1       4.145  27.015  49.827  1.00  0.00     0.236 C 
HETATM   35  C   UNL     1       4.958  27.068  48.538  1.00  0.00     0.028 C 
HETATM   36  C   UNL     1       5.163  28.501  48.062  1.00  0.00     0.003 C 
HETATM   37  C   UNL     1       5.769  29.367  49.160  1.00  0.00     0.028 C 
HETATM   38  C   UNL     1       4.956  29.297  50.448  1.00  0.00     0.236 C 
ENDBRANCH  30  32
ENDBRANCH   3  30
TORSDOF 8
ENDMDL
MODEL 4
REMARK VINA RESULT:      -9.7      1.279      2.077
REMARK  8 active torsions:
REMARK  status: ('A' for Active; 'I' for Inactive)
REMARK    1  A    between atoms: C_5  and  C_6 
REMARK       I    between atoms: C_6  and  N_7 
REMARK    2  A    between atoms: N_7  and  N_8 
REMARK       I    between atoms: N_8  and  C_9 
REMARK    3  A    between atoms: C_9  and  C_10 
REMARK    4  A    between atoms: C_10  and  S_11 
REMARK    5  A    between atoms: S_11  and  C_12 
REMARK    6  A    between atoms: N_13  and  C_14 
REMARK    7  A    between atoms: C_21  and  C_22 
REMARK    8  A    between atoms: C_22  and  N_23 
ROOT
HETATM    1  C   UNL     1       5.237  29.767  56.088  1.00  0.00     0.196 A 
HETATM    2  N   UNL     1       6.314  28.903  56.159  1.00  0.00    -0.274 N 
HETATM    3  C   UNL     1       5.754  27.648  55.909  1.00  0.00     0.166 A 
HETATM    4  N   UNL     1       4.475  27.798  55.618  1.00  0.00    -0.131 NA
HETATM    5  N   UNL     1       4.153  29.116  55.738  1.00  0.00    -0.122 NA
ENDROOT
BRANCH   1   6
HETATM    6  S   UNL     1       5.307  31.488  56.260  1.00  0.00    -0.080 SA
BRANCH   6   7
HETATM    7  C   UNL     1       4.312  31.693  57.764  1.00  0.00     0.187 C 
BRANCH   7   8
HETATM    8  C   UNL     1       5.202  32.152  58.906  1.00  0.00     0.245 C 
HETATM    9  N   UNL     1       4.600  32.057  60.143  1.00  0.00    -0.267 N 
HETATM   10  H   UNL     1       3.640  31.743  60.295  1.00  0.00     0.190 HD
HETATM   11  O   UNL     1       6.356  32.554  58.745  1.00  0.00    -0.271 OA
BRANCH   9  12
HETATM   12  N   UNL     1       5.265  32.506  61.289  1.00  0.00    -0.263 N 
HETATM   13  C   UNL     1       4.606  32.321  62.493  1.00  0.00     0.270 C 
HETATM   14  O   UNL     1       3.526  31.731  62.536  1.00  0.00    -0.266 OA
HETATM   15  H   UNL     1       6.088  33.082  61.152  1.00  0.00     0.190 HD
BRANCH  13  16
HETATM   16  C   UNL     1       5.224  32.876  63.732  1.00  0.00     0.033 A 
HETATM   17  C   UNL     1       4.481  33.383  64.804  1.00  0.00     0.017 A 
HETATM   18  C   UNL     1       5.134  33.888  65.936  1.00  0.00     0.007 A 
HETATM   19  C   UNL     1       6.531  33.895  66.012  1.00  0.00    -0.062 A 
HETATM   20  C   UNL     1       7.237  34.460  67.209  1.00  0.00     0.048 C 
HETATM   21  C   UNL     1       7.272  33.405  64.933  1.00  0.00     0.007 A 
HETATM   22  C   UNL     1       6.624  32.898  63.804  1.00  0.00     0.017 A 
ENDBRANCH  13  16
ENDBRANCH   9  12
ENDBRANCH   7   8
ENDBRANCH   6   7
ENDBRANCH   1   6
BRANCH   2  23
HETATM   23  C   UNL     1       7.669  29.196  56.449  1.00  0.00     0.043 A 
HETATM   24  C   UNL     1       8.057  29.505  57.761  1.00  0.00     0.033 A 
HETATM   25  C   UNL     1       9.401  29.764  58.043  1.00  0.00     0.044 A 
HETATM   26  C   UNL     1      10.340  29.722  57.021  1.00  0.00     0.116 A 
HETATM   27  F   UNL     1      11.627  29.968  57.294  1.00  0.00    -0.206 F 
HETATM   28  C   UNL     1       9.963  29.428  55.714  1.00  0.00     0.044 A 
HETATM   29  C   UNL     1       8.623  29.165  55.421  1.00  0.00     0.033 A 
ENDBRANCH   2  23
BRANCH   3  30
HETATM   30  C   UNL     1       6.435  26.319  56.074  1.00  0.00     0.255 C 
HETATM   31  C   UNL     1       5.655  25.372  56.995  1.00  0.00     0.049 C 
BRANCH  30  32
HETATM   32  N   UNL     1       6.723  25.557  54.749  1.00  0.00    -0.060 N 
HETATM   33  H   UNL     1       5.856  25.051  54.535  1.00  0.00     0.280 HD
HETATM   34  C   UNL     1       7.017  26.435  53.543  1.00  0.00     0.236 C 
HETATM   35  C   UNL     1       7.040  25.564  52.292  1.00  0.00     0.028 C 
HETATM   36  C   UNL     1       8.060  24.437  52.412  1.00  0.00     0.003 C 
HETATM   37  C   UNL     1       7.833  23.619  53.678  1.00  0.00     0.028 C 
HETATM   38  C   UNL     1       7.798  24.501  54.921  1.00  0.00     0.236 C 
ENDBRANCH  30  32
ENDBRANCH   3  30
TORSDOF 8
ENDMDL
MODEL 5
REMARK VINA RESULT:      -9.5      2.620      9.916
REMARK  8 active torsions:
REMARK  status: ('A' for Active; 'I' for Inactive)
REMARK    1  A    between atoms: C_5  and  C_6 
REMARK       I    between atoms: C_6  and  N_7 
REMARK    2  A    between atoms: N_7  and  N_8 
REMARK       I    between atoms: N_8  and  C_9 
REMARK    3  A    between atoms: C_9  and  C_10 
REMARK    4  A    between atoms: C_10  and  S_11 
REMARK    5  A    between atoms: S_11  and  C_12 
REMARK    6  A    between atoms: N_13  and  C_14 
REMARK    7  A    between atoms: C_21  and  C_22 
REMARK    8  A    between atoms: C_22  and  N_23 
ROOT
HETATM    1  C   UNL     1       4.672  31.441  58.364  1.00  0.00     0.196 A 
HETATM    2  N   UNL     1       5.269  32.164  59.380  1.00  0.00    -0.274 N 
HETATM    3  C   UNL     1       4.322  33.139  59.699  1.00  0.00     0.166 A 
HETATM    4  N   UNL     1       3.229  32.925  58.991  1.00  0.00    -0.131 NA
HETATM    5  N   UNL     1       3.451  31.873  58.155  1.00  0.00    -0.122 NA
ENDROOT
BRANCH   1   6
HETATM    6  S   UNL     1       5.343  30.051  57.581  1.00  0.00    -0.080 SA
BRANCH   6   7
HETATM    7  C   UNL     1       3.941  29.575  56.532  1.00  0.00     0.187 C 
BRANCH   7   8
HETATM    8  C   UNL     1       4.316  28.363  55.697  1.00  0.00     0.245 C 
HETATM    9  N   UNL     1       4.503  27.219  56.443  1.00  0.00    -0.267 N 
HETATM   10  H   UNL     1       4.433  27.177  57.461  1.00  0.00     0.190 HD
HETATM   11  O   UNL     1       4.427  28.395  54.469  1.00  0.00    -0.271 OA
BRANCH   9  12
HETATM   12  N   UNL     1       4.919  26.034  55.828  1.00  0.00    -0.263 N 
HETATM   13  C   UNL     1       6.287  25.822  55.765  1.00  0.00     0.270 C 
HETATM   14  O   UNL     1       7.071  26.614  56.289  1.00  0.00    -0.266 OA
HETATM   15  H   UNL     1       4.219  25.502  55.323  1.00  0.00     0.190 HD
BRANCH  13  16
HETATM   16  C   UNL     1       6.786  24.627  55.026  1.00  0.00     0.033 A 
HETATM   17  C   UNL     1       6.820  24.542  53.629  1.00  0.00     0.017 A 
HETATM   18  C   UNL     1       7.304  23.384  53.007  1.00  0.00     0.007 A 
HETATM   19  C   UNL     1       7.757  22.299  53.766  1.00  0.00    -0.062 A 
HETATM   20  C   UNL     1       8.250  21.045  53.106  1.00  0.00     0.048 C 
HETATM   21  C   UNL     1       7.704  22.378  55.161  1.00  0.00     0.007 A 
HETATM   22  C   UNL     1       7.225  23.533  55.785  1.00  0.00     0.017 A 
ENDBRANCH  13  16
ENDBRANCH   9  12
ENDBRANCH   7   8
ENDBRANCH   6   7
ENDBRANCH   1   6
BRANCH   2  23
HETATM   23  C   UNL     1       6.554  31.995  59.953  1.00  0.00     0.043 A 
HETATM   24  C   UNL     1       7.702  32.113  59.155  1.00  0.00     0.033 A 
HETATM   25  C   UNL     1       8.965  31.973  59.734  1.00  0.00     0.044 A 
HETATM   26  C   UNL     1       9.074  31.709  61.094  1.00  0.00     0.116 A 
HETATM   27  F   UNL     1      10.286  31.578  61.646  1.00  0.00    -0.206 F 
HETATM   28  C   UNL     1       7.942  31.577  61.890  1.00  0.00     0.044 A 
HETATM   29  C   UNL     1       6.674  31.718  61.322  1.00  0.00     0.033 A 
ENDBRANCH   2  23
BRANCH   3  30
HETATM   30  C   UNL     1       4.534  34.329  60.592  1.00  0.00     0.255 C 
HETATM   31  C   UNL     1       3.774  35.569  60.104  1.00  0.00     0.049 C 
BRANCH  30  32
HETATM   32  N   UNL     1       4.163  34.106  62.086  1.00  0.00    -0.060 N 
HETATM   33  H   UNL     1       4.101  33.088  62.199  1.00  0.00     0.280 HD
HETATM   34  C   UNL     1       5.197  34.587  63.092  1.00  0.00     0.236 C 
HETATM   35  C   UNL     1       4.805  34.090  64.479  1.00  0.00     0.028 C 
HETATM   36  C   UNL     1       3.405  34.553  64.866  1.00  0.00     0.003 C 
HETATM   37  C   UNL     1       2.381  34.164  63.805  1.00  0.00     0.028 C 
HETATM   38  C   UNL     1       2.789  34.654  62.421  1.00  0.00     0.236 C 
ENDBRANCH  30  32
ENDBRANCH   3  30
TORSDOF 8
ENDMDL
MODEL 6
REMARK VINA RESULT:      -9.2      1.581      2.094
REMARK  8 active torsions:
REMARK  status: ('A' for Active; 'I' for Inactive)
REMARK    1  A    between atoms: C_5  and  C_6 
REMARK       I    between atoms: C_6  and  N_7 
REMARK    2  A    between atoms: N_7  and  N_8 
REMARK       I    between atoms: N_8  and  C_9 
REMARK    3  A    between atoms: C_9  and  C_10 
REMARK    4  A    between atoms: C_10  and  S_11 
REMARK    5  A    between atoms: S_11  and  C_12 
REMARK    6  A    between atoms: N_13  and  C_14 
REMARK    7  A    between atoms: C_21  and  C_22 
REMARK    8  A    between atoms: C_22  and  N_23 
ROOT
HETATM    1  C   UNL     1       5.577  28.728  55.774  1.00  0.00     0.196 A 
HETATM    2  N   UNL     1       6.838  28.200  55.986  1.00  0.00    -0.274 N 
HETATM    3  C   UNL     1       6.681  26.839  55.716  1.00  0.00     0.166 A 
HETATM    4  N   UNL     1       5.452  26.625  55.285  1.00  0.00    -0.131 NA
HETATM    5  N   UNL     1       4.764  27.799  55.329  1.00  0.00    -0.122 NA
ENDROOT
BRANCH   1   6
HETATM    6  S   UNL     1       5.146  30.400  55.899  1.00  0.00    -0.080 SA
BRANCH   6   7
HETATM    7  C   UNL     1       4.648  30.464  57.643  1.00  0.00     0.187 C 
BRANCH   7   8
HETATM    8  C   UNL     1       5.055  31.800  58.241  1.00  0.00     0.245 C 
HETATM    9  N   UNL     1       5.396  31.722  59.575  1.00  0.00    -0.267 N 
HETATM   10  H   UNL     1       5.354  30.867  60.132  1.00  0.00     0.190 HD
HETATM   11  O   UNL     1       5.093  32.848  57.594  1.00  0.00    -0.271 OA
BRANCH   9  12
HETATM   12  N   UNL     1       5.729  32.879  60.288  1.00  0.00    -0.263 N 
HETATM   13  C   UNL     1       4.853  33.253  61.293  1.00  0.00     0.270 C 
HETATM   14  O   UNL     1       3.878  32.555  61.572  1.00  0.00    -0.266 OA
HETATM   15  H   UNL     1       6.478  33.453  59.917  1.00  0.00     0.190 HD
BRANCH  13  16
HETATM   16  C   UNL     1       5.105  34.536  62.011  1.00  0.00     0.033 A 
HETATM   17  C   UNL     1       5.649  34.604  63.300  1.00  0.00     0.017 A 
HETATM   18  C   UNL     1       5.857  35.848  63.910  1.00  0.00     0.007 A 
HETATM   19  C   UNL     1       5.526  37.035  63.246  1.00  0.00    -0.062 A 
HETATM   20  C   UNL     1       5.720  38.369  63.905  1.00  0.00     0.048 C 
HETATM   21  C   UNL     1       4.965  36.964  61.967  1.00  0.00     0.007 A 
HETATM   22  C   UNL     1       4.759  35.725  61.354  1.00  0.00     0.017 A 
ENDBRANCH  13  16
ENDBRANCH   9  12
ENDBRANCH   7   8
ENDBRANCH   6   7
ENDBRANCH   1   6
BRANCH   2  23
HETATM   23  C   UNL     1       8.016  28.861  56.411  1.00  0.00     0.043 A 
HETATM   24  C   UNL     1       8.172  29.228  57.756  1.00  0.00     0.033 A 
HETATM   25  C   UNL     1       9.350  29.853  58.172  1.00  0.00     0.044 A 
HETATM   26  C   UNL     1      10.354  30.114  57.249  1.00  0.00     0.116 A 
HETATM   27  F   UNL     1      11.483  30.710  57.651  1.00  0.00    -0.206 F 
HETATM   28  C   UNL     1      10.205  29.765  55.911  1.00  0.00     0.044 A 
HETATM   29  C   UNL     1       9.032  29.137  55.484  1.00  0.00     0.033 A 
ENDBRANCH   2  23
BRANCH   3  30
HETATM   30  C   UNL     1       7.682  25.754  55.994  1.00  0.00     0.255 C 
HETATM   31  C   UNL     1       7.681  25.320  57.465  1.00  0.00     0.049 C 
BRANCH  30  32
HETATM   32  N   UNL     1       7.525  24.474  55.125  1.00  0.00    -0.060 N 
HETATM   33  H   UNL     1       6.518  24.274  55.119  1.00  0.00     0.280 HD
HETATM   34  C   UNL     1       7.942  24.619  53.670  1.00  0.00     0.236 C 
HETATM   35  C   UNL     1       7.511  23.373  52.906  1.00  0.00     0.028 C 
HETATM   36  C   UNL     1       8.096  22.106  53.521  1.00  0.00     0.003 C 
HETATM   37  C   UNL     1       7.770  22.012  55.007  1.00  0.00     0.028 C 
HETATM   38  C   UNL     1       8.192  23.269  55.759  1.00  0.00     0.236 C 
ENDBRANCH  30  32
ENDBRANCH   3  30
TORSDOF 8
ENDMDL
MODEL 7
REMARK VINA RESULT:      -9.1      2.968     10.388
REMARK  8 active torsions:
REMARK  status: ('A' for Active; 'I' for Inactive)
REMARK    1  A    between atoms: C_5  and  C_6 
REMARK       I    between atoms: C_6  and  N_7 
REMARK    2  A    between atoms: N_7  and  N_8 
REMARK       I    between atoms: N_8  and  C_9 
REMARK    3  A    between atoms: C_9  and  C_10 
REMARK    4  A    between atoms: C_10  and  S_11 
REMARK    5  A    between atoms: S_11  and  C_12 
REMARK    6  A    between atoms: N_13  and  C_14 
REMARK    7  A    between atoms: C_21  and  C_22 
REMARK    8  A    between atoms: C_22  and  N_23 
ROOT
HETATM    1  C   UNL     1       4.194  32.593  58.729  1.00  0.00     0.196 A 
HETATM    2  N   UNL     1       4.198  33.155  59.992  1.00  0.00    -0.274 N 
HETATM    3  C   UNL     1       3.114  34.036  59.970  1.00  0.00     0.166 A 
HETATM    4  N   UNL     1       2.481  33.909  58.819  1.00  0.00    -0.131 NA
HETATM    5  N   UNL     1       3.158  33.018  58.045  1.00  0.00    -0.122 NA
ENDROOT
BRANCH   1   6
HETATM    6  S   UNL     1       5.281  31.372  58.161  1.00  0.00    -0.080 SA
BRANCH   6   7
HETATM    7  C   UNL     1       4.097  30.229  57.395  1.00  0.00     0.187 C 
BRANCH   7   8
HETATM    8  C   UNL     1       4.831  29.289  56.455  1.00  0.00     0.245 C 
HETATM    9  N   UNL     1       4.172  28.095  56.249  1.00  0.00    -0.267 N 
HETATM   10  H   UNL     1       3.293  27.836  56.700  1.00  0.00     0.190 HD
HETATM   11  O   UNL     1       5.902  29.571  55.915  1.00  0.00    -0.271 OA
BRANCH   9  12
HETATM   12  N   UNL     1       4.751  27.095  55.462  1.00  0.00    -0.263 N 
HETATM   13  C   UNL     1       5.346  26.045  56.142  1.00  0.00     0.270 C 
HETATM   14  O   UNL     1       5.296  25.983  57.371  1.00  0.00    -0.266 OA
HETATM   15  H   UNL     1       4.852  27.284  54.470  1.00  0.00     0.190 HD
BRANCH  13  16
HETATM   16  C   UNL     1       6.070  25.008  55.353  1.00  0.00     0.033 A 
HETATM   17  C   UNL     1       6.900  24.039  55.929  1.00  0.00     0.017 A 
HETATM   18  C   UNL     1       7.548  23.097  55.120  1.00  0.00     0.007 A 
HETATM   19  C   UNL     1       7.376  23.107  53.731  1.00  0.00    -0.062 A 
HETATM   20  C   UNL     1       8.089  22.119  52.856  1.00  0.00     0.048 C 
HETATM   21  C   UNL     1       6.562  24.087  53.155  1.00  0.00     0.007 A 
HETATM   22  C   UNL     1       5.913  25.027  53.959  1.00  0.00     0.017 A 
ENDBRANCH  13  16
ENDBRANCH   9  12
ENDBRANCH   7   8
ENDBRANCH   6   7
ENDBRANCH   1   6
BRANCH   2  23
HETATM   23  C   UNL     1       5.100  32.931  61.060  1.00  0.00     0.043 A 
HETATM   24  C   UNL     1       6.372  33.522  61.043  1.00  0.00     0.033 A 
HETATM   25  C   UNL     1       7.246  33.320  62.114  1.00  0.00     0.044 A 
HETATM   26  C   UNL     1       6.850  32.527  63.184  1.00  0.00     0.116 A 
HETATM   27  F   UNL     1       7.688  32.336  64.211  1.00  0.00    -0.206 F 
HETATM   28  C   UNL     1       5.596  31.926  63.205  1.00  0.00     0.044 A 
HETATM   29  C   UNL     1       4.714  32.125  62.141  1.00  0.00     0.033 A 
ENDBRANCH   2  23
BRANCH   3  30
HETATM   30  C   UNL     1       2.782  35.067  61.011  1.00  0.00     0.255 C 
HETATM   31  C   UNL     1       1.870  34.514  62.113  1.00  0.00     0.049 C 
BRANCH  30  32
HETATM   32  N   UNL     1       4.011  35.725  61.702  1.00  0.00    -0.060 N 
HETATM   33  H   UNL     1       4.819  35.168  61.401  1.00  0.00     0.280 HD
HETATM   34  C   UNL     1       4.300  37.159  61.288  1.00  0.00     0.236 C 
HETATM   35  C   UNL     1       5.651  37.575  61.859  1.00  0.00     0.028 C 
HETATM   36  C   UNL     1       5.689  37.423  63.376  1.00  0.00     0.003 C 
HETATM   37  C   UNL     1       5.295  36.013  63.800  1.00  0.00     0.028 C 
HETATM   38  C   UNL     1       3.950  35.602  63.212  1.00  0.00     0.236 C 
ENDBRANCH  30  32
ENDBRANCH   3  30
TORSDOF 8
ENDMDL
MODEL 8
REMARK VINA RESULT:      -9.0      3.064     10.527
REMARK  8 active torsions:
REMARK  status: ('A' for Active; 'I' for Inactive)
REMARK    1  A    between atoms: C_5  and  C_6 
REMARK       I    between atoms: C_6  and  N_7 
REMARK    2  A    between atoms: N_7  and  N_8 
REMARK       I    between atoms: N_8  and  C_9 
REMARK    3  A    between atoms: C_9  and  C_10 
REMARK    4  A    between atoms: C_10  and  S_11 
REMARK    5  A    between atoms: S_11  and  C_12 
REMARK    6  A    between atoms: N_13  and  C_14 
REMARK    7  A    between atoms: C_21  and  C_22 
REMARK    8  A    between atoms: C_22  and  N_23 
ROOT
HETATM    1  C   UNL     1       7.513  31.410  59.077  1.00  0.00     0.196 A 
HETATM    2  N   UNL     1       6.248  31.966  59.101  1.00  0.00    -0.274 N 
HETATM    3  C   UNL     1       6.200  32.639  60.324  1.00  0.00     0.166 A 
HETATM    4  N   UNL     1       7.382  32.557  60.905  1.00  0.00    -0.131 NA
HETATM    5  N   UNL     1       8.195  31.785  60.133  1.00  0.00    -0.122 NA
ENDROOT
BRANCH   1   6
HETATM    6  S   UNL     1       8.190  30.490  57.776  1.00  0.00    -0.080 SA
BRANCH   6   7
HETATM    7  C   UNL     1       7.587  28.835  58.215  1.00  0.00     0.187 C 
BRANCH   7   8
HETATM    8  C   UNL     1       7.925  27.857  57.103  1.00  0.00     0.245 C 
HETATM    9  N   UNL     1       7.766  26.537  57.467  1.00  0.00    -0.267 N 
HETATM   10  H   UNL     1       7.481  26.225  58.397  1.00  0.00     0.190 HD
HETATM   11  O   UNL     1       8.290  28.210  55.980  1.00  0.00    -0.271 OA
BRANCH   9  12
HETATM   12  N   UNL     1       8.102  25.513  56.576  1.00  0.00    -0.263 N 
HETATM   13  C   UNL     1       7.076  24.659  56.206  1.00  0.00     0.270 C 
HETATM   14  O   UNL     1       5.925  24.851  56.600  1.00  0.00    -0.266 OA
HETATM   15  H   UNL     1       9.088  25.358  56.398  1.00  0.00     0.190 HD
BRANCH  13  16
HETATM   16  C   UNL     1       7.404  23.489  55.342  1.00  0.00     0.033 A 
HETATM   17  C   UNL     1       7.597  22.194  55.838  1.00  0.00     0.017 A 
HETATM   18  C   UNL     1       7.903  21.144  54.962  1.00  0.00     0.007 A 
HETATM   19  C   UNL     1       8.020  21.371  53.586  1.00  0.00    -0.062 A 
HETATM   20  C   UNL     1       8.376  20.257  52.646  1.00  0.00     0.048 C 
HETATM   21  C   UNL     1       7.846  22.668  53.095  1.00  0.00     0.007 A 
HETATM   22  C   UNL     1       7.538  23.717  53.965  1.00  0.00     0.017 A 
ENDBRANCH  13  16
ENDBRANCH   9  12
ENDBRANCH   7   8
ENDBRANCH   6   7
ENDBRANCH   1   6
BRANCH   2  23
HETATM   23  C   UNL     1       5.214  31.863  58.137  1.00  0.00     0.043 A 
HETATM   24  C   UNL     1       4.374  30.740  58.125  1.00  0.00     0.033 A 
HETATM   25  C   UNL     1       3.339  30.660  57.190  1.00  0.00     0.044 A 
HETATM   26  C   UNL     1       3.156  31.688  56.274  1.00  0.00     0.116 A 
HETATM   27  F   UNL     1       2.163  31.610  55.381  1.00  0.00    -0.206 F 
HETATM   28  C   UNL     1       3.993  32.800  56.270  1.00  0.00     0.044 A 
HETATM   29  C   UNL     1       5.028  32.892  57.203  1.00  0.00     0.033 A 
ENDBRANCH   2  23
BRANCH   3  30
HETATM   30  C   UNL     1       4.982  33.244  60.962  1.00  0.00     0.255 C 
HETATM   31  C   UNL     1       4.224  32.242  61.842  1.00  0.00     0.049 C 
BRANCH  30  32
HETATM   32  N   UNL     1       5.248  34.515  61.817  1.00  0.00    -0.060 N 
HETATM   33  H   UNL     1       6.224  34.771  61.623  1.00  0.00     0.280 HD
HETATM   34  C   UNL     1       4.408  35.730  61.457  1.00  0.00     0.236 C 
HETATM   35  C   UNL     1       4.944  36.943  62.209  1.00  0.00     0.028 C 
HETATM   36  C   UNL     1       4.956  36.709  63.716  1.00  0.00     0.003 C 
HETATM   37  C   UNL     1       5.708  35.432  64.071  1.00  0.00     0.028 C 
HETATM   38  C   UNL     1       5.173  34.228  63.304  1.00  0.00     0.236 C 
ENDBRANCH  30  32
ENDBRANCH   3  30
TORSDOF 8
ENDMDL
MODEL 9
REMARK VINA RESULT:      -9.0      2.720      4.393
REMARK  8 active torsions:
REMARK  status: ('A' for Active; 'I' for Inactive)
REMARK    1  A    between atoms: C_5  and  C_6 
REMARK       I    between atoms: C_6  and  N_7 
REMARK    2  A    between atoms: N_7  and  N_8 
REMARK       I    between atoms: N_8  and  C_9 
REMARK    3  A    between atoms: C_9  and  C_10 
REMARK    4  A    between atoms: C_10  and  S_11 
REMARK    5  A    between atoms: S_11  and  C_12 
REMARK    6  A    between atoms: N_13  and  C_14 
REMARK    7  A    between atoms: C_21  and  C_22 
REMARK    8  A    between atoms: C_22  and  N_23 
ROOT
HETATM    1  C   UNL     1       7.358  29.590  57.477  1.00  0.00     0.196 A 
HETATM    2  N   UNL     1       6.375  29.301  56.549  1.00  0.00    -0.274 N 
HETATM    3  C   UNL     1       6.854  28.165  55.894  1.00  0.00     0.166 A 
HETATM    4  N   UNL     1       7.976  27.777  56.473  1.00  0.00    -0.131 NA
HETATM    5  N   UNL     1       8.292  28.669  57.451  1.00  0.00    -0.122 NA
ENDROOT
BRANCH   1   6
HETATM    6  S   UNL     1       7.309  30.874  58.637  1.00  0.00    -0.080 SA
BRANCH   6   7
HETATM    7  C   UNL     1       8.857  30.549  59.528  1.00  0.00     0.187 C 
BRANCH   7   8
HETATM    8  C   UNL     1       8.683  30.898  60.996  1.00  0.00     0.245 C 
HETATM    9  N   UNL     1       7.914  32.023  61.206  1.00  0.00    -0.267 N 
HETATM   10  H   UNL     1       7.519  32.598  60.459  1.00  0.00     0.190 HD
HETATM   11  O   UNL     1       9.167  30.230  61.912  1.00  0.00    -0.271 OA
BRANCH   9  12
HETATM   12  N   UNL     1       7.717  32.514  62.500  1.00  0.00    -0.263 N 
HETATM   13  C   UNL     1       6.407  32.560  62.947  1.00  0.00     0.270 C 
HETATM   14  O   UNL     1       5.489  32.124  62.252  1.00  0.00    -0.266 OA
HETATM   15  H   UNL     1       8.509  32.958  62.953  1.00  0.00     0.190 HD
BRANCH  13  16
HETATM   16  C   UNL     1       6.134  33.173  64.279  1.00  0.00     0.033 A 
HETATM   17  C   UNL     1       4.844  33.419  64.765  1.00  0.00     0.017 A 
HETATM   18  C   UNL     1       4.667  33.999  66.027  1.00  0.00     0.007 A 
HETATM   19  C   UNL     1       5.769  34.339  66.819  1.00  0.00    -0.062 A 
HETATM   20  C   UNL     1       5.587  34.987  68.160  1.00  0.00     0.048 C 
HETATM   21  C   UNL     1       7.057  34.111  66.325  1.00  0.00     0.007 A 
HETATM   22  C   UNL     1       7.237  33.530  65.067  1.00  0.00     0.017 A 
ENDBRANCH  13  16
ENDBRANCH   9  12
ENDBRANCH   7   8
ENDBRANCH   6   7
ENDBRANCH   1   6
BRANCH   2  23
HETATM   23  C   UNL     1       5.171  30.000  56.284  1.00  0.00     0.043 A 
HETATM   24  C   UNL     1       5.202  31.213  55.580  1.00  0.00     0.033 A 
HETATM   25  C   UNL     1       4.008  31.881  55.298  1.00  0.00     0.044 A 
HETATM   26  C   UNL     1       2.800  31.343  55.726  1.00  0.00     0.116 A 
HETATM   27  F   UNL     1       1.657  31.984  55.453  1.00  0.00    -0.206 F 
HETATM   28  C   UNL     1       2.760  30.148  56.436  1.00  0.00     0.044 A 
HETATM   29  C   UNL     1       3.948  29.470  56.720  1.00  0.00     0.033 A 
ENDBRANCH   2  23
BRANCH   3  30
HETATM   30  C   UNL     1       6.286  27.547  54.648  1.00  0.00     0.255 C 
HETATM   31  C   UNL     1       6.359  28.491  53.442  1.00  0.00     0.049 C 
BRANCH  30  32
HETATM   32  N   UNL     1       6.932  26.196  54.229  1.00  0.00    -0.060 N 
HETATM   33  H   UNL     1       7.908  26.255  54.542  1.00  0.00     0.280 HD
HETATM   34  C   UNL     1       6.343  24.960  54.890  1.00  0.00     0.236 C 
HETATM   35  C   UNL     1       7.224  23.759  54.566  1.00  0.00     0.028 C 
HETATM   36  C   UNL     1       7.371  23.560  53.061  1.00  0.00     0.003 C 
HETATM   37  C   UNL     1       7.861  24.834  52.380  1.00  0.00     0.028 C 
HETATM   38  C   UNL     1       6.981  26.031  52.722  1.00  0.00     0.236 C 
ENDBRANCH  30  32
ENDBRANCH   3  30
TORSDOF 8
ENDMDL
MODEL 10
REMARK VINA RESULT:      -8.9      2.590      3.892
REMARK  8 active torsions:
REMARK  status: ('A' for Active; 'I' for Inactive)
REMARK    1  A    between atoms: C_5  and  C_6 
REMARK       I    between atoms: C_6  and  N_7 
REMARK    2  A    between atoms: N_7  and  N_8 
REMARK       I    between atoms: N_8  and  C_9 
REMARK    3  A    between atoms: C_9  and  C_10 
REMARK    4  A    between atoms: C_10  and  S_11 
REMARK    5  A    between atoms: S_11  and  C_12 
REMARK    6  A    between atoms: N_13  and  C_14 
REMARK    7  A    between atoms: C_21  and  C_22 
REMARK    8  A    between atoms: C_22  and  N_23 
ROOT
HETATM    1  C   UNL     1       6.948  28.303  55.700  1.00  0.00     0.196 A 
HETATM    2  N   UNL     1       6.460  27.571  54.634  1.00  0.00    -0.274 N 
HETATM    3  C   UNL     1       7.054  26.316  54.789  1.00  0.00     0.166 A 
HETATM    4  N   UNL     1       7.746  26.305  55.913  1.00  0.00    -0.131 NA
HETATM    5  N   UNL     1       7.686  27.544  56.474  1.00  0.00    -0.122 NA
ENDROOT
BRANCH   1   6
HETATM    6  S   UNL     1       6.526  29.938  56.082  1.00  0.00    -0.080 SA
BRANCH   6   7
HETATM    7  C   UNL     1       4.798  29.706  56.585  1.00  0.00     0.187 C 
BRANCH   7   8
HETATM    8  C   UNL     1       4.547  30.430  57.897  1.00  0.00     0.245 C 
HETATM    9  N   UNL     1       5.696  30.917  58.484  1.00  0.00    -0.267 N 
HETATM   10  H   UNL     1       6.636  30.785  58.106  1.00  0.00     0.190 HD
HETATM   11  O   UNL     1       3.423  30.582  58.381  1.00  0.00    -0.271 OA
BRANCH   9  12
HETATM   12  N   UNL     1       5.640  31.548  59.730  1.00  0.00    -0.263 N 
HETATM   13  C   UNL     1       6.855  31.884  60.303  1.00  0.00     0.270 C 
HETATM   14  O   UNL     1       7.911  31.689  59.701  1.00  0.00    -0.266 OA
HETATM   15  H   UNL     1       4.743  31.561  60.203  1.00  0.00     0.190 HD
BRANCH  13  16
HETATM   16  C   UNL     1       6.854  32.463  61.678  1.00  0.00     0.033 A 
HETATM   17  C   UNL     1       5.812  33.248  62.184  1.00  0.00     0.017 A 
HETATM   18  C   UNL     1       5.884  33.758  63.487  1.00  0.00     0.007 A 
HETATM   19  C   UNL     1       6.992  33.491  64.299  1.00  0.00    -0.062 A 
HETATM   20  C   UNL     1       7.089  34.056  65.685  1.00  0.00     0.048 C 
HETATM   21  C   UNL     1       8.041  32.722  63.786  1.00  0.00     0.007 A 
HETATM   22  C   UNL     1       7.971  32.210  62.487  1.00  0.00     0.017 A 
ENDBRANCH  13  16
ENDBRANCH   9  12
ENDBRANCH   7   8
ENDBRANCH   6   7
ENDBRANCH   1   6
BRANCH   2  23
HETATM   23  C   UNL     1       5.588  27.985  53.597  1.00  0.00     0.043 A 
HETATM   24  C   UNL     1       4.211  27.739  53.694  1.00  0.00     0.033 A 
HETATM   25  C   UNL     1       3.355  28.177  52.680  1.00  0.00     0.044 A 
HETATM   26  C   UNL     1       3.876  28.845  51.580  1.00  0.00     0.116 A 
HETATM   27  F   UNL     1       3.054  29.265  50.611  1.00  0.00    -0.206 F 
HETATM   28  C   UNL     1       5.243  29.082  51.467  1.00  0.00     0.044 A 
HETATM   29  C   UNL     1       6.107  28.652  52.477  1.00  0.00     0.033 A 
ENDBRANCH   2  23
BRANCH   3  30
HETATM   30  C   UNL     1       7.040  25.194  53.791  1.00  0.00     0.255 C 
HETATM   31  C   UNL     1       7.683  25.590  52.456  1.00  0.00     0.049 C 
BRANCH  30  32
HETATM   32  N   UNL     1       7.719  23.879  54.269  1.00  0.00    -0.060 N 
HETATM   33  H   UNL     1       8.639  24.164  54.625  1.00  0.00     0.280 HD
HETATM   34  C   UNL     1       7.020  23.164  55.413  1.00  0.00     0.236 C 
HETATM   35  C   UNL     1       7.920  22.042  55.919  1.00  0.00     0.028 C 
HETATM   36  C   UNL     1       8.284  21.068  54.804  1.00  0.00     0.003 C 
HETATM   37  C   UNL     1       8.888  21.797  53.609  1.00  0.00     0.028 C 
HETATM   38  C   UNL     1       7.987  22.925  53.120  1.00  0.00     0.236 C 
ENDBRANCH  30  32
ENDBRANCH   3  30
TORSDOF 8
ENDMDL
