MODEL 1
REMARK VINA RESULT:      -8.6      0.000      0.000
REMARK  5 active torsions:
REMARK  status: ('A' for Active; 'I' for Inactive)
REMARK    1  A    between atoms: C_4  and  N_5 
REMARK    2  A    between atoms: C_6  and  O_7 
REMARK    3  A    between atoms: C_6  and  C_8 
REMARK       I    between atoms: C_8  and  N_9 
REMARK    4  A    between atoms: N_9  and  C_10 
REMARK    5  A    between atoms: C_10  and  C_11 
ROOT
HETATM    1  N   UNL     1       6.967  28.883  55.588  1.00  0.00    -0.254 N 
HETATM    2  C   UNL     1       6.888  28.817  57.058  1.00  0.00     0.256 C 
HETATM    3  C   UNL     1       7.985  29.614  57.729  1.00  0.00     0.035 A 
HETATM    4  C   UNL     1       9.195  29.734  57.052  1.00  0.00     0.048 A 
HETATM    5  N   UNL     1       9.292  29.196  55.773  1.00  0.00    -0.308 N 
HETATM    6  C   UNL     1       8.226  28.816  54.997  1.00  0.00     0.330 C 
HETATM    7  O   UNL     1       8.467  28.525  53.826  1.00  0.00    -0.246 OA
HETATM    8  C   UNL     1       7.879  30.141  59.026  1.00  0.00     0.034 A 
HETATM    9  C   UNL     1       8.972  30.779  59.610  1.00  0.00     0.011 A 
HETATM   10 BR   UNL     1       8.820  31.494  61.353  1.00  0.00    -0.051 Br
HETATM   11  C   UNL     1      10.181  30.886  58.923  1.00  0.00     0.021 A 
HETATM   12  C   UNL     1      10.297  30.354  57.639  1.00  0.00     0.031 A 
HETATM   13  H   UNL     1      10.164  29.260  55.261  1.00  0.00     0.170 HD
ENDROOT
BRANCH   2  14
HETATM   14  O   UNL     1       5.646  29.343  57.538  1.00  0.00    -0.359 OA
HETATM   15  H   UNL     1       5.772  30.314  57.520  1.00  0.00     0.213 HD
ENDBRANCH   2  14
BRANCH   2  16
HETATM   16  C   UNL     1       6.947  27.295  57.504  1.00  0.00     0.279 C 
HETATM   17  N   UNL     1       5.962  26.451  57.037  1.00  0.00    -0.352 N 
HETATM   18  H   UNL     1       5.238  26.804  56.424  1.00  0.00     0.162 HD
HETATM   19  O   UNL     1       7.841  26.892  58.257  1.00  0.00    -0.268 OA
BRANCH  17  20
HETATM   20  C   UNL     1       6.029  25.027  57.259  1.00  0.00     0.168 C 
BRANCH  20  21
HETATM   21  C   UNL     1       6.887  24.415  56.197  1.00  0.00     0.000 A 
HETATM   22  S   UNL     1       8.405  23.725  56.606  1.00  0.00    -0.105 SA
HETATM   23  C   UNL     1       8.714  23.283  54.983  1.00  0.00     0.050 A 
HETATM   24  C   UNL     1       7.686  23.649  54.143  1.00  0.00     0.008 A 
HETATM   25  C   UNL     1       6.631  24.304  54.843  1.00  0.00     0.017 A 
ENDBRANCH  20  21
ENDBRANCH  17  20
ENDBRANCH   2  16
BRANCH   1  26
HETATM   26  C   UNL     1       5.790  28.665  54.798  1.00  0.00     0.042 A 
HETATM   27  C   UNL     1       5.576  27.465  54.109  1.00  0.00     0.030 A 
HETATM   28  C   UNL     1       4.441  27.288  53.310  1.00  0.00     0.002 A 
HETATM   29  C   UNL     1       3.508  28.314  53.180  1.00  0.00     0.000 A 
HETATM   30  C   UNL     1       3.714  29.519  53.841  1.00  0.00     0.002 A 
HETATM   31  C   UNL     1       4.850  29.695  54.637  1.00  0.00     0.030 A 
ENDBRANCH   1  26
TORSDOF 5
ENDMDL
MODEL 2
REMARK VINA RESULT:      -8.5      2.984      5.742
REMARK  5 active torsions:
REMARK  status: ('A' for Active; 'I' for Inactive)
REMARK    1  A    between atoms: C_4  and  N_5 
REMARK    2  A    between atoms: C_6  and  O_7 
REMARK    3  A    between atoms: C_6  and  C_8 
REMARK       I    between atoms: C_8  and  N_9 
REMARK    4  A    between atoms: N_9  and  C_10 
REMARK    5  A    between atoms: C_10  and  C_11 
ROOT
HETATM    1  N   UNL     1       6.780  29.030  55.428  1.00  0.00    -0.254 N 
HETATM    2  C   UNL     1       6.701  27.920  54.464  1.00  0.00     0.256 C 
HETATM    3  C   UNL     1       5.653  28.157  53.399  1.00  0.00     0.035 A 
HETATM    4  C   UNL     1       4.544  28.919  53.751  1.00  0.00     0.048 A 
HETATM    5  N   UNL     1       4.508  29.486  55.020  1.00  0.00    -0.308 N 
HETATM    6  C   UNL     1       5.590  29.613  55.855  1.00  0.00     0.330 C 
HETATM    7  O   UNL     1       5.434  30.293  56.868  1.00  0.00    -0.246 OA
HETATM    8  C   UNL     1       5.694  27.567  52.125  1.00  0.00     0.034 A 
HETATM    9  C   UNL     1       4.638  27.758  51.235  1.00  0.00     0.011 A 
HETATM   10 BR   UNL     1       4.703  26.968  49.520  1.00  0.00    -0.051 Br
HETATM   11  C   UNL     1       3.528  28.518  51.604  1.00  0.00     0.021 A 
HETATM   12  C   UNL     1       3.476  29.097  52.872  1.00  0.00     0.031 A 
HETATM   13  H   UNL     1       3.708  30.038  55.307  1.00  0.00     0.170 HD
ENDROOT
BRANCH   2  14
HETATM   14  O   UNL     1       7.945  27.730  53.781  1.00  0.00    -0.359 OA
HETATM   15  H   UNL     1       7.968  26.771  53.584  1.00  0.00     0.213 HD
ENDBRANCH   2  14
BRANCH   2  16
HETATM   16  C   UNL     1       6.402  26.577  55.257  1.00  0.00     0.279 C 
HETATM   17  N   UNL     1       7.211  25.489  55.004  1.00  0.00    -0.352 N 
HETATM   18  H   UNL     1       7.971  25.564  54.339  1.00  0.00     0.162 HD
HETATM   19  O   UNL     1       5.465  26.513  56.059  1.00  0.00    -0.268 OA
BRANCH  17  20
HETATM   20  C   UNL     1       7.115  24.285  55.792  1.00  0.00     0.168 C 
BRANCH  20  21
HETATM   21  C   UNL     1       7.467  23.116  54.927  1.00  0.00     0.000 A 
HETATM   22  S   UNL     1       7.831  21.595  55.638  1.00  0.00    -0.105 SA
HETATM   23  C   UNL     1       8.093  20.872  54.111  1.00  0.00     0.050 A 
HETATM   24  C   UNL     1       7.907  21.763  53.078  1.00  0.00     0.008 A 
HETATM   25  C   UNL     1       7.547  23.059  53.548  1.00  0.00     0.017 A 
ENDBRANCH  20  21
ENDBRANCH  17  20
ENDBRANCH   2  16
BRANCH   1  26
HETATM   26  C   UNL     1       7.994  29.258  56.158  1.00  0.00     0.042 A 
HETATM   27  C   UNL     1       7.998  29.420  57.549  1.00  0.00     0.030 A 
HETATM   28  C   UNL     1       9.188  29.683  58.238  1.00  0.00     0.002 A 
HETATM   29  C   UNL     1      10.389  29.800  57.544  1.00  0.00     0.000 A 
HETATM   30  C   UNL     1      10.400  29.663  56.160  1.00  0.00     0.002 A 
HETATM   31  C   UNL     1       9.211  29.402  55.474  1.00  0.00     0.030 A 
ENDBRANCH   1  26
TORSDOF 5
ENDMDL
MODEL 3
REMARK VINA RESULT:      -8.4      2.744      6.238
REMARK  5 active torsions:
REMARK  status: ('A' for Active; 'I' for Inactive)
REMARK    1  A    between atoms: C_4  and  N_5 
REMARK    2  A    between atoms: C_6  and  O_7 
REMARK    3  A    between atoms: C_6  and  C_8 
REMARK       I    between atoms: C_8  and  N_9 
REMARK    4  A    between atoms: N_9  and  C_10 
REMARK    5  A    between atoms: C_10  and  C_11 
ROOT
HETATM    1  N   UNL     1       6.884  26.612  54.923  1.00  0.00    -0.254 N 
HETATM    2  C   UNL     1       6.473  27.817  55.664  1.00  0.00     0.256 C 
HETATM    3  C   UNL     1       5.474  28.653  54.893  1.00  0.00     0.035 A 
HETATM    4  C   UNL     1       5.549  28.621  53.505  1.00  0.00     0.048 A 
HETATM    5  N   UNL     1       6.469  27.762  52.913  1.00  0.00    -0.308 N 
HETATM    6  C   UNL     1       7.106  26.729  53.554  1.00  0.00     0.330 C 
HETATM    7  O   UNL     1       7.754  25.954  52.851  1.00  0.00    -0.246 OA
HETATM    8  C   UNL     1       4.559  29.527  55.503  1.00  0.00     0.034 A 
HETATM    9  C   UNL     1       3.739  30.335  54.718  1.00  0.00     0.011 A 
HETATM   10 BR   UNL     1       2.504  31.503  55.544  1.00  0.00    -0.051 Br
HETATM   11  C   UNL     1       3.830  30.299  53.326  1.00  0.00     0.021 A 
HETATM   12  C   UNL     1       4.745  29.442  52.715  1.00  0.00     0.031 A 
HETATM   13  H   UNL     1       6.551  27.725  51.903  1.00  0.00     0.170 HD
ENDROOT
BRANCH   2  14
HETATM   14  O   UNL     1       5.852  27.479  56.909  1.00  0.00    -0.359 OA
HETATM   15  H   UNL     1       6.601  27.359  57.527  1.00  0.00     0.213 HD
ENDBRANCH   2  14
BRANCH   2  16
HETATM   16  C   UNL     1       7.767  28.668  56.011  1.00  0.00     0.279 C 
HETATM   17  N   UNL     1       7.917  29.106  57.310  1.00  0.00    -0.352 N 
HETATM   18  H   UNL     1       7.221  28.877  58.008  1.00  0.00     0.162 HD
HETATM   19  O   UNL     1       8.599  28.937  55.138  1.00  0.00    -0.268 OA
BRANCH  17  20
HETATM   20  C   UNL     1       9.134  29.743  57.750  1.00  0.00     0.168 C 
BRANCH  20  21
HETATM   21  C   UNL     1       8.789  30.797  58.754  1.00  0.00     0.000 A 
HETATM   22  S   UNL     1       7.156  31.282  58.970  1.00  0.00    -0.105 SA
HETATM   23  C   UNL     1       7.583  32.407  60.185  1.00  0.00     0.050 A 
HETATM   24  C   UNL     1       8.938  32.417  60.427  1.00  0.00     0.008 A 
HETATM   25  C   UNL     1       9.635  31.489  59.601  1.00  0.00     0.017 A 
ENDBRANCH  20  21
ENDBRANCH  17  20
ENDBRANCH   2  16
BRANCH   1  26
HETATM   26  C   UNL     1       7.374  25.468  55.635  1.00  0.00     0.042 A 
HETATM   27  C   UNL     1       8.382  25.577  56.602  1.00  0.00     0.030 A 
HETATM   28  C   UNL     1       8.876  24.444  57.257  1.00  0.00     0.002 A 
HETATM   29  C   UNL     1       8.377  23.181  56.945  1.00  0.00     0.000 A 
HETATM   30  C   UNL     1       7.391  23.051  55.974  1.00  0.00     0.002 A 
HETATM   31  C   UNL     1       6.900  24.185  55.320  1.00  0.00     0.030 A 
ENDBRANCH   1  26
TORSDOF 5
ENDMDL
MODEL 4
REMARK VINA RESULT:      -8.3      7.389     10.368
REMARK  5 active torsions:
REMARK  status: ('A' for Active; 'I' for Inactive)
REMARK    1  A    between atoms: C_4  and  N_5 
REMARK    2  A    between atoms: C_6  and  O_7 
REMARK    3  A    between atoms: C_6  and  C_8 
REMARK       I    between atoms: C_8  and  N_9 
REMARK    4  A    between atoms: N_9  and  C_10 
REMARK    5  A    between atoms: C_10  and  C_11 
ROOT
HETATM    1  N   UNL     1       3.462  34.670  63.314  1.00  0.00    -0.254 N 
HETATM    2  C   UNL     1       4.331  34.706  62.125  1.00  0.00     0.256 C 
HETATM    3  C   UNL     1       3.584  35.133  60.880  1.00  0.00     0.035 A 
HETATM    4  C   UNL     1       2.231  34.819  60.806  1.00  0.00     0.048 A 
HETATM    5  N   UNL     1       1.632  34.216  61.907  1.00  0.00    -0.308 N 
HETATM    6  C   UNL     1       2.172  34.168  63.168  1.00  0.00     0.330 C 
HETATM    7  O   UNL     1       1.442  33.757  64.069  1.00  0.00    -0.246 OA
HETATM    8  C   UNL     1       4.204  35.728  59.770  1.00  0.00     0.034 A 
HETATM    9  C   UNL     1       3.462  36.003  58.622  1.00  0.00     0.011 A 
HETATM   10 BR   UNL     1       4.301  36.812  57.134  1.00  0.00    -0.051 Br
HETATM   11  C   UNL     1       2.108  35.676  58.558  1.00  0.00     0.021 A 
HETATM   12  C   UNL     1       1.489  35.074  59.653  1.00  0.00     0.031 A 
HETATM   13  H   UNL     1       0.650  33.968  61.877  1.00  0.00     0.170 HD
ENDROOT
BRANCH   2  14
HETATM   14  O   UNL     1       5.411  35.630  62.295  1.00  0.00    -0.359 OA
HETATM   15  H   UNL     1       5.247  36.034  63.171  1.00  0.00     0.213 HD
ENDBRANCH   2  14
BRANCH   2  16
HETATM   16  C   UNL     1       4.980  33.271  61.925  1.00  0.00     0.279 C 
HETATM   17  N   UNL     1       6.319  33.126  62.222  1.00  0.00    -0.352 N 
HETATM   18  H   UNL     1       6.853  33.915  62.563  1.00  0.00     0.162 HD
HETATM   19  O   UNL     1       4.305  32.326  61.503  1.00  0.00    -0.268 OA
BRANCH  17  20
HETATM   20  C   UNL     1       6.949  31.828  62.224  1.00  0.00     0.168 C 
BRANCH  20  21
HETATM   21  C   UNL     1       7.946  31.776  61.109  1.00  0.00     0.000 A 
HETATM   22  S   UNL     1       7.431  31.440  59.506  1.00  0.00    -0.105 SA
HETATM   23  C   UNL     1       9.026  31.560  58.900  1.00  0.00     0.050 A 
HETATM   24  C   UNL     1       9.935  31.851  59.892  1.00  0.00     0.008 A 
HETATM   25  C   UNL     1       9.313  31.976  61.168  1.00  0.00     0.017 A 
ENDBRANCH  20  21
ENDBRANCH  17  20
ENDBRANCH   2  16
BRANCH   1  26
HETATM   26  C   UNL     1       4.034  34.810  64.622  1.00  0.00     0.042 A 
HETATM   27  C   UNL     1       4.644  33.734  65.279  1.00  0.00     0.030 A 
HETATM   28  C   UNL     1       5.160  33.880  66.572  1.00  0.00     0.002 A 
HETATM   29  C   UNL     1       5.062  35.103  67.231  1.00  0.00     0.000 A 
HETATM   30  C   UNL     1       4.441  36.177  66.602  1.00  0.00     0.002 A 
HETATM   31  C   UNL     1       3.925  36.027  65.312  1.00  0.00     0.030 A 
ENDBRANCH   1  26
TORSDOF 5
ENDMDL
MODEL 5
REMARK VINA RESULT:      -8.2      2.207      2.755
REMARK  5 active torsions:
REMARK  status: ('A' for Active; 'I' for Inactive)
REMARK    1  A    between atoms: C_4  and  N_5 
REMARK    2  A    between atoms: C_6  and  O_7 
REMARK    3  A    between atoms: C_6  and  C_8 
REMARK       I    between atoms: C_8  and  N_9 
REMARK    4  A    between atoms: N_9  and  C_10 
REMARK    5  A    between atoms: C_10  and  C_11 
ROOT
HETATM    1  N   UNL     1       6.157  28.050  54.296  1.00  0.00    -0.254 N 
HETATM    2  C   UNL     1       5.275  28.028  55.475  1.00  0.00     0.256 C 
HETATM    3  C   UNL     1       5.509  29.210  56.390  1.00  0.00     0.035 A 
HETATM    4  C   UNL     1       6.792  29.745  56.429  1.00  0.00     0.048 A 
HETATM    5  N   UNL     1       7.751  29.224  55.567  1.00  0.00    -0.308 N 
HETATM    6  C   UNL     1       7.482  28.436  54.476  1.00  0.00     0.330 C 
HETATM    7  O   UNL     1       8.420  28.203  53.714  1.00  0.00    -0.246 OA
HETATM    8  C   UNL     1       4.536  29.718  57.266  1.00  0.00     0.034 A 
HETATM    9  C   UNL     1       4.861  30.747  58.148  1.00  0.00     0.011 A 
HETATM   10 BR   UNL     1       3.545  31.431  59.319  1.00  0.00    -0.051 Br
HETATM   11  C   UNL     1       6.154  31.269  58.182  1.00  0.00     0.021 A 
HETATM   12  C   UNL     1       7.128  30.761  57.323  1.00  0.00     0.031 A 
HETATM   13  H   UNL     1       8.697  29.589  55.580  1.00  0.00     0.170 HD
ENDROOT
BRANCH   2  14
HETATM   14  O   UNL     1       3.894  28.069  55.096  1.00  0.00    -0.359 OA
HETATM   15  H   UNL     1       3.641  27.127  55.007  1.00  0.00     0.213 HD
ENDBRANCH   2  14
BRANCH   2  16
HETATM   16  C   UNL     1       5.498  26.663  56.253  1.00  0.00     0.279 C 
HETATM   17  N   UNL     1       6.725  26.047  56.128  1.00  0.00    -0.352 N 
HETATM   18  H   UNL     1       7.451  26.468  55.562  1.00  0.00     0.162 HD
HETATM   19  O   UNL     1       4.593  26.168  56.933  1.00  0.00    -0.268 OA
BRANCH  17  20
HETATM   20  C   UNL     1       7.070  24.894  56.924  1.00  0.00     0.168 C 
BRANCH  20  21
HETATM   21  C   UNL     1       7.721  23.877  56.041  1.00  0.00     0.000 A 
HETATM   22  S   UNL     1       8.364  22.434  56.714  1.00  0.00    -0.105 SA
HETATM   23  C   UNL     1       8.870  21.868  55.182  1.00  0.00     0.050 A 
HETATM   24  C   UNL     1       8.558  22.753  54.175  1.00  0.00     0.008 A 
HETATM   25  C   UNL     1       7.895  23.914  54.670  1.00  0.00     0.017 A 
ENDBRANCH  20  21
ENDBRANCH  17  20
ENDBRANCH   2  16
BRANCH   1  26
HETATM   26  C   UNL     1       5.764  27.369  53.096  1.00  0.00     0.042 A 
HETATM   27  C   UNL     1       5.682  25.972  53.034  1.00  0.00     0.030 A 
HETATM   28  C   UNL     1       5.337  25.325  51.843  1.00  0.00     0.002 A 
HETATM   29  C   UNL     1       5.079  26.065  50.692  1.00  0.00     0.000 A 
HETATM   30  C   UNL     1       5.175  27.451  50.729  1.00  0.00     0.002 A 
HETATM   31  C   UNL     1       5.522  28.096  51.920  1.00  0.00     0.030 A 
ENDBRANCH   1  26
TORSDOF 5
ENDMDL
MODEL 6
REMARK VINA RESULT:      -8.0      5.302      7.947
REMARK  5 active torsions:
REMARK  status: ('A' for Active; 'I' for Inactive)
REMARK    1  A    between atoms: C_4  and  N_5 
REMARK    2  A    between atoms: C_6  and  O_7 
REMARK    3  A    between atoms: C_6  and  C_8 
REMARK       I    between atoms: C_8  and  N_9 
REMARK    4  A    between atoms: N_9  and  C_10 
REMARK    5  A    between atoms: C_10  and  C_11 
ROOT
HETATM    1  N   UNL     1       4.164  32.954  57.131  1.00  0.00    -0.254 N 
HETATM    2  C   UNL     1       4.964  32.045  57.968  1.00  0.00     0.256 C 
HETATM    3  C   UNL     1       5.078  30.661  57.367  1.00  0.00     0.035 A 
HETATM    4  C   UNL     1       4.020  30.215  56.582  1.00  0.00     0.048 A 
HETATM    5  N   UNL     1       2.972  31.092  56.326  1.00  0.00    -0.308 N 
HETATM    6  C   UNL     1       3.016  32.449  56.527  1.00  0.00     0.330 C 
HETATM    7  O   UNL     1       2.073  33.107  56.088  1.00  0.00    -0.246 OA
HETATM    8  C   UNL     1       6.136  29.779  57.644  1.00  0.00     0.034 A 
HETATM    9  C   UNL     1       6.117  28.485  57.126  1.00  0.00     0.011 A 
HETATM   10 BR   UNL     1       7.547  27.306  57.496  1.00  0.00    -0.051 Br
HETATM   11  C   UNL     1       5.046  28.048  56.347  1.00  0.00     0.021 A 
HETATM   12  C   UNL     1       3.987  28.915  56.078  1.00  0.00     0.031 A 
HETATM   13  H   UNL     1       2.183  30.791  55.765  1.00  0.00     0.170 HD
ENDROOT
BRANCH   2  14
HETATM   14  O   UNL     1       6.300  32.530  58.139  1.00  0.00    -0.359 OA
HETATM   15  H   UNL     1       6.714  31.886  58.749  1.00  0.00     0.213 HD
ENDBRANCH   2  14
BRANCH   2  16
HETATM   16  C   UNL     1       4.311  31.976  59.414  1.00  0.00     0.279 C 
HETATM   17  N   UNL     1       5.146  32.111  60.502  1.00  0.00    -0.352 N 
HETATM   18  H   UNL     1       6.139  32.258  60.366  1.00  0.00     0.162 HD
HETATM   19  O   UNL     1       3.097  31.791  59.550  1.00  0.00    -0.268 OA
BRANCH  17  20
HETATM   20  C   UNL     1       4.621  32.223  61.841  1.00  0.00     0.168 C 
BRANCH  20  21
HETATM   21  C   UNL     1       5.746  32.544  62.773  1.00  0.00     0.000 A 
HETATM   22  S   UNL     1       5.428  33.302  64.281  1.00  0.00    -0.105 SA
HETATM   23  C   UNL     1       7.086  33.310  64.700  1.00  0.00     0.050 A 
HETATM   24  C   UNL     1       7.870  32.748  63.718  1.00  0.00     0.008 A 
HETATM   25  C   UNL     1       7.097  32.306  62.605  1.00  0.00     0.017 A 
ENDBRANCH  20  21
ENDBRANCH  17  20
ENDBRANCH   2  16
BRANCH   1  26
HETATM   26  C   UNL     1       4.362  34.372  57.225  1.00  0.00     0.042 A 
HETATM   27  C   UNL     1       3.915  35.107  58.330  1.00  0.00     0.030 A 
HETATM   28  C   UNL     1       4.081  36.496  58.385  1.00  0.00     0.002 A 
HETATM   29  C   UNL     1       4.686  37.171  57.327  1.00  0.00     0.000 A 
HETATM   30  C   UNL     1       5.117  36.460  56.213  1.00  0.00     0.002 A 
HETATM   31  C   UNL     1       4.948  35.073  56.160  1.00  0.00     0.030 A 
ENDBRANCH   1  26
TORSDOF 5
ENDMDL
MODEL 7
REMARK VINA RESULT:      -7.9      2.938      5.938
REMARK  5 active torsions:
REMARK  status: ('A' for Active; 'I' for Inactive)
REMARK    1  A    between atoms: C_4  and  N_5 
REMARK    2  A    between atoms: C_6  and  O_7 
REMARK    3  A    between atoms: C_6  and  C_8 
REMARK       I    between atoms: C_8  and  N_9 
REMARK    4  A    between atoms: N_9  and  C_10 
REMARK    5  A    between atoms: C_10  and  C_11 
ROOT
HETATM    1  N   UNL     1       5.390  27.507  54.870  1.00  0.00    -0.254 N 
HETATM    2  C   UNL     1       6.649  26.966  54.330  1.00  0.00     0.256 C 
HETATM    3  C   UNL     1       6.919  25.554  54.804  1.00  0.00     0.035 A 
HETATM    4  C   UNL     1       6.429  25.195  56.055  1.00  0.00     0.048 A 
HETATM    5  N   UNL     1       5.652  26.116  56.749  1.00  0.00    -0.308 N 
HETATM    6  C   UNL     1       5.076  27.233  56.198  1.00  0.00     0.330 C 
HETATM    7  O   UNL     1       4.276  27.849  56.901  1.00  0.00    -0.246 OA
HETATM    8  C   UNL     1       7.717  24.639  54.099  1.00  0.00     0.034 A 
HETATM    9  C   UNL     1       7.997  23.390  54.651  1.00  0.00     0.011 A 
HETATM   10 BR   UNL     1       9.064  22.159  53.694  1.00  0.00    -0.051 Br
HETATM   11  C   UNL     1       7.506  23.045  55.910  1.00  0.00     0.021 A 
HETATM   12  C   UNL     1       6.723  23.954  56.620  1.00  0.00     0.031 A 
HETATM   13  H   UNL     1       5.290  25.883  57.667  1.00  0.00     0.170 HD
ENDROOT
BRANCH   2  14
HETATM   14  O   UNL     1       6.629  26.923  52.899  1.00  0.00    -0.359 OA
HETATM   15  H   UNL     1       5.821  27.420  52.655  1.00  0.00     0.213 HD
ENDBRANCH   2  14
BRANCH   2  16
HETATM   16  C   UNL     1       7.838  27.933  54.744  1.00  0.00     0.279 C 
HETATM   17  N   UNL     1       8.102  28.087  56.088  1.00  0.00    -0.352 N 
HETATM   18  H   UNL     1       7.553  27.586  56.775  1.00  0.00     0.162 HD
HETATM   19  O   UNL     1       8.490  28.536  53.884  1.00  0.00    -0.268 OA
BRANCH  17  20
HETATM   20  C   UNL     1       9.261  28.815  56.546  1.00  0.00     0.168 C 
BRANCH  20  21
HETATM   21  C   UNL     1       8.820  29.841  57.542  1.00  0.00     0.000 A 
HETATM   22  S   UNL     1       7.153  30.030  57.907  1.00  0.00    -0.105 SA
HETATM   23  C   UNL     1       7.475  31.278  59.031  1.00  0.00     0.050 A 
HETATM   24  C   UNL     1       8.820  31.549  59.131  1.00  0.00     0.008 A 
HETATM   25  C   UNL     1       9.598  30.720  58.271  1.00  0.00     0.017 A 
ENDBRANCH  20  21
ENDBRANCH  17  20
ENDBRANCH   2  16
BRANCH   1  26
HETATM   26  C   UNL     1       4.704  28.554  54.171  1.00  0.00     0.042 A 
HETATM   27  C   UNL     1       4.829  29.897  54.549  1.00  0.00     0.030 A 
HETATM   28  C   UNL     1       4.119  30.901  53.880  1.00  0.00     0.002 A 
HETATM   29  C   UNL     1       3.264  30.574  52.831  1.00  0.00     0.000 A 
HETATM   30  C   UNL     1       3.112  29.244  52.456  1.00  0.00     0.002 A 
HETATM   31  C   UNL     1       3.821  28.243  53.126  1.00  0.00     0.030 A 
ENDBRANCH   1  26
TORSDOF 5
ENDMDL
MODEL 8
REMARK VINA RESULT:      -7.8      4.585      6.256
REMARK  5 active torsions:
REMARK  status: ('A' for Active; 'I' for Inactive)
REMARK    1  A    between atoms: C_4  and  N_5 
REMARK    2  A    between atoms: C_6  and  O_7 
REMARK    3  A    between atoms: C_6  and  C_8 
REMARK       I    between atoms: C_8  and  N_9 
REMARK    4  A    between atoms: N_9  and  C_10 
REMARK    5  A    between atoms: C_10  and  C_11 
ROOT
HETATM    1  N   UNL     1       3.781  29.126  49.998  1.00  0.00    -0.254 N 
HETATM    2  C   UNL     1       3.884  28.956  51.458  1.00  0.00     0.256 C 
HETATM    3  C   UNL     1       3.815  30.274  52.197  1.00  0.00     0.035 A 
HETATM    4  C   UNL     1       4.300  31.401  51.542  1.00  0.00     0.048 A 
HETATM    5  N   UNL     1       4.733  31.265  50.228  1.00  0.00    -0.308 N 
HETATM    6  C   UNL     1       4.456  30.195  49.415  1.00  0.00     0.330 C 
HETATM    7  O   UNL     1       4.759  30.305  48.228  1.00  0.00    -0.246 OA
HETATM    8  C   UNL     1       3.389  30.395  53.530  1.00  0.00     0.034 A 
HETATM    9  C   UNL     1       3.448  31.632  54.170  1.00  0.00     0.011 A 
HETATM   10 BR   UNL     1       2.865  31.790  55.961  1.00  0.00    -0.051 Br
HETATM   11  C   UNL     1       3.944  32.752  53.504  1.00  0.00     0.021 A 
HETATM   12  C   UNL     1       4.380  32.636  52.184  1.00  0.00     0.031 A 
HETATM   13  H   UNL     1       5.100  32.068  49.729  1.00  0.00     0.170 HD
ENDROOT
BRANCH   2  14
HETATM   14  O   UNL     1       2.820  28.143  51.966  1.00  0.00    -0.359 OA
HETATM   15  H   UNL     1       2.006  28.597  51.665  1.00  0.00     0.213 HD
ENDBRANCH   2  14
BRANCH   2  16
HETATM   16  C   UNL     1       5.239  28.197  51.788  1.00  0.00     0.279 C 
HETATM   17  N   UNL     1       5.170  26.847  52.056  1.00  0.00    -0.352 N 
HETATM   18  H   UNL     1       4.278  26.368  52.031  1.00  0.00     0.162 HD
HETATM   19  O   UNL     1       6.313  28.808  51.817  1.00  0.00    -0.268 OA
BRANCH  17  20
HETATM   20  C   UNL     1       6.363  26.050  52.206  1.00  0.00     0.168 C 
BRANCH  20  21
HETATM   21  C   UNL     1       6.399  25.495  53.596  1.00  0.00     0.000 A 
HETATM   22  S   UNL     1       7.571  24.316  54.024  1.00  0.00    -0.105 SA
HETATM   23  C   UNL     1       6.988  24.226  55.629  1.00  0.00     0.050 A 
HETATM   24  C   UNL     1       5.926  25.074  55.841  1.00  0.00     0.008 A 
HETATM   25  C   UNL     1       5.583  25.807  54.667  1.00  0.00     0.017 A 
ENDBRANCH  20  21
ENDBRANCH  17  20
ENDBRANCH   2  16
BRANCH   1  26
HETATM   26  C   UNL     1       3.307  28.045  49.184  1.00  0.00     0.042 A 
HETATM   27  C   UNL     1       4.157  27.017  48.755  1.00  0.00     0.030 A 
HETATM   28  C   UNL     1       3.685  25.993  47.927  1.00  0.00     0.002 A 
HETATM   29  C   UNL     1       2.358  25.988  47.505  1.00  0.00     0.000 A 
HETATM   30  C   UNL     1       1.505  27.011  47.904  1.00  0.00     0.002 A 
HETATM   31  C   UNL     1       1.979  28.034  48.730  1.00  0.00     0.030 A 
ENDBRANCH   1  26
TORSDOF 5
ENDMDL
MODEL 9
REMARK VINA RESULT:      -7.7      3.546      5.981
REMARK  5 active torsions:
REMARK  status: ('A' for Active; 'I' for Inactive)
REMARK    1  A    between atoms: C_4  and  N_5 
REMARK    2  A    between atoms: C_6  and  O_7 
REMARK    3  A    between atoms: C_6  and  C_8 
REMARK       I    between atoms: C_8  and  N_9 
REMARK    4  A    between atoms: N_9  and  C_10 
REMARK    5  A    between atoms: C_10  and  C_11 
ROOT
HETATM    1  N   UNL     1       5.362  26.980  52.932  1.00  0.00    -0.254 N 
HETATM    2  C   UNL     1       5.899  28.147  53.653  1.00  0.00     0.256 C 
HETATM    3  C   UNL     1       6.838  27.749  54.771  1.00  0.00     0.035 A 
HETATM    4  C   UNL     1       6.609  26.526  55.395  1.00  0.00     0.048 A 
HETATM    5  N   UNL     1       5.596  25.712  54.899  1.00  0.00    -0.308 N 
HETATM    6  C   UNL     1       4.994  25.862  53.675  1.00  0.00     0.330 C 
HETATM    7  O   UNL     1       4.243  24.959  53.310  1.00  0.00    -0.246 OA
HETATM    8  C   UNL     1       7.848  28.586  55.271  1.00  0.00     0.034 A 
HETATM    9  C   UNL     1       8.607  28.183  56.369  1.00  0.00     0.011 A 
HETATM   10 BR   UNL     1       9.970  29.311  57.032  1.00  0.00    -0.051 Br
HETATM   11  C   UNL     1       8.362  26.959  56.989  1.00  0.00     0.021 A 
HETATM   12  C   UNL     1       7.352  26.127  56.505  1.00  0.00     0.031 A 
HETATM   13  H   UNL     1       5.401  24.820  55.340  1.00  0.00     0.170 HD
ENDROOT
BRANCH   2  14
HETATM   14  O   UNL     1       6.640  29.006  52.780  1.00  0.00    -0.359 OA
HETATM   15  H   UNL     1       7.398  28.459  52.491  1.00  0.00     0.213 HD
ENDBRANCH   2  14
BRANCH   2  16
HETATM   16  C   UNL     1       4.685  29.000  54.218  1.00  0.00     0.279 C 
HETATM   17  N   UNL     1       4.611  30.328  53.855  1.00  0.00    -0.352 N 
HETATM   18  H   UNL     1       5.310  30.728  53.241  1.00  0.00     0.162 HD
HETATM   19  O   UNL     1       3.847  28.487  54.968  1.00  0.00    -0.268 OA
BRANCH  17  20
HETATM   20  C   UNL     1       3.460  31.132  54.187  1.00  0.00     0.168 C 
BRANCH  20  21
HETATM   21  C   UNL     1       3.784  31.959  55.391  1.00  0.00     0.000 A 
HETATM   22  S   UNL     1       4.628  33.445  55.217  1.00  0.00    -0.105 SA
HETATM   23  C   UNL     1       4.593  33.737  56.901  1.00  0.00     0.050 A 
HETATM   24  C   UNL     1       3.953  32.730  57.587  1.00  0.00     0.008 A 
HETATM   25  C   UNL     1       3.486  31.702  56.716  1.00  0.00     0.017 A 
ENDBRANCH  20  21
ENDBRANCH  17  20
ENDBRANCH   2  16
BRANCH   1  26
HETATM   26  C   UNL     1       4.909  27.124  51.578  1.00  0.00     0.042 A 
HETATM   27  C   UNL     1       3.957  28.086  51.217  1.00  0.00     0.030 A 
HETATM   28  C   UNL     1       3.498  28.184  49.899  1.00  0.00     0.002 A 
HETATM   29  C   UNL     1       3.975  27.311  48.924  1.00  0.00     0.000 A 
HETATM   30  C   UNL     1       4.904  26.336  49.268  1.00  0.00     0.002 A 
HETATM   31  C   UNL     1       5.361  26.239  50.586  1.00  0.00     0.030 A 
ENDBRANCH   1  26
TORSDOF 5
ENDMDL
MODEL 10
REMARK VINA RESULT:      -7.6     16.689     19.230
REMARK  5 active torsions:
REMARK  status: ('A' for Active; 'I' for Inactive)
REMARK    1  A    between atoms: C_4  and  N_5 
REMARK    2  A    between atoms: C_6  and  O_7 
REMARK    3  A    between atoms: C_6  and  C_8 
REMARK       I    between atoms: C_8  and  N_9 
REMARK    4  A    between atoms: N_9  and  C_10 
REMARK    5  A    between atoms: C_10  and  C_11 
ROOT
HETATM    1  N   UNL     1      12.149  11.186  53.257  1.00  0.00    -0.254 N 
HETATM    2  C   UNL     1      11.410  10.098  53.919  1.00  0.00     0.256 C 
HETATM    3  C   UNL     1       9.927  10.386  54.015  1.00  0.00     0.035 A 
HETATM    4  C   UNL     1       9.538  11.718  54.110  1.00  0.00     0.048 A 
HETATM    5  N   UNL     1      10.520  12.700  54.024  1.00  0.00    -0.308 N 
HETATM    6  C   UNL     1      11.795  12.498  53.559  1.00  0.00     0.330 C 
HETATM    7  O   UNL     1      12.486  13.500  53.379  1.00  0.00    -0.246 OA
HETATM    8  C   UNL     1       8.948   9.385  54.115  1.00  0.00     0.034 A 
HETATM    9  C   UNL     1       7.611   9.735  54.298  1.00  0.00     0.011 A 
HETATM   10 BR   UNL     1       6.296   8.383  54.425  1.00  0.00    -0.051 Br
HETATM   11  C   UNL     1       7.236  11.074  54.400  1.00  0.00     0.021 A 
HETATM   12  C   UNL     1       8.205  12.073  54.313  1.00  0.00     0.031 A 
HETATM   13  H   UNL     1      10.266  13.678  54.099  1.00  0.00     0.170 HD
ENDROOT
BRANCH   2  14
HETATM   14  O   UNL     1      11.544   8.864  53.206  1.00  0.00    -0.359 OA
HETATM   15  H   UNL     1      12.353   8.457  53.579  1.00  0.00     0.213 HD
ENDBRANCH   2  14
BRANCH   2  16
HETATM   16  C   UNL     1      12.030   9.866  55.362  1.00  0.00     0.279 C 
HETATM   17  N   UNL     1      12.602   8.639  55.624  1.00  0.00    -0.352 N 
HETATM   18  H   UNL     1      12.626   7.925  54.907  1.00  0.00     0.162 HD
HETATM   19  O   UNL     1      11.983  10.754  56.220  1.00  0.00    -0.268 OA
BRANCH  17  20
HETATM   20  C   UNL     1      13.330   8.397  56.846  1.00  0.00     0.168 C 
BRANCH  20  21
HETATM   21  C   UNL     1      14.774   8.713  56.616  1.00  0.00     0.000 A 
HETATM   22  S   UNL     1      15.767   7.622  55.737  1.00  0.00    -0.105 SA
HETATM   23  C   UNL     1      17.136   8.632  55.904  1.00  0.00     0.050 A 
HETATM   24  C   UNL     1      16.850   9.778  56.611  1.00  0.00     0.008 A 
HETATM   25  C   UNL     1      15.487   9.825  57.024  1.00  0.00     0.017 A 
ENDBRANCH  20  21
ENDBRANCH  17  20
ENDBRANCH   2  16
BRANCH   1  26
HETATM   26  C   UNL     1      13.400  10.910  52.611  1.00  0.00     0.042 A 
HETATM   27  C   UNL     1      14.570  10.668  53.343  1.00  0.00     0.030 A 
HETATM   28  C   UNL     1      15.789  10.442  52.695  1.00  0.00     0.002 A 
HETATM   29  C   UNL     1      15.859  10.466  51.304  1.00  0.00     0.000 A 
HETATM   30  C   UNL     1      14.712  10.725  50.562  1.00  0.00     0.002 A 
HETATM   31  C   UNL     1      13.495  10.953  51.212  1.00  0.00     0.030 A 
ENDBRANCH   1  26
TORSDOF 5
ENDMDL
