MODEL 1
REMARK VINA RESULT:      -8.4      0.000      0.000
REMARK  6 active torsions:
REMARK  status: ('A' for Active; 'I' for Inactive)
REMARK    1  A    between atoms: C_3  and  N_4 
REMARK    2  A    between atoms: N_4  and  C_5 
REMARK    3  A    between atoms: C_5  and  C_6 
REMARK    4  A    between atoms: N_8  and  C_10 
REMARK    5  A    between atoms: C_10  and  C_11 
REMARK    6  A    between atoms: C_12  and  O_13 
ROOT
HETATM    1  C   UNL     1       7.255  25.215  56.955  1.00  0.00     0.031 C 
HETATM    2  C   UNL     1       7.734  26.562  57.493  1.00  0.00     0.241 C 
HETATM    3  N   UNL     1       6.616  27.530  57.211  1.00  0.00    -0.067 N 
HETATM    4  H   UNL     1       6.368  27.988  58.111  1.00  0.00     0.280 HD
HETATM    5  C   UNL     1       5.405  26.755  56.761  1.00  0.00     0.235 C 
HETATM    6  C   UNL     1       5.738  25.318  57.123  1.00  0.00     0.035 C 
ENDROOT
BRANCH   3   7
HETATM    7  C   UNL     1       6.983  28.705  56.341  1.00  0.00     0.276 C 
BRANCH   7   8
HETATM    8  C   UNL     1       8.191  29.455  56.828  1.00  0.00     0.002 A 
HETATM    9  C   UNL     1       8.140  30.197  58.017  1.00  0.00     0.091 A 
HETATM   10  C   UNL     1       9.274  30.852  58.505  1.00  0.00     0.044 A 
HETATM   11 BR   UNL     1       9.197  31.844  60.114  1.00  0.00    -0.048 Br
HETATM   12  C   UNL     1      10.474  30.778  57.804  1.00  0.00     0.022 A 
HETATM   13  C   UNL     1      10.539  30.047  56.617  1.00  0.00     0.002 A 
HETATM   14  C   UNL     1       9.407  29.384  56.133  1.00  0.00     0.012 A 
BRANCH   9  15
HETATM   15  O   UNL     1       6.932  30.269  58.668  1.00  0.00    -0.359 OA
HETATM   16  H   UNL     1       6.832  29.419  59.154  1.00  0.00     0.218 HD
ENDBRANCH   9  15
ENDBRANCH   7   8
ENDBRANCH   3   7
BRANCH   1  17
HETATM   17  C   UNL     1       7.674  24.932  55.498  1.00  0.00     0.127 C 
BRANCH  17  18
HETATM   18  N   UNL     1       6.939  23.780  54.986  1.00  0.00    -0.376 N 
HETATM   19  H   UNL     1       6.037  23.648  55.453  1.00  0.00     0.161 HD
BRANCH  18  20
HETATM   20  C   UNL     1       7.477  22.530  54.686  1.00  0.00     0.100 A 
HETATM   21  C   UNL     1       7.727  22.213  53.339  1.00  0.00     0.048 A 
HETATM   22  C   UNL     1       8.303  20.993  52.993  1.00  0.00     0.005 A 
HETATM   23  C   UNL     1       8.644  20.095  53.991  1.00  0.00     0.017 A 
HETATM   24  C   UNL     1       8.411  20.446  55.311  1.00  0.00     0.089 A 
HETATM   25  N   UNL     1       7.856  21.634  55.612  1.00  0.00    -0.353 N 
HETATM   26  H   UNL     1       7.725  21.847  56.594  1.00  0.00     0.166 HD
ENDBRANCH  18  20
ENDBRANCH  17  18
ENDBRANCH   1  17
TORSDOF 6
ENDMDL
MODEL 2
REMARK VINA RESULT:      -8.0      3.469      8.356
REMARK  6 active torsions:
REMARK  status: ('A' for Active; 'I' for Inactive)
REMARK    1  A    between atoms: C_3  and  N_4 
REMARK    2  A    between atoms: N_4  and  C_5 
REMARK    3  A    between atoms: C_5  and  C_6 
REMARK    4  A    between atoms: N_8  and  C_10 
REMARK    5  A    between atoms: C_10  and  C_11 
REMARK    6  A    between atoms: C_12  and  O_13 
ROOT
HETATM    1  C   UNL     1       7.980  28.960  57.700  1.00  0.00     0.031 C 
HETATM    2  C   UNL     1       7.965  27.433  57.640  1.00  0.00     0.241 C 
HETATM    3  N   UNL     1       7.871  27.087  56.178  1.00  0.00    -0.067 N 
HETATM    4  H   UNL     1       8.658  26.444  55.961  1.00  0.00     0.280 HD
HETATM    5  C   UNL     1       8.086  28.339  55.368  1.00  0.00     0.235 C 
HETATM    6  C   UNL     1       8.646  29.331  56.374  1.00  0.00     0.035 C 
ENDROOT
BRANCH   3   7
HETATM    7  C   UNL     1       6.668  26.269  55.785  1.00  0.00     0.276 C 
BRANCH   7   8
HETATM    8  C   UNL     1       7.020  24.973  55.112  1.00  0.00     0.002 A 
HETATM    9  C   UNL     1       7.430  23.864  55.866  1.00  0.00     0.091 A 
HETATM   10  C   UNL     1       7.706  22.639  55.253  1.00  0.00     0.044 A 
HETATM   11 BR   UNL     1       8.251  21.148  56.281  1.00  0.00    -0.048 Br
HETATM   12  C   UNL     1       7.583  22.511  53.873  1.00  0.00     0.022 A 
HETATM   13  C   UNL     1       7.181  23.607  53.108  1.00  0.00     0.002 A 
HETATM   14  C   UNL     1       6.896  24.830  53.722  1.00  0.00     0.012 A 
BRANCH   9  15
HETATM   15  O   UNL     1       7.566  24.036  57.223  1.00  0.00    -0.359 OA
HETATM   16  H   UNL     1       7.652  25.006  57.369  1.00  0.00     0.218 HD
ENDBRANCH   9  15
ENDBRANCH   7   8
ENDBRANCH   3   7
BRANCH   1  17
HETATM   17  C   UNL     1       6.587  29.599  57.865  1.00  0.00     0.127 C 
BRANCH  17  18
HETATM   18  N   UNL     1       6.699  30.841  58.623  1.00  0.00    -0.376 N 
HETATM   19  H   UNL     1       6.606  31.674  58.033  1.00  0.00     0.161 HD
BRANCH  18  20
HETATM   20  C   UNL     1       7.621  31.107  59.633  1.00  0.00     0.100 A 
HETATM   21  C   UNL     1       8.782  31.831  59.308  1.00  0.00     0.048 A 
HETATM   22  C   UNL     1       9.713  32.157  60.292  1.00  0.00     0.005 A 
HETATM   23  C   UNL     1       9.479  31.773  61.602  1.00  0.00     0.017 A 
HETATM   24  C   UNL     1       8.313  31.084  61.897  1.00  0.00     0.089 A 
HETATM   25  N   UNL     1       7.433  30.788  60.924  1.00  0.00    -0.353 N 
HETATM   26  H   UNL     1       6.589  30.299  61.198  1.00  0.00     0.166 HD
ENDBRANCH  18  20
ENDBRANCH  17  18
ENDBRANCH   1  17
TORSDOF 6
ENDMDL
MODEL 3
REMARK VINA RESULT:      -8.0      3.766      8.420
REMARK  6 active torsions:
REMARK  status: ('A' for Active; 'I' for Inactive)
REMARK    1  A    between atoms: C_3  and  N_4 
REMARK    2  A    between atoms: N_4  and  C_5 
REMARK    3  A    between atoms: C_5  and  C_6 
REMARK    4  A    between atoms: N_8  and  C_10 
REMARK    5  A    between atoms: C_10  and  C_11 
REMARK    6  A    between atoms: C_12  and  O_13 
ROOT
HETATM    1  C   UNL     1       6.447  27.549  56.412  1.00  0.00     0.031 C 
HETATM    2  C   UNL     1       7.402  26.780  55.500  1.00  0.00     0.241 C 
HETATM    3  N   UNL     1       7.183  25.326  55.820  1.00  0.00    -0.067 N 
HETATM    4  H   UNL     1       6.968  24.841  54.926  1.00  0.00     0.280 HD
HETATM    5  C   UNL     1       5.964  25.200  56.696  1.00  0.00     0.235 C 
HETATM    6  C   UNL     1       5.294  26.559  56.584  1.00  0.00     0.035 C 
ENDROOT
BRANCH   3   7
HETATM    7  C   UNL     1       8.400  24.582  56.307  1.00  0.00     0.276 C 
BRANCH   7   8
HETATM    8  C   UNL     1       8.329  23.100  56.070  1.00  0.00     0.002 A 
HETATM    9  C   UNL     1       8.291  22.585  54.766  1.00  0.00     0.091 A 
HETATM   10  C   UNL     1       8.281  21.207  54.537  1.00  0.00     0.044 A 
HETATM   11 BR   UNL     1       8.238  20.522  52.774  1.00  0.00    -0.048 Br
HETATM   12  C   UNL     1       8.300  20.324  55.613  1.00  0.00     0.022 A 
HETATM   13  C   UNL     1       8.334  20.821  56.917  1.00  0.00     0.002 A 
HETATM   14  C   UNL     1       8.353  22.201  57.146  1.00  0.00     0.012 A 
BRANCH   9  15
HETATM   15  O   UNL     1       8.247  23.487  53.730  1.00  0.00    -0.359 OA
HETATM   16  H   UNL     1       8.345  22.960  52.904  1.00  0.00     0.218 HD
ENDBRANCH   9  15
ENDBRANCH   7   8
ENDBRANCH   3   7
BRANCH   1  17
HETATM   17  C   UNL     1       7.067  27.980  57.756  1.00  0.00     0.127 C 
BRANCH  17  18
HETATM   18  N   UNL     1       8.084  29.002  57.527  1.00  0.00    -0.376 N 
HETATM   19  H   UNL     1       8.885  28.650  56.995  1.00  0.00     0.161 HD
BRANCH  18  20
HETATM   20  C   UNL     1       8.537  29.932  58.460  1.00  0.00     0.100 A 
HETATM   21  C   UNL     1       9.583  30.796  58.092  1.00  0.00     0.048 A 
HETATM   22  C   UNL     1      10.042  31.770  58.976  1.00  0.00     0.005 A 
HETATM   23  C   UNL     1       9.448  31.892  60.221  1.00  0.00     0.017 A 
HETATM   24  C   UNL     1       8.401  31.043  60.546  1.00  0.00     0.089 A 
HETATM   25  N   UNL     1       7.980  30.116  59.668  1.00  0.00    -0.353 N 
HETATM   26  H   UNL     1       7.199  29.534  59.950  1.00  0.00     0.166 HD
ENDBRANCH  18  20
ENDBRANCH  17  18
ENDBRANCH   1  17
TORSDOF 6
ENDMDL
MODEL 4
REMARK VINA RESULT:      -8.0      5.848      8.236
REMARK  6 active torsions:
REMARK  status: ('A' for Active; 'I' for Inactive)
REMARK    1  A    between atoms: C_3  and  N_4 
REMARK    2  A    between atoms: N_4  and  C_5 
REMARK    3  A    between atoms: C_5  and  C_6 
REMARK    4  A    between atoms: N_8  and  C_10 
REMARK    5  A    between atoms: C_10  and  C_11 
REMARK    6  A    between atoms: C_12  and  O_13 
ROOT
HETATM    1  C   UNL     1       4.829  26.164  52.440  1.00  0.00     0.031 C 
HETATM    2  C   UNL     1       5.382  24.867  53.030  1.00  0.00     0.241 C 
HETATM    3  N   UNL     1       6.714  25.233  53.628  1.00  0.00    -0.067 N 
HETATM    4  H   UNL     1       6.704  24.921  54.620  1.00  0.00     0.280 HD
HETATM    5  C   UNL     1       6.847  26.733  53.637  1.00  0.00     0.235 C 
HETATM    6  C   UNL     1       5.437  27.225  53.358  1.00  0.00     0.035 C 
ENDROOT
BRANCH   3   7
HETATM    7  C   UNL     1       7.899  24.489  53.068  1.00  0.00     0.276 C 
BRANCH   7   8
HETATM    8  C   UNL     1       8.017  23.080  53.579  1.00  0.00     0.002 A 
HETATM    9  C   UNL     1       8.150  22.826  54.951  1.00  0.00     0.091 A 
HETATM   10  C   UNL     1       8.204  21.518  55.439  1.00  0.00     0.044 A 
HETATM   11 BR   UNL     1       8.376  21.186  57.293  1.00  0.00    -0.048 Br
HETATM   12  C   UNL     1       8.134  20.444  54.556  1.00  0.00     0.022 A 
HETATM   13  C   UNL     1       8.005  20.682  53.186  1.00  0.00     0.002 A 
HETATM   14  C   UNL     1       7.942  21.991  52.699  1.00  0.00     0.012 A 
BRANCH   9  15
HETATM   15  O   UNL     1       8.243  23.911  55.790  1.00  0.00    -0.359 OA
HETATM   16  H   UNL     1       8.784  23.617  56.558  1.00  0.00     0.218 HD
ENDBRANCH   9  15
ENDBRANCH   7   8
ENDBRANCH   3   7
BRANCH   1  17
HETATM   17  C   UNL     1       5.185  26.385  50.956  1.00  0.00     0.127 C 
BRANCH  17  18
HETATM   18  N   UNL     1       4.273  27.360  50.368  1.00  0.00    -0.376 N 
HETATM   19  H   UNL     1       3.760  27.898  51.073  1.00  0.00     0.161 HD
BRANCH  18  20
HETATM   20  C   UNL     1       3.440  27.148  49.272  1.00  0.00     0.100 A 
HETATM   21  C   UNL     1       3.871  26.271  48.261  1.00  0.00     0.048 A 
HETATM   22  C   UNL     1       3.055  25.994  47.166  1.00  0.00     0.005 A 
HETATM   23  C   UNL     1       1.803  26.581  47.087  1.00  0.00     0.017 A 
HETATM   24  C   UNL     1       1.394  27.420  48.112  1.00  0.00     0.089 A 
HETATM   25  N   UNL     1       2.205  27.664  49.156  1.00  0.00    -0.353 N 
HETATM   26  H   UNL     1       1.848  28.270  49.885  1.00  0.00     0.166 HD
ENDBRANCH  18  20
ENDBRANCH  17  18
ENDBRANCH   1  17
TORSDOF 6
ENDMDL
MODEL 5
REMARK VINA RESULT:      -7.8      3.494      4.668
REMARK  6 active torsions:
REMARK  status: ('A' for Active; 'I' for Inactive)
REMARK    1  A    between atoms: C_3  and  N_4 
REMARK    2  A    between atoms: N_4  and  C_5 
REMARK    3  A    between atoms: C_5  and  C_6 
REMARK    4  A    between atoms: N_8  and  C_10 
REMARK    5  A    between atoms: C_10  and  C_11 
REMARK    6  A    between atoms: C_12  and  O_13 
ROOT
HETATM    1  C   UNL     1       7.780  25.461  57.497  1.00  0.00     0.031 C 
HETATM    2  C   UNL     1       7.995  26.899  57.029  1.00  0.00     0.241 C 
HETATM    3  N   UNL     1       7.045  27.096  55.878  1.00  0.00    -0.067 N 
HETATM    4  H   UNL     1       6.469  27.934  56.091  1.00  0.00     0.280 HD
HETATM    5  C   UNL     1       6.107  25.919  55.816  1.00  0.00     0.235 C 
HETATM    6  C   UNL     1       6.309  25.223  57.152  1.00  0.00     0.035 C 
ENDROOT
BRANCH   3   7
HETATM    7  C   UNL     1       7.688  27.470  54.567  1.00  0.00     0.276 C 
BRANCH   7   8
HETATM    8  C   UNL     1       6.843  27.139  53.370  1.00  0.00     0.002 A 
HETATM    9  C   UNL     1       5.826  28.009  52.950  1.00  0.00     0.091 A 
HETATM   10  C   UNL     1       5.072  27.734  51.806  1.00  0.00     0.044 A 
HETATM   11 BR   UNL     1       3.709  28.918  51.242  1.00  0.00    -0.048 Br
HETATM   12  C   UNL     1       5.321  26.579  51.071  1.00  0.00     0.022 A 
HETATM   13  C   UNL     1       6.327  25.701  51.480  1.00  0.00     0.002 A 
HETATM   14  C   UNL     1       7.087  25.980  52.619  1.00  0.00     0.012 A 
BRANCH   9  15
HETATM   15  O   UNL     1       5.591  29.126  53.715  1.00  0.00    -0.359 OA
HETATM   16  H   UNL     1       5.832  29.897  53.154  1.00  0.00     0.218 HD
ENDBRANCH   9  15
ENDBRANCH   7   8
ENDBRANCH   3   7
BRANCH   1  17
HETATM   17  C   UNL     1       8.720  24.434  56.834  1.00  0.00     0.127 C 
BRANCH  17  18
HETATM   18  N   UNL     1       8.040  23.149  56.707  1.00  0.00    -0.376 N 
HETATM   19  H   UNL     1       8.139  22.566  57.543  1.00  0.00     0.161 HD
BRANCH  18  20
HETATM   20  C   UNL     1       8.042  22.327  55.582  1.00  0.00     0.100 A 
HETATM   21  C   UNL     1       7.803  22.909  54.325  1.00  0.00     0.048 A 
HETATM   22  C   UNL     1       7.837  22.135  53.167  1.00  0.00     0.005 A 
HETATM   23  C   UNL     1       8.123  20.783  53.262  1.00  0.00     0.017 A 
HETATM   24  C   UNL     1       8.381  20.242  54.512  1.00  0.00     0.089 A 
HETATM   25  N   UNL     1       8.344  21.018  55.610  1.00  0.00    -0.353 N 
HETATM   26  H   UNL     1       8.558  20.575  56.495  1.00  0.00     0.166 HD
ENDBRANCH  18  20
ENDBRANCH  17  18
ENDBRANCH   1  17
TORSDOF 6
ENDMDL
MODEL 6
REMARK VINA RESULT:      -7.7      2.091      2.955
REMARK  6 active torsions:
REMARK  status: ('A' for Active; 'I' for Inactive)
REMARK    1  A    between atoms: C_3  and  N_4 
REMARK    2  A    between atoms: N_4  and  C_5 
REMARK    3  A    between atoms: C_5  and  C_6 
REMARK    4  A    between atoms: N_8  and  C_10 
REMARK    5  A    between atoms: C_10  and  C_11 
REMARK    6  A    between atoms: C_12  and  O_13 
ROOT
HETATM    1  C   UNL     1       4.289  28.272  55.578  1.00  0.00     0.031 C 
HETATM    2  C   UNL     1       4.913  27.835  56.904  1.00  0.00     0.241 C 
HETATM    3  N   UNL     1       6.053  28.788  57.146  1.00  0.00    -0.067 N 
HETATM    4  H   UNL     1       5.916  29.202  58.089  1.00  0.00     0.280 HD
HETATM    5  C   UNL     1       5.966  29.914  56.149  1.00  0.00     0.235 C 
HETATM    6  C   UNL     1       4.569  29.775  55.567  1.00  0.00     0.035 C 
ENDROOT
BRANCH   3   7
HETATM    7  C   UNL     1       7.412  28.148  57.269  1.00  0.00     0.276 C 
BRANCH   7   8
HETATM    8  C   UNL     1       8.523  29.139  57.471  1.00  0.00     0.002 A 
HETATM    9  C   UNL     1       8.515  30.007  58.572  1.00  0.00     0.091 A 
HETATM   10  C   UNL     1       9.571  30.894  58.798  1.00  0.00     0.044 A 
HETATM   11 BR   UNL     1       9.554  32.056  60.290  1.00  0.00    -0.048 Br
HETATM   12  C   UNL     1      10.649  30.927  57.917  1.00  0.00     0.022 A 
HETATM   13  C   UNL     1      10.670  30.072  56.814  1.00  0.00     0.002 A 
HETATM   14  C   UNL     1       9.617  29.178  56.594  1.00  0.00     0.012 A 
BRANCH   9  15
HETATM   15  O   UNL     1       7.422  29.965  59.405  1.00  0.00    -0.359 OA
HETATM   16  H   UNL     1       7.396  29.054  59.776  1.00  0.00     0.218 HD
ENDBRANCH   9  15
ENDBRANCH   7   8
ENDBRANCH   3   7
BRANCH   1  17
HETATM   17  C   UNL     1       4.863  27.550  54.343  1.00  0.00     0.127 C 
BRANCH  17  18
HETATM   18  N   UNL     1       5.327  26.218  54.719  1.00  0.00    -0.376 N 
HETATM   19  H   UNL     1       5.511  26.133  55.723  1.00  0.00     0.161 HD
BRANCH  18  20
HETATM   20  C   UNL     1       6.256  25.446  54.024  1.00  0.00     0.100 A 
HETATM   21  C   UNL     1       6.501  24.134  54.464  1.00  0.00     0.048 A 
HETATM   22  C   UNL     1       7.390  23.310  53.777  1.00  0.00     0.005 A 
HETATM   23  C   UNL     1       8.022  23.790  52.642  1.00  0.00     0.017 A 
HETATM   24  C   UNL     1       7.740  25.078  52.216  1.00  0.00     0.089 A 
HETATM   25  N   UNL     1       6.874  25.847  52.901  1.00  0.00    -0.353 N 
HETATM   26  H   UNL     1       6.691  26.773  52.535  1.00  0.00     0.166 HD
ENDBRANCH  18  20
ENDBRANCH  17  18
ENDBRANCH   1  17
TORSDOF 6
ENDMDL
MODEL 7
REMARK VINA RESULT:      -7.6      3.770      7.915
REMARK  6 active torsions:
REMARK  status: ('A' for Active; 'I' for Inactive)
REMARK    1  A    between atoms: C_3  and  N_4 
REMARK    2  A    between atoms: N_4  and  C_5 
REMARK    3  A    between atoms: C_5  and  C_6 
REMARK    4  A    between atoms: N_8  and  C_10 
REMARK    5  A    between atoms: C_10  and  C_11 
REMARK    6  A    between atoms: C_12  and  O_13 
ROOT
HETATM    1  C   UNL     1       6.084  29.942  56.197  1.00  0.00     0.031 C 
HETATM    2  C   UNL     1       6.731  28.592  55.891  1.00  0.00     0.241 C 
HETATM    3  N   UNL     1       5.595  27.608  55.812  1.00  0.00    -0.067 N 
HETATM    4  H   UNL     1       5.668  27.123  54.895  1.00  0.00     0.280 HD
HETATM    5  C   UNL     1       4.294  28.368  55.808  1.00  0.00     0.235 C 
HETATM    6  C   UNL     1       4.712  29.803  55.534  1.00  0.00     0.035 C 
ENDROOT
BRANCH   3   7
HETATM    7  C   UNL     1       5.664  26.463  56.790  1.00  0.00     0.276 C 
BRANCH   7   8
HETATM    8  C   UNL     1       6.735  25.462  56.464  1.00  0.00     0.002 A 
HETATM    9  C   UNL     1       6.720  24.771  55.244  1.00  0.00     0.091 A 
HETATM   10  C   UNL     1       7.742  23.879  54.909  1.00  0.00     0.044 A 
HETATM   11 BR   UNL     1       7.717  22.958  53.257  1.00  0.00    -0.048 Br
HETATM   12  C   UNL     1       8.792  23.661  55.798  1.00  0.00     0.022 A 
HETATM   13  C   UNL     1       8.818  24.338  57.018  1.00  0.00     0.002 A 
HETATM   14  C   UNL     1       7.799  25.237  57.349  1.00  0.00     0.012 A 
BRANCH   9  15
HETATM   15  O   UNL     1       5.655  24.991  54.403  1.00  0.00    -0.359 OA
HETATM   16  H   UNL     1       6.026  25.421  53.599  1.00  0.00     0.218 HD
ENDBRANCH   9  15
ENDBRANCH   7   8
ENDBRANCH   3   7
BRANCH   1  17
HETATM   17  C   UNL     1       5.988  30.269  57.700  1.00  0.00     0.127 C 
BRANCH  17  18
HETATM   18  N   UNL     1       7.163  29.755  58.395  1.00  0.00    -0.376 N 
HETATM   19  H   UNL     1       7.016  28.816  58.779  1.00  0.00     0.161 HD
BRANCH  18  20
HETATM   20  C   UNL     1       7.983  30.472  59.265  1.00  0.00     0.100 A 
HETATM   21  C   UNL     1       9.048  31.213  58.724  1.00  0.00     0.048 A 
HETATM   22  C   UNL     1       9.870  31.979  59.549  1.00  0.00     0.005 A 
HETATM   23  C   UNL     1       9.618  32.019  60.910  1.00  0.00     0.017 A 
HETATM   24  C   UNL     1       8.543  31.300  61.411  1.00  0.00     0.089 A 
HETATM   25  N   UNL     1       7.768  30.573  60.587  1.00  0.00    -0.353 N 
HETATM   26  H   UNL     1       6.986  30.082  61.003  1.00  0.00     0.166 HD
ENDBRANCH  18  20
ENDBRANCH  17  18
ENDBRANCH   1  17
TORSDOF 6
ENDMDL
MODEL 8
REMARK VINA RESULT:      -7.6      6.151      7.980
REMARK  6 active torsions:
REMARK  status: ('A' for Active; 'I' for Inactive)
REMARK    1  A    between atoms: C_3  and  N_4 
REMARK    2  A    between atoms: N_4  and  C_5 
REMARK    3  A    between atoms: C_5  and  C_6 
REMARK    4  A    between atoms: N_8  and  C_10 
REMARK    5  A    between atoms: C_10  and  C_11 
REMARK    6  A    between atoms: C_12  and  O_13 
ROOT
HETATM    1  C   UNL     1       4.557  26.668  52.165  1.00  0.00     0.031 C 
HETATM    2  C   UNL     1       5.174  25.449  52.850  1.00  0.00     0.241 C 
HETATM    3  N   UNL     1       5.945  25.993  54.023  1.00  0.00    -0.067 N 
HETATM    4  H   UNL     1       5.612  25.494  54.871  1.00  0.00     0.280 HD
HETATM    5  C   UNL     1       5.598  27.448  54.199  1.00  0.00     0.235 C 
HETATM    6  C   UNL     1       4.363  27.635  53.334  1.00  0.00     0.035 C 
ENDROOT
BRANCH   3   7
HETATM    7  C   UNL     1       7.420  25.682  54.025  1.00  0.00     0.276 C 
BRANCH   7   8
HETATM    8  C   UNL     1       7.750  24.349  54.633  1.00  0.00     0.002 A 
HETATM    9  C   UNL     1       7.961  23.225  53.820  1.00  0.00     0.091 A 
HETATM   10  C   UNL     1       8.321  21.994  54.374  1.00  0.00     0.044 A 
HETATM   11 BR   UNL     1       8.611  20.486  53.269  1.00  0.00    -0.048 Br
HETATM   12  C   UNL     1       8.468  21.870  55.753  1.00  0.00     0.022 A 
HETATM   13  C   UNL     1       8.257  22.978  56.575  1.00  0.00     0.002 A 
HETATM   14  C   UNL     1       7.905  24.212  56.020  1.00  0.00     0.012 A 
BRANCH   9  15
HETATM   15  O   UNL     1       7.781  23.379  52.467  1.00  0.00    -0.359 OA
HETATM   16  H   UNL     1       6.813  23.493  52.330  1.00  0.00     0.218 HD
ENDBRANCH   9  15
ENDBRANCH   7   8
ENDBRANCH   3   7
BRANCH   1  17
HETATM   17  C   UNL     1       5.422  27.264  51.037  1.00  0.00     0.127 C 
BRANCH  17  18
HETATM   18  N   UNL     1       5.145  26.571  49.782  1.00  0.00    -0.376 N 
HETATM   19  H   UNL     1       5.961  26.532  49.164  1.00  0.00     0.161 HD
BRANCH  18  20
HETATM   20  C   UNL     1       3.998  26.710  49.004  1.00  0.00     0.100 A 
HETATM   21  C   UNL     1       3.843  25.877  47.882  1.00  0.00     0.048 A 
HETATM   22  C   UNL     1       2.694  25.949  47.098  1.00  0.00     0.005 A 
HETATM   23  C   UNL     1       1.692  26.842  47.442  1.00  0.00     0.017 A 
HETATM   24  C   UNL     1       1.861  27.631  48.569  1.00  0.00     0.089 A 
HETATM   25  N   UNL     1       2.981  27.535  49.306  1.00  0.00    -0.353 N 
HETATM   26  H   UNL     1       3.044  28.122  50.129  1.00  0.00     0.166 HD
ENDBRANCH  18  20
ENDBRANCH  17  18
ENDBRANCH   1  17
TORSDOF 6
ENDMDL
MODEL 9
REMARK VINA RESULT:      -7.6      2.685      3.931
REMARK  6 active torsions:
REMARK  status: ('A' for Active; 'I' for Inactive)
REMARK    1  A    between atoms: C_3  and  N_4 
REMARK    2  A    between atoms: N_4  and  C_5 
REMARK    3  A    between atoms: C_5  and  C_6 
REMARK    4  A    between atoms: N_8  and  C_10 
REMARK    5  A    between atoms: C_10  and  C_11 
REMARK    6  A    between atoms: C_12  and  O_13 
ROOT
HETATM    1  C   UNL     1       5.963  25.095  52.387  1.00  0.00     0.031 C 
HETATM    2  C   UNL     1       4.796  25.253  53.360  1.00  0.00     0.241 C 
HETATM    3  N   UNL     1       4.341  26.681  53.216  1.00  0.00    -0.067 N 
HETATM    4  H   UNL     1       3.323  26.662  53.007  1.00  0.00     0.280 HD
HETATM    5  C   UNL     1       5.026  27.290  52.021  1.00  0.00     0.235 C 
HETATM    6  C   UNL     1       5.607  26.094  51.286  1.00  0.00     0.035 C 
ENDROOT
BRANCH   3   7
HETATM    7  C   UNL     1       4.398  27.507  54.475  1.00  0.00     0.276 C 
BRANCH   7   8
HETATM    8  C   UNL     1       5.495  27.090  55.414  1.00  0.00     0.002 A 
HETATM    9  C   UNL     1       6.611  27.914  55.619  1.00  0.00     0.091 A 
HETATM   10  C   UNL     1       7.608  27.560  56.532  1.00  0.00     0.044 A 
HETATM   11 BR   UNL     1       9.106  28.682  56.807  1.00  0.00    -0.048 Br
HETATM   12  C   UNL     1       7.504  26.370  57.247  1.00  0.00     0.022 A 
HETATM   13  C   UNL     1       6.401  25.538  57.050  1.00  0.00     0.002 A 
HETATM   14  C   UNL     1       5.399  25.896  56.143  1.00  0.00     0.012 A 
BRANCH   9  15
HETATM   15  O   UNL     1       6.692  29.068  54.877  1.00  0.00    -0.359 OA
HETATM   16  H   UNL     1       7.482  29.551  55.209  1.00  0.00     0.218 HD
ENDBRANCH   9  15
ENDBRANCH   7   8
ENDBRANCH   3   7
BRANCH   1  17
HETATM   17  C   UNL     1       7.347  25.366  53.012  1.00  0.00     0.127 C 
BRANCH  17  18
HETATM   18  N   UNL     1       8.175  24.168  52.920  1.00  0.00    -0.376 N 
HETATM   19  H   UNL     1       8.383  23.904  51.952  1.00  0.00     0.161 HD
BRANCH  18  20
HETATM   20  C   UNL     1       8.030  23.009  53.679  1.00  0.00     0.100 A 
HETATM   21  C   UNL     1       8.001  21.771  53.016  1.00  0.00     0.048 A 
HETATM   22  C   UNL     1       7.899  20.582  53.735  1.00  0.00     0.005 A 
HETATM   23  C   UNL     1       7.843  20.629  55.119  1.00  0.00     0.017 A 
HETATM   24  C   UNL     1       7.901  21.863  55.747  1.00  0.00     0.089 A 
HETATM   25  N   UNL     1       8.002  22.991  55.023  1.00  0.00    -0.353 N 
HETATM   26  H   UNL     1       8.059  23.864  55.534  1.00  0.00     0.166 HD
ENDBRANCH  18  20
ENDBRANCH  17  18
ENDBRANCH   1  17
TORSDOF 6
ENDMDL
MODEL 10
REMARK VINA RESULT:      -7.5      6.203      7.757
REMARK  6 active torsions:
REMARK  status: ('A' for Active; 'I' for Inactive)
REMARK    1  A    between atoms: C_3  and  N_4 
REMARK    2  A    between atoms: N_4  and  C_5 
REMARK    3  A    between atoms: C_5  and  C_6 
REMARK    4  A    between atoms: N_8  and  C_10 
REMARK    5  A    between atoms: C_10  and  C_11 
REMARK    6  A    between atoms: C_12  and  O_13 
ROOT
HETATM    1  C   UNL     1       6.032  26.085  53.590  1.00  0.00     0.031 C 
HETATM    2  C   UNL     1       5.451  27.105  52.611  1.00  0.00     0.241 C 
HETATM    3  N   UNL     1       4.707  26.298  51.582  1.00  0.00    -0.067 N 
HETATM    4  H   UNL     1       3.737  26.668  51.540  1.00  0.00     0.280 HD
HETATM    5  C   UNL     1       4.615  24.871  52.057  1.00  0.00     0.235 C 
HETATM    6  C   UNL     1       5.010  24.950  53.522  1.00  0.00     0.035 C 
ENDROOT
BRANCH   3   7
HETATM    7  C   UNL     1       5.180  26.469  50.161  1.00  0.00     0.276 C 
BRANCH   7   8
HETATM    8  C   UNL     1       4.060  26.631  49.173  1.00  0.00     0.002 A 
HETATM    9  C   UNL     1       3.304  27.812  49.137  1.00  0.00     0.091 A 
HETATM   10  C   UNL     1       2.297  27.992  48.185  1.00  0.00     0.044 A 
HETATM   11 BR   UNL     1       1.288  29.591  48.140  1.00  0.00    -0.048 Br
HETATM   12  C   UNL     1       2.028  26.987  47.260  1.00  0.00     0.022 A 
HETATM   13  C   UNL     1       2.770  25.805  47.287  1.00  0.00     0.002 A 
HETATM   14  C   UNL     1       3.784  25.628  48.233  1.00  0.00     0.012 A 
BRANCH   9  15
HETATM   15  O   UNL     1       3.580  28.770  50.083  1.00  0.00    -0.359 OA
HETATM   16  H   UNL     1       4.172  28.342  50.741  1.00  0.00     0.218 HD
ENDBRANCH   9  15
ENDBRANCH   7   8
ENDBRANCH   3   7
BRANCH   1  17
HETATM   17  C   UNL     1       7.461  25.621  53.244  1.00  0.00     0.127 C 
BRANCH  17  18
HETATM   18  N   UNL     1       7.958  24.729  54.286  1.00  0.00    -0.376 N 
HETATM   19  H   UNL     1       8.833  25.059  54.705  1.00  0.00     0.161 HD
BRANCH  18  20
HETATM   20  C   UNL     1       7.983  23.336  54.232  1.00  0.00     0.100 A 
HETATM   21  C   UNL     1       7.850  22.616  55.431  1.00  0.00     0.048 A 
HETATM   22  C   UNL     1       7.827  21.223  55.423  1.00  0.00     0.005 A 
HETATM   23  C   UNL     1       7.923  20.549  54.217  1.00  0.00     0.017 A 
HETATM   24  C   UNL     1       8.026  21.287  53.048  1.00  0.00     0.089 A 
HETATM   25  N   UNL     1       8.042  22.631  53.090  1.00  0.00    -0.353 N 
HETATM   26  H   UNL     1       8.100  23.120  52.205  1.00  0.00     0.166 HD
ENDBRANCH  18  20
ENDBRANCH  17  18
ENDBRANCH   1  17
TORSDOF 6
ENDMDL
