MODEL 1
REMARK VINA RESULT:     -10.4      0.000      0.000
REMARK  5 active torsions:
REMARK  status: ('A' for Active; 'I' for Inactive)
REMARK    1  A    between atoms: C_3  and  C_4 
REMARK    2  A    between atoms: C_4  and  N_5 
REMARK    3  A    between atoms: C_9  and  C_10 
REMARK    4  A    between atoms: C_13  and  C_14 
REMARK    5  A    between atoms: C_14  and  N_15 
ROOT
HETATM    1  N   UNL     1       7.042  24.785  55.655  1.00  0.00    -0.067 N 
HETATM    2  H   UNL     1       6.350  24.227  55.139  1.00  0.00     0.280 HD
HETATM    3  C   UNL     1       6.524  24.957  57.063  1.00  0.00     0.236 C 
HETATM    4  C   UNL     1       5.279  25.837  57.081  1.00  0.00     0.040 C 
HETATM    5  C   UNL     1       5.489  27.194  56.402  1.00  0.00     0.060 C 
HETATM    6  C   UNL     1       6.022  26.972  54.981  1.00  0.00     0.040 C 
HETATM    7  C   UNL     1       7.259  26.083  54.921  1.00  0.00     0.236 C 
ENDROOT
BRANCH   5   8
HETATM    8  C   UNL     1       6.405  28.070  57.212  1.00  0.00     0.134 A 
HETATM    9  N   UNL     1       6.255  29.419  57.452  1.00  0.00    -0.323 N 
HETATM   10  C   UNL     1       5.188  30.268  56.978  1.00  0.00     0.159 C 
HETATM   11  C   UNL     1       7.325  29.781  58.236  1.00  0.00     0.155 A 
HETATM   12  N   UNL     1       8.054  28.711  58.480  1.00  0.00    -0.133 NA
HETATM   13  N   UNL     1       7.485  27.654  57.839  1.00  0.00    -0.134 NA
BRANCH  11  14
HETATM   14  C   UNL     1       7.645  31.144  58.751  1.00  0.00     0.315 C 
BRANCH  14  15
HETATM   15  N   UNL     1       7.561  31.185  60.268  1.00  0.00    -0.064 N 
HETATM   16  H   UNL     1       7.001  30.351  60.513  1.00  0.00     0.280 HD
HETATM   17  C   UNL     1       8.907  30.995  60.929  1.00  0.00     0.235 C 
HETATM   18  C   UNL     1       8.715  30.842  62.430  1.00  0.00     0.028 C 
HETATM   19  C   UNL     1       7.959  32.027  63.022  1.00  0.00     0.003 C 
HETATM   20  C   UNL     1       6.639  32.258  62.296  1.00  0.00     0.028 C 
HETATM   21  C   UNL     1       6.832  32.394  60.792  1.00  0.00     0.235 C 
ENDBRANCH  14  15
ENDBRANCH  11  14
ENDBRANCH   5   8
BRANCH   1  22
HETATM   22  C   UNL     1       8.332  23.968  55.627  1.00  0.00     0.273 C 
BRANCH  22  23
HETATM   23  C   UNL     1       8.232  22.686  54.843  1.00  0.00    -0.027 A 
HETATM   24  C   UNL     1       8.284  21.411  55.443  1.00  0.00    -0.054 A 
HETATM   25  C   UNL     1       8.409  21.179  56.926  1.00  0.00     0.049 C 
HETATM   26  C   UNL     1       8.234  20.270  54.621  1.00  0.00     0.007 A 
HETATM   27  C   UNL     1       8.114  20.381  53.238  1.00  0.00     0.001 A 
HETATM   28  C   UNL     1       8.044  21.634  52.646  1.00  0.00     0.001 A 
HETATM   29  C   UNL     1       8.102  22.777  53.440  1.00  0.00     0.009 A 
ENDBRANCH  22  23
ENDBRANCH   1  22
TORSDOF 5
ENDMDL
MODEL 2
REMARK VINA RESULT:      -9.5      4.230      7.721
REMARK  5 active torsions:
REMARK  status: ('A' for Active; 'I' for Inactive)
REMARK    1  A    between atoms: C_3  and  C_4 
REMARK    2  A    between atoms: C_4  and  N_5 
REMARK    3  A    between atoms: C_9  and  C_10 
REMARK    4  A    between atoms: C_13  and  C_14 
REMARK    5  A    between atoms: C_14  and  N_15 
ROOT
HETATM    1  N   UNL     1       7.633  25.051  56.402  1.00  0.00    -0.067 N 
HETATM    2  H   UNL     1       7.708  25.408  57.363  1.00  0.00     0.280 HD
HETATM    3  C   UNL     1       7.929  26.202  55.469  1.00  0.00     0.236 C 
HETATM    4  C   UNL     1       6.830  27.256  55.539  1.00  0.00     0.040 C 
HETATM    5  C   UNL     1       5.431  26.687  55.286  1.00  0.00     0.060 C 
HETATM    6  C   UNL     1       5.177  25.519  56.246  1.00  0.00     0.040 C 
HETATM    7  C   UNL     1       6.264  24.450  56.215  1.00  0.00     0.236 C 
ENDROOT
BRANCH   5   8
HETATM    8  C   UNL     1       5.265  26.275  53.848  1.00  0.00     0.134 A 
HETATM    9  N   UNL     1       5.405  27.080  52.739  1.00  0.00    -0.323 N 
HETATM   10  C   UNL     1       5.743  28.483  52.727  1.00  0.00     0.159 C 
HETATM   11  C   UNL     1       5.163  26.270  51.655  1.00  0.00     0.155 A 
HETATM   12  N   UNL     1       4.925  25.047  52.083  1.00  0.00    -0.133 NA
HETATM   13  N   UNL     1       4.983  25.054  53.443  1.00  0.00    -0.134 NA
BRANCH  11  14
HETATM   14  C   UNL     1       5.165  26.665  50.216  1.00  0.00     0.315 C 
BRANCH  14  15
HETATM   15  N   UNL     1       3.752  26.936  49.725  1.00  0.00    -0.064 N 
HETATM   16  H   UNL     1       3.151  26.412  50.382  1.00  0.00     0.280 HD
HETATM   17  C   UNL     1       3.358  28.388  49.864  1.00  0.00     0.235 C 
HETATM   18  C   UNL     1       1.878  28.542  49.550  1.00  0.00     0.028 C 
HETATM   19  C   UNL     1       1.539  27.996  48.167  1.00  0.00     0.003 C 
HETATM   20  C   UNL     1       2.011  26.555  48.010  1.00  0.00     0.028 C 
HETATM   21  C   UNL     1       3.490  26.402  48.342  1.00  0.00     0.235 C 
ENDBRANCH  14  15
ENDBRANCH  11  14
ENDBRANCH   5   8
BRANCH   1  22
HETATM   22  C   UNL     1       8.686  23.951  56.288  1.00  0.00     0.273 C 
BRANCH  22  23
HETATM   23  C   UNL     1       8.366  22.897  55.260  1.00  0.00    -0.027 A 
HETATM   24  C   UNL     1       8.238  21.529  55.574  1.00  0.00    -0.054 A 
HETATM   25  C   UNL     1       8.370  20.965  56.965  1.00  0.00     0.049 C 
HETATM   26  C   UNL     1       7.988  20.613  54.537  1.00  0.00     0.007 A 
HETATM   27  C   UNL     1       7.846  21.037  53.217  1.00  0.00     0.001 A 
HETATM   28  C   UNL     1       7.952  22.385  52.907  1.00  0.00     0.001 A 
HETATM   29  C   UNL     1       8.210  23.308  53.918  1.00  0.00     0.009 A 
ENDBRANCH  22  23
ENDBRANCH   1  22
TORSDOF 5
ENDMDL
MODEL 3
REMARK VINA RESULT:      -9.5      5.641      9.019
REMARK  5 active torsions:
REMARK  status: ('A' for Active; 'I' for Inactive)
REMARK    1  A    between atoms: C_3  and  C_4 
REMARK    2  A    between atoms: C_4  and  N_5 
REMARK    3  A    between atoms: C_9  and  C_10 
REMARK    4  A    between atoms: C_13  and  C_14 
REMARK    5  A    between atoms: C_14  and  N_15 
ROOT
HETATM    1  N   UNL     1       7.288  24.693  53.582  1.00  0.00    -0.067 N 
HETATM    2  H   UNL     1       7.490  24.823  54.581  1.00  0.00     0.280 HD
HETATM    3  C   UNL     1       7.847  25.889  52.848  1.00  0.00     0.236 C 
HETATM    4  C   UNL     1       7.073  27.154  53.200  1.00  0.00     0.040 C 
HETATM    5  C   UNL     1       5.564  27.023  52.971  1.00  0.00     0.060 C 
HETATM    6  C   UNL     1       5.042  25.794  53.726  1.00  0.00     0.040 C 
HETATM    7  C   UNL     1       5.802  24.510  53.410  1.00  0.00     0.236 C 
ENDROOT
BRANCH   5   8
HETATM    8  C   UNL     1       5.243  26.956  51.503  1.00  0.00     0.134 A 
HETATM    9  N   UNL     1       5.148  28.019  50.631  1.00  0.00    -0.323 N 
HETATM   10  C   UNL     1       5.342  29.414  50.945  1.00  0.00     0.159 C 
HETATM   11  C   UNL     1       4.839  27.473  49.407  1.00  0.00     0.155 A 
HETATM   12  N   UNL     1       4.784  26.162  49.528  1.00  0.00    -0.133 NA
HETATM   13  N   UNL     1       5.027  25.845  50.829  1.00  0.00    -0.134 NA
BRANCH  11  14
HETATM   14  C   UNL     1       4.603  28.204  48.128  1.00  0.00     0.315 C 
BRANCH  14  15
HETATM   15  N   UNL     1       3.116  28.323  47.837  1.00  0.00    -0.064 N 
HETATM   16  H   UNL     1       2.681  28.404  48.771  1.00  0.00     0.280 HD
HETATM   17  C   UNL     1       2.769  29.597  47.101  1.00  0.00     0.235 C 
HETATM   18  C   UNL     1       1.257  29.743  47.029  1.00  0.00     0.028 C 
HETATM   19  C   UNL     1       0.607  28.525  46.383  1.00  0.00     0.003 C 
HETATM   20  C   UNL     1       1.025  27.238  47.084  1.00  0.00     0.028 C 
HETATM   21  C   UNL     1       2.540  27.103  47.169  1.00  0.00     0.235 C 
ENDBRANCH  14  15
ENDBRANCH  11  14
ENDBRANCH   5   8
BRANCH   1  22
HETATM   22  C   UNL     1       8.004  23.404  53.181  1.00  0.00     0.273 C 
BRANCH  22  23
HETATM   23  C   UNL     1       8.205  22.435  54.316  1.00  0.00    -0.027 A 
HETATM   24  C   UNL     1       8.327  21.042  54.127  1.00  0.00    -0.054 A 
HETATM   25  C   UNL     1       8.306  20.368  52.781  1.00  0.00     0.049 C 
HETATM   26  C   UNL     1       8.460  20.212  55.254  1.00  0.00     0.007 A 
HETATM   27  C   UNL     1       8.494  20.741  56.542  1.00  0.00     0.001 A 
HETATM   28  C   UNL     1       8.393  22.112  56.731  1.00  0.00     0.001 A 
HETATM   29  C   UNL     1       8.250  22.953  55.629  1.00  0.00     0.009 A 
ENDBRANCH  22  23
ENDBRANCH   1  22
TORSDOF 5
ENDMDL
MODEL 4
REMARK VINA RESULT:      -8.7      5.512      8.896
REMARK  5 active torsions:
REMARK  status: ('A' for Active; 'I' for Inactive)
REMARK    1  A    between atoms: C_3  and  C_4 
REMARK    2  A    between atoms: C_4  and  N_5 
REMARK    3  A    between atoms: C_9  and  C_10 
REMARK    4  A    between atoms: C_13  and  C_14 
REMARK    5  A    between atoms: C_14  and  N_15 
ROOT
HETATM    1  N   UNL     1       6.793  25.327  53.760  1.00  0.00    -0.067 N 
HETATM    2  H   UNL     1       6.660  25.158  54.765  1.00  0.00     0.280 HD
HETATM    3  C   UNL     1       7.044  26.806  53.580  1.00  0.00     0.236 C 
HETATM    4  C   UNL     1       5.793  27.614  53.910  1.00  0.00     0.040 C 
HETATM    5  C   UNL     1       4.559  27.164  53.122  1.00  0.00     0.060 C 
HETATM    6  C   UNL     1       4.348  25.659  53.326  1.00  0.00     0.040 C 
HETATM    7  C   UNL     1       5.583  24.818  53.021  1.00  0.00     0.236 C 
ENDROOT
BRANCH   5   8
HETATM    8  C   UNL     1       4.687  27.518  51.665  1.00  0.00     0.134 A 
HETATM    9  N   UNL     1       3.955  28.463  50.979  1.00  0.00    -0.323 N 
HETATM   10  C   UNL     1       2.917  29.309  51.517  1.00  0.00     0.159 C 
HETATM   11  C   UNL     1       4.421  28.433  49.686  1.00  0.00     0.155 A 
HETATM   12  N   UNL     1       5.396  27.549  49.607  1.00  0.00    -0.133 NA
HETATM   13  N   UNL     1       5.554  26.979  50.833  1.00  0.00    -0.134 NA
BRANCH  11  14
HETATM   14  C   UNL     1       3.939  29.249  48.534  1.00  0.00     0.315 C 
BRANCH  14  15
HETATM   15  N   UNL     1       2.577  28.771  48.061  1.00  0.00    -0.064 N 
HETATM   16  H   UNL     1       2.001  28.757  48.920  1.00  0.00     0.280 HD
HETATM   17  C   UNL     1       1.910  29.754  47.126  1.00  0.00     0.235 C 
HETATM   18  C   UNL     1       0.479  29.308  46.862  1.00  0.00     0.028 C 
HETATM   19  C   UNL     1       0.428  27.886  46.315  1.00  0.00     0.003 C 
HETATM   20  C   UNL     1       1.171  26.916  47.227  1.00  0.00     0.028 C 
HETATM   21  C   UNL     1       2.597  27.373  47.502  1.00  0.00     0.235 C 
ENDBRANCH  14  15
ENDBRANCH  11  14
ENDBRANCH   5   8
BRANCH   1  22
HETATM   22  C   UNL     1       8.013  24.498  53.361  1.00  0.00     0.273 C 
BRANCH  22  23
HETATM   23  C   UNL     1       7.968  23.070  53.838  1.00  0.00    -0.027 A 
HETATM   24  C   UNL     1       7.961  22.714  55.202  1.00  0.00    -0.054 A 
HETATM   25  C   UNL     1       7.962  23.707  56.335  1.00  0.00     0.049 C 
HETATM   26  C   UNL     1       7.971  21.351  55.549  1.00  0.00     0.007 A 
HETATM   27  C   UNL     1       7.967  20.357  54.573  1.00  0.00     0.001 A 
HETATM   28  C   UNL     1       7.954  20.704  53.230  1.00  0.00     0.001 A 
HETATM   29  C   UNL     1       7.955  22.048  52.864  1.00  0.00     0.009 A 
ENDBRANCH  22  23
ENDBRANCH   1  22
TORSDOF 5
ENDMDL
MODEL 5
REMARK VINA RESULT:      -8.6      5.381      8.141
REMARK  5 active torsions:
REMARK  status: ('A' for Active; 'I' for Inactive)
REMARK    1  A    between atoms: C_3  and  C_4 
REMARK    2  A    between atoms: C_4  and  N_5 
REMARK    3  A    between atoms: C_9  and  C_10 
REMARK    4  A    between atoms: C_13  and  C_14 
REMARK    5  A    between atoms: C_14  and  N_15 
ROOT
HETATM    1  N   UNL     1       7.189  24.726  53.823  1.00  0.00    -0.067 N 
HETATM    2  H   UNL     1       7.548  24.758  54.785  1.00  0.00     0.280 HD
HETATM    3  C   UNL     1       7.841  25.855  53.059  1.00  0.00     0.236 C 
HETATM    4  C   UNL     1       7.357  27.207  53.570  1.00  0.00     0.040 C 
HETATM    5  C   UNL     1       5.832  27.346  53.561  1.00  0.00     0.060 C 
HETATM    6  C   UNL     1       5.213  26.177  54.338  1.00  0.00     0.040 C 
HETATM    7  C   UNL     1       5.685  24.807  53.866  1.00  0.00     0.236 C 
ENDROOT
BRANCH   5   8
HETATM    8  C   UNL     1       5.303  27.425  52.155  1.00  0.00     0.134 A 
HETATM    9  N   UNL     1       4.314  28.267  51.693  1.00  0.00    -0.323 N 
HETATM   10  C   UNL     1       3.586  29.248  52.462  1.00  0.00     0.159 C 
HETATM   11  C   UNL     1       4.174  27.982  50.356  1.00  0.00     0.155 A 
HETATM   12  N   UNL     1       5.046  27.051  50.026  1.00  0.00    -0.133 NA
HETATM   13  N   UNL     1       5.739  26.703  51.145  1.00  0.00    -0.134 NA
BRANCH  11  14
HETATM   14  C   UNL     1       3.212  28.602  49.398  1.00  0.00     0.315 C 
BRANCH  14  15
HETATM   15  N   UNL     1       3.873  29.723  48.613  1.00  0.00    -0.064 N 
HETATM   16  H   UNL     1       4.886  29.534  48.705  1.00  0.00     0.280 HD
HETATM   17  C   UNL     1       3.567  29.655  47.134  1.00  0.00     0.235 C 
HETATM   18  C   UNL     1       4.420  30.675  46.395  1.00  0.00     0.028 C 
HETATM   19  C   UNL     1       4.218  32.081  46.948  1.00  0.00     0.003 C 
HETATM   20  C   UNL     1       4.454  32.122  48.454  1.00  0.00     0.028 C 
HETATM   21  C   UNL     1       3.610  31.089  49.190  1.00  0.00     0.235 C 
ENDBRANCH  14  15
ENDBRANCH  11  14
ENDBRANCH   5   8
BRANCH   1  22
HETATM   22  C   UNL     1       7.605  23.363  53.273  1.00  0.00     0.273 C 
BRANCH  22  23
HETATM   23  C   UNL     1       7.990  22.364  54.333  1.00  0.00    -0.027 A 
HETATM   24  C   UNL     1       8.265  21.010  54.051  1.00  0.00    -0.054 A 
HETATM   25  C   UNL     1       8.243  20.414  52.668  1.00  0.00     0.049 C 
HETATM   26  C   UNL     1       8.565  20.141  55.115  1.00  0.00     0.007 A 
HETATM   27  C   UNL     1       8.614  20.599  56.430  1.00  0.00     0.001 A 
HETATM   28  C   UNL     1       8.363  21.934  56.709  1.00  0.00     0.001 A 
HETATM   29  C   UNL     1       8.053  22.810  55.670  1.00  0.00     0.009 A 
ENDBRANCH  22  23
ENDBRANCH   1  22
TORSDOF 5
ENDMDL
MODEL 6
REMARK VINA RESULT:      -8.4      2.832      3.579
REMARK  5 active torsions:
REMARK  status: ('A' for Active; 'I' for Inactive)
REMARK    1  A    between atoms: C_3  and  C_4 
REMARK    2  A    between atoms: C_4  and  N_5 
REMARK    3  A    between atoms: C_9  and  C_10 
REMARK    4  A    between atoms: C_13  and  C_14 
REMARK    5  A    between atoms: C_14  and  N_15 
ROOT
HETATM    1  N   UNL     1       6.846  24.724  54.255  1.00  0.00    -0.067 N 
HETATM    2  H   UNL     1       7.188  24.352  53.360  1.00  0.00     0.280 HD
HETATM    3  C   UNL     1       5.369  24.998  54.094  1.00  0.00     0.236 C 
HETATM    4  C   UNL     1       5.132  26.149  53.122  1.00  0.00     0.040 C 
HETATM    5  C   UNL     1       5.892  27.424  53.499  1.00  0.00     0.060 C 
HETATM    6  C   UNL     1       7.382  27.098  53.660  1.00  0.00     0.040 C 
HETATM    7  C   UNL     1       7.658  25.941  54.614  1.00  0.00     0.236 C 
ENDROOT
BRANCH   5   8
HETATM    8  C   UNL     1       5.319  28.049  54.743  1.00  0.00     0.134 A 
HETATM    9  N   UNL     1       4.367  29.044  54.801  1.00  0.00    -0.323 N 
HETATM   10  C   UNL     1       3.722  29.688  53.683  1.00  0.00     0.159 C 
HETATM   11  C   UNL     1       4.160  29.286  56.138  1.00  0.00     0.155 A 
HETATM   12  N   UNL     1       4.916  28.466  56.840  1.00  0.00    -0.133 NA
HETATM   13  N   UNL     1       5.637  27.705  55.973  1.00  0.00    -0.134 NA
BRANCH  11  14
HETATM   14  C   UNL     1       3.241  30.295  56.740  1.00  0.00     0.315 C 
BRANCH  14  15
HETATM   15  N   UNL     1       3.984  31.578  57.074  1.00  0.00    -0.064 N 
HETATM   16  H   UNL     1       4.954  31.396  56.764  1.00  0.00     0.280 HD
HETATM   17  C   UNL     1       3.499  32.758  56.263  1.00  0.00     0.235 C 
HETATM   18  C   UNL     1       4.419  33.946  56.500  1.00  0.00     0.028 C 
HETATM   19  C   UNL     1       4.524  34.286  57.983  1.00  0.00     0.003 C 
HETATM   20  C   UNL     1       4.938  33.068  58.802  1.00  0.00     0.028 C 
HETATM   21  C   UNL     1       4.025  31.876  58.550  1.00  0.00     0.235 C 
ENDBRANCH  14  15
ENDBRANCH  11  14
ENDBRANCH   5   8
BRANCH   1  22
HETATM   22  C   UNL     1       7.103  23.624  55.283  1.00  0.00     0.273 C 
BRANCH  22  23
HETATM   23  C   UNL     1       7.660  22.353  54.698  1.00  0.00    -0.027 A 
HETATM   24  C   UNL     1       8.211  21.320  55.484  1.00  0.00    -0.054 A 
HETATM   25  C   UNL     1       8.276  21.346  56.989  1.00  0.00     0.049 C 
HETATM   26  C   UNL     1       8.754  20.192  54.843  1.00  0.00     0.007 A 
HETATM   27  C   UNL     1       8.737  20.073  53.455  1.00  0.00     0.001 A 
HETATM   28  C   UNL     1       8.179  21.079  52.679  1.00  0.00     0.001 A 
HETATM   29  C   UNL     1       7.645  22.209  53.294  1.00  0.00     0.009 A 
ENDBRANCH  22  23
ENDBRANCH   1  22
TORSDOF 5
ENDMDL
MODEL 7
REMARK VINA RESULT:      -8.4      1.886      8.982
REMARK  5 active torsions:
REMARK  status: ('A' for Active; 'I' for Inactive)
REMARK    1  A    between atoms: C_3  and  C_4 
REMARK    2  A    between atoms: C_4  and  N_5 
REMARK    3  A    between atoms: C_9  and  C_10 
REMARK    4  A    between atoms: C_13  and  C_14 
REMARK    5  A    between atoms: C_14  and  N_15 
ROOT
HETATM    1  N   UNL     1       6.843  28.614  57.051  1.00  0.00    -0.067 N 
HETATM    2  H   UNL     1       6.234  29.391  57.338  1.00  0.00     0.280 HD
HETATM    3  C   UNL     1       7.420  28.967  55.700  1.00  0.00     0.236 C 
HETATM    4  C   UNL     1       6.334  28.977  54.630  1.00  0.00     0.040 C 
HETATM    5  C   UNL     1       5.539  27.669  54.565  1.00  0.00     0.060 C 
HETATM    6  C   UNL     1       4.980  27.346  55.956  1.00  0.00     0.040 C 
HETATM    7  C   UNL     1       6.035  27.341  57.056  1.00  0.00     0.236 C 
ENDROOT
BRANCH   5   8
HETATM    8  C   UNL     1       6.385  26.547  54.027  1.00  0.00     0.134 A 
HETATM    9  N   UNL     1       5.938  25.337  53.544  1.00  0.00    -0.323 N 
HETATM   10  C   UNL     1       4.567  24.897  53.450  1.00  0.00     0.159 C 
HETATM   11  C   UNL     1       7.064  24.644  53.167  1.00  0.00     0.155 A 
HETATM   12  N   UNL     1       8.120  25.403  53.380  1.00  0.00    -0.133 NA
HETATM   13  N   UNL     1       7.697  26.579  53.919  1.00  0.00    -0.134 NA
BRANCH  11  14
HETATM   14  C   UNL     1       7.128  23.264  52.603  1.00  0.00     0.315 C 
BRANCH  14  15
HETATM   15  N   UNL     1       7.879  22.329  53.536  1.00  0.00    -0.064 N 
HETATM   16  H   UNL     1       8.854  22.671  53.506  1.00  0.00     0.280 HD
HETATM   17  C   UNL     1       7.431  22.462  54.974  1.00  0.00     0.235 C 
HETATM   18  C   UNL     1       8.360  21.654  55.868  1.00  0.00     0.028 C 
HETATM   19  C   UNL     1       8.428  20.195  55.432  1.00  0.00     0.003 C 
HETATM   20  C   UNL     1       8.804  20.075  53.959  1.00  0.00     0.028 C 
HETATM   21  C   UNL     1       7.883  20.898  53.068  1.00  0.00     0.235 C 
ENDBRANCH  14  15
ENDBRANCH  11  14
ENDBRANCH   5   8
BRANCH   1  22
HETATM   22  C   UNL     1       7.930  28.526  58.120  1.00  0.00     0.273 C 
BRANCH  22  23
HETATM   23  C   UNL     1       8.481  29.861  58.548  1.00  0.00    -0.027 A 
HETATM   24  C   UNL     1       9.730  30.352  58.117  1.00  0.00    -0.054 A 
HETATM   25  C   UNL     1      10.639  29.626  57.160  1.00  0.00     0.049 C 
HETATM   26  C   UNL     1      10.183  31.588  58.612  1.00  0.00     0.007 A 
HETATM   27  C   UNL     1       9.413  32.337  59.499  1.00  0.00     0.001 A 
HETATM   28  C   UNL     1       8.174  31.866  59.911  1.00  0.00     0.001 A 
HETATM   29  C   UNL     1       7.711  30.639  59.440  1.00  0.00     0.009 A 
ENDBRANCH  22  23
ENDBRANCH   1  22
TORSDOF 5
ENDMDL
MODEL 8
REMARK VINA RESULT:      -8.1      1.709     10.166
REMARK  5 active torsions:
REMARK  status: ('A' for Active; 'I' for Inactive)
REMARK    1  A    between atoms: C_3  and  C_4 
REMARK    2  A    between atoms: C_4  and  N_5 
REMARK    3  A    between atoms: C_9  and  C_10 
REMARK    4  A    between atoms: C_13  and  C_14 
REMARK    5  A    between atoms: C_14  and  N_15 
ROOT
HETATM    1  N   UNL     1       6.469  32.019  60.773  1.00  0.00    -0.067 N 
HETATM    2  H   UNL     1       6.623  33.035  60.808  1.00  0.00     0.280 HD
HETATM    3  C   UNL     1       7.821  31.363  60.615  1.00  0.00     0.236 C 
HETATM    4  C   UNL     1       8.420  31.675  59.249  1.00  0.00     0.040 C 
HETATM    5  C   UNL     1       7.493  31.313  58.085  1.00  0.00     0.060 C 
HETATM    6  C   UNL     1       6.133  31.992  58.291  1.00  0.00     0.040 C 
HETATM    7  C   UNL     1       5.508  31.715  59.653  1.00  0.00     0.236 C 
ENDROOT
BRANCH   5   8
HETATM    8  C   UNL     1       7.357  29.821  57.944  1.00  0.00     0.134 A 
HETATM    9  N   UNL     1       6.462  29.147  57.142  1.00  0.00    -0.323 N 
HETATM   10  C   UNL     1       5.474  29.733  56.269  1.00  0.00     0.159 C 
HETATM   11  C   UNL     1       6.712  27.810  57.342  1.00  0.00     0.155 A 
HETATM   12  N   UNL     1       7.716  27.688  58.187  1.00  0.00    -0.133 NA
HETATM   13  N   UNL     1       8.109  28.935  58.563  1.00  0.00    -0.134 NA
BRANCH  11  14
HETATM   14  C   UNL     1       5.995  26.656  56.724  1.00  0.00     0.315 C 
BRANCH  14  15
HETATM   15  N   UNL     1       6.920  25.867  55.813  1.00  0.00    -0.064 N 
HETATM   16  H   UNL     1       7.832  26.345  55.901  1.00  0.00     0.280 HD
HETATM   17  C   UNL     1       7.141  24.452  56.295  1.00  0.00     0.235 C 
HETATM   18  C   UNL     1       8.228  23.796  55.457  1.00  0.00     0.028 C 
HETATM   19  C   UNL     1       7.890  23.838  53.970  1.00  0.00     0.003 C 
HETATM   20  C   UNL     1       7.592  25.261  53.511  1.00  0.00     0.028 C 
HETATM   21  C   UNL     1       6.516  25.920  54.363  1.00  0.00     0.235 C 
ENDBRANCH  14  15
ENDBRANCH  11  14
ENDBRANCH   5   8
BRANCH   1  22
HETATM   22  C   UNL     1       5.821  31.655  62.108  1.00  0.00     0.273 C 
BRANCH  22  23
HETATM   23  C   UNL     1       5.572  32.833  63.012  1.00  0.00    -0.027 A 
HETATM   24  C   UNL     1       6.560  33.375  63.860  1.00  0.00    -0.054 A 
HETATM   25  C   UNL     1       7.977  32.869  63.937  1.00  0.00     0.049 C 
HETATM   26  C   UNL     1       6.218  34.444  64.708  1.00  0.00     0.007 A 
HETATM   27  C   UNL     1       4.934  34.984  64.707  1.00  0.00     0.001 A 
HETATM   28  C   UNL     1       3.964  34.466  63.860  1.00  0.00     0.001 A 
HETATM   29  C   UNL     1       4.279  33.400  63.019  1.00  0.00     0.009 A 
ENDBRANCH  22  23
ENDBRANCH   1  22
TORSDOF 5
ENDMDL
MODEL 9
REMARK VINA RESULT:      -8.0      4.223      9.660
REMARK  5 active torsions:
REMARK  status: ('A' for Active; 'I' for Inactive)
REMARK    1  A    between atoms: C_3  and  C_4 
REMARK    2  A    between atoms: C_4  and  N_5 
REMARK    3  A    between atoms: C_9  and  C_10 
REMARK    4  A    between atoms: C_13  and  C_14 
REMARK    5  A    between atoms: C_14  and  N_15 
ROOT
HETATM    1  N   UNL     1       6.523  29.018  57.003  1.00  0.00    -0.067 N 
HETATM    2  H   UNL     1       6.121  29.372  57.879  1.00  0.00     0.280 HD
HETATM    3  C   UNL     1       6.109  29.964  55.901  1.00  0.00     0.236 C 
HETATM    4  C   UNL     1       4.606  29.887  55.654  1.00  0.00     0.040 C 
HETATM    5  C   UNL     1       4.113  28.464  55.374  1.00  0.00     0.060 C 
HETATM    6  C   UNL     1       4.562  27.538  56.511  1.00  0.00     0.040 C 
HETATM    7  C   UNL     1       6.058  27.599  56.797  1.00  0.00     0.236 C 
ENDROOT
BRANCH   5   8
HETATM    8  C   UNL     1       4.593  27.978  54.033  1.00  0.00     0.134 A 
HETATM    9  N   UNL     1       4.408  28.599  52.817  1.00  0.00    -0.323 N 
HETATM   10  C   UNL     1       3.720  29.845  52.579  1.00  0.00     0.159 C 
HETATM   11  C   UNL     1       5.018  27.791  51.887  1.00  0.00     0.155 A 
HETATM   12  N   UNL     1       5.564  26.765  52.509  1.00  0.00    -0.133 NA
HETATM   13  N   UNL     1       5.293  26.880  53.838  1.00  0.00    -0.134 NA
BRANCH  11  14
HETATM   14  C   UNL     1       5.082  28.002  50.411  1.00  0.00     0.315 C 
BRANCH  14  15
HETATM   15  N   UNL     1       3.890  27.363  49.719  1.00  0.00    -0.064 N 
HETATM   16  H   UNL     1       3.420  26.827  50.467  1.00  0.00     0.280 HD
HETATM   17  C   UNL     1       2.883  28.382  49.237  1.00  0.00     0.235 C 
HETATM   18  C   UNL     1       1.635  27.665  48.745  1.00  0.00     0.028 C 
HETATM   19  C   UNL     1       1.966  26.644  47.662  1.00  0.00     0.003 C 
HETATM   20  C   UNL     1       3.040  25.669  48.130  1.00  0.00     0.028 C 
HETATM   21  C   UNL     1       4.282  26.390  48.638  1.00  0.00     0.235 C 
ENDBRANCH  14  15
ENDBRANCH  11  14
ENDBRANCH   5   8
BRANCH   1  22
HETATM   22  C   UNL     1       8.037  29.027  57.211  1.00  0.00     0.273 C 
BRANCH  22  23
HETATM   23  C   UNL     1       8.531  30.154  58.080  1.00  0.00    -0.027 A 
HETATM   24  C   UNL     1       9.867  30.605  58.069  1.00  0.00    -0.054 A 
HETATM   25  C   UNL     1      10.941  30.046  57.173  1.00  0.00     0.049 C 
HETATM   26  C   UNL     1      10.246  31.630  58.955  1.00  0.00     0.007 A 
HETATM   27  C   UNL     1       9.324  32.215  59.820  1.00  0.00     0.001 A 
HETATM   28  C   UNL     1       8.004  31.786  59.819  1.00  0.00     0.001 A 
HETATM   29  C   UNL     1       7.609  30.765  58.957  1.00  0.00     0.009 A 
ENDBRANCH  22  23
ENDBRANCH   1  22
TORSDOF 5
ENDMDL
MODEL 10
REMARK VINA RESULT:      -8.0      2.071      8.212
REMARK  5 active torsions:
REMARK  status: ('A' for Active; 'I' for Inactive)
REMARK    1  A    between atoms: C_3  and  C_4 
REMARK    2  A    between atoms: C_4  and  N_5 
REMARK    3  A    between atoms: C_9  and  C_10 
REMARK    4  A    between atoms: C_13  and  C_14 
REMARK    5  A    between atoms: C_14  and  N_15 
ROOT
HETATM    1  N   UNL     1       5.957  29.471  57.529  1.00  0.00    -0.067 N 
HETATM    2  H   UNL     1       5.137  29.976  57.888  1.00  0.00     0.280 HD
HETATM    3  C   UNL     1       6.360  30.129  56.231  1.00  0.00     0.236 C 
HETATM    4  C   UNL     1       5.305  29.898  55.154  1.00  0.00     0.040 C 
HETATM    5  C   UNL     1       4.974  28.418  54.941  1.00  0.00     0.060 C 
HETATM    6  C   UNL     1       4.580  27.790  56.283  1.00  0.00     0.040 C 
HETATM    7  C   UNL     1       5.604  28.012  57.391  1.00  0.00     0.236 C 
ENDROOT
BRANCH   5   8
HETATM    8  C   UNL     1       6.124  27.691  54.299  1.00  0.00     0.134 A 
HETATM    9  N   UNL     1       6.091  26.437  53.729  1.00  0.00    -0.323 N 
HETATM   10  C   UNL     1       4.946  25.565  53.627  1.00  0.00     0.159 C 
HETATM   11  C   UNL     1       7.367  26.198  53.277  1.00  0.00     0.155 A 
HETATM   12  N   UNL     1       8.112  27.254  53.529  1.00  0.00    -0.133 NA
HETATM   13  N   UNL     1       7.341  28.176  54.169  1.00  0.00    -0.134 NA
BRANCH  11  14
HETATM   14  C   UNL     1       7.868  24.964  52.602  1.00  0.00     0.315 C 
BRANCH  14  15
HETATM   15  N   UNL     1       7.706  23.750  53.501  1.00  0.00    -0.064 N 
HETATM   16  H   UNL     1       6.685  23.671  53.640  1.00  0.00     0.280 HD
HETATM   17  C   UNL     1       8.137  22.467  52.826  1.00  0.00     0.235 C 
HETATM   18  C   UNL     1       7.756  21.283  53.701  1.00  0.00     0.028 C 
HETATM   19  C   UNL     1       8.348  21.409  55.101  1.00  0.00     0.003 C 
HETATM   20  C   UNL     1       7.972  22.740  55.742  1.00  0.00     0.028 C 
HETATM   21  C   UNL     1       8.339  23.923  54.856  1.00  0.00     0.235 C 
ENDBRANCH  14  15
ENDBRANCH  11  14
ENDBRANCH   5   8
BRANCH   1  22
HETATM   22  C   UNL     1       7.038  29.628  58.597  1.00  0.00     0.273 C 
BRANCH  22  23
HETATM   23  C   UNL     1       8.437  29.721  58.046  1.00  0.00    -0.027 A 
HETATM   24  C   UNL     1       9.312  30.787  58.343  1.00  0.00    -0.054 A 
HETATM   25  C   UNL     1       8.970  31.929  59.263  1.00  0.00     0.049 C 
HETATM   26  C   UNL     1      10.582  30.813  57.739  1.00  0.00     0.007 A 
HETATM   27  C   UNL     1      10.992  29.800  56.876  1.00  0.00     0.001 A 
HETATM   28  C   UNL     1      10.141  28.740  56.597  1.00  0.00     0.001 A 
HETATM   29  C   UNL     1       8.875  28.699  57.176  1.00  0.00     0.009 A 
ENDBRANCH  22  23
ENDBRANCH   1  22
TORSDOF 5
ENDMDL
