MODEL 1
REMARK VINA RESULT:     -10.7      0.000      0.000
REMARK  7 active torsions:
REMARK  status: ('A' for Active; 'I' for Inactive)
REMARK    1  A    between atoms: C_9  and  C_10 
REMARK       I    between atoms: C_10  and  N_11 
REMARK    2  A    between atoms: N_11  and  C_12 
REMARK    3  A    between atoms: C_12  and  C_13 
REMARK    4  A    between atoms: C_12  and  C_22 
REMARK       I    between atoms: C_13  and  N_14 
REMARK    5  A    between atoms: N_14  and  C_15 
REMARK    6  A    between atoms: C_15  and  C_16 
REMARK    7  A    between atoms: C_22  and  C_23 
ROOT
HETATM    1  C   UNL     1       6.442  26.251  55.074  1.00  0.00     0.180 C 
ENDROOT
BRANCH   1   2
HETATM    2  N   UNL     1       5.862  26.895  53.868  1.00  0.00    -0.346 N 
HETATM    3  C   UNL     1       5.446  26.152  52.789  1.00  0.00     0.249 C 
HETATM    4  O   UNL     1       5.272  24.935  52.802  1.00  0.00    -0.271 OA
HETATM    5  H   UNL     1       6.277  27.802  53.674  1.00  0.00     0.163 HD
BRANCH   3   6
HETATM    6  C   UNL     1       5.107  26.923  51.508  1.00  0.00     0.281 C 
HETATM    7  N   UNL     1       3.936  27.839  51.808  1.00  0.00    -0.058 N 
HETATM    8  C   UNL     1       3.550  28.691  50.666  1.00  0.00     0.272 C 
HETATM    9  H   UNL     1       3.148  27.237  52.096  1.00  0.00     0.278 HD
HETATM   10  H   UNL     1       4.145  28.395  52.647  1.00  0.00     0.278 HD
HETATM   11  C   UNL     1       3.376  27.901  49.403  1.00  0.00    -0.026 A 
HETATM   12  C   UNL     1       3.954  26.623  49.255  1.00  0.00    -0.048 A 
HETATM   13  C   UNL     1       2.657  28.464  48.338  1.00  0.00     0.009 A 
HETATM   14  C   UNL     1       3.766  25.920  48.056  1.00  0.00     0.008 A 
HETATM   15  C   UNL     1       4.712  25.960  50.383  1.00  0.00     0.082 C 
HETATM   16  C   UNL     1       3.036  26.486  47.011  1.00  0.00     0.001 A 
HETATM   17  C   UNL     1       2.486  27.757  47.149  1.00  0.00     0.001 A 
ENDBRANCH   3   6
ENDBRANCH   1   2
BRANCH   1  18
HETATM   18  C   UNL     1       6.395  27.321  56.191  1.00  0.00     0.241 C 
HETATM   19  N   UNL     1       7.570  27.596  56.832  1.00  0.00    -0.353 N 
HETATM   20  H   UNL     1       8.460  27.244  56.487  1.00  0.00     0.162 HD
HETATM   21  O   UNL     1       5.321  27.829  56.535  1.00  0.00    -0.271 OA
BRANCH  19  22
HETATM   22  C   UNL     1       7.635  28.590  57.882  1.00  0.00     0.187 C 
BRANCH  22  23
HETATM   23  C   UNL     1       8.874  29.392  57.746  1.00  0.00     0.070 A 
HETATM   24  O   UNL     1       9.853  28.887  56.939  1.00  0.00    -0.325 OA
HETATM   25  C   UNL     1      10.879  29.776  56.951  1.00  0.00     0.142 A 
HETATM   26  C   UNL     1      10.571  30.853  57.746  1.00  0.00     0.027 A 
HETATM   27  C   UNL     1       9.276  30.607  58.263  1.00  0.00     0.036 A 
ENDBRANCH  22  23
ENDBRANCH  19  22
ENDBRANCH   1  18
BRANCH   1  28
HETATM   28  C   UNL     1       7.833  25.637  54.837  1.00  0.00     0.075 C 
BRANCH  28  29
HETATM   29  C   UNL     1       8.026  24.265  55.414  1.00  0.00    -0.028 A 
HETATM   30  C   UNL     1       8.042  23.029  54.685  1.00  0.00    -0.002 A 
HETATM   31  C   UNL     1       8.144  21.996  55.616  1.00  0.00     0.042 A 
HETATM   32  C   UNL     1       7.953  22.691  53.318  1.00  0.00     0.014 A 
HETATM   33  C   UNL     1       8.154  20.644  55.253  1.00  0.00     0.030 A 
HETATM   34  N   UNL     1       8.207  22.575  56.860  1.00  0.00    -0.365 N 
HETATM   35  C   UNL     1       8.060  20.337  53.893  1.00  0.00     0.002 A 
HETATM   36  C   UNL     1       7.963  21.344  52.937  1.00  0.00     0.001 A 
HETATM   37  H   UNL     1       8.269  22.057  57.728  1.00  0.00     0.165 HD
HETATM   38  C   UNL     1       8.125  23.938  56.753  1.00  0.00     0.096 A 
ENDBRANCH  28  29
ENDBRANCH   1  28
TORSDOF 7
ENDMDL
MODEL 2
REMARK VINA RESULT:     -10.4      1.234      1.879
REMARK  7 active torsions:
REMARK  status: ('A' for Active; 'I' for Inactive)
REMARK    1  A    between atoms: C_9  and  C_10 
REMARK       I    between atoms: C_10  and  N_11 
REMARK    2  A    between atoms: N_11  and  C_12 
REMARK    3  A    between atoms: C_12  and  C_13 
REMARK    4  A    between atoms: C_12  and  C_22 
REMARK       I    between atoms: C_13  and  N_14 
REMARK    5  A    between atoms: N_14  and  C_15 
REMARK    6  A    between atoms: C_15  and  C_16 
REMARK    7  A    between atoms: C_22  and  C_23 
ROOT
HETATM    1  C   UNL     1       6.259  26.137  55.358  1.00  0.00     0.180 C 
ENDROOT
BRANCH   1   2
HETATM    2  N   UNL     1       5.535  26.781  54.232  1.00  0.00    -0.346 N 
HETATM    3  C   UNL     1       4.998  26.038  53.208  1.00  0.00     0.249 C 
HETATM    4  O   UNL     1       4.836  24.819  53.237  1.00  0.00    -0.271 OA
HETATM    5  H   UNL     1       5.917  27.692  53.993  1.00  0.00     0.163 HD
BRANCH   3   6
HETATM    6  C   UNL     1       4.502  26.810  51.979  1.00  0.00     0.281 C 
HETATM    7  N   UNL     1       4.843  25.997  50.745  1.00  0.00    -0.058 N 
HETATM    8  C   UNL     1       4.357  26.604  49.491  1.00  0.00     0.272 C 
HETATM    9  H   UNL     1       5.870  25.894  50.726  1.00  0.00     0.278 HD
HETATM   10  H   UNL     1       4.498  25.036  50.865  1.00  0.00     0.278 HD
HETATM   11  C   UNL     1       4.742  28.048  49.373  1.00  0.00    -0.026 A 
HETATM   12  C   UNL     1       5.104  28.803  50.509  1.00  0.00    -0.048 A 
HETATM   13  C   UNL     1       4.705  28.666  48.114  1.00  0.00     0.009 A 
HETATM   14  C   UNL     1       5.457  30.151  50.352  1.00  0.00     0.008 A 
HETATM   15  C   UNL     1       5.190  28.176  51.883  1.00  0.00     0.082 C 
HETATM   16  C   UNL     1       5.429  30.749  49.093  1.00  0.00     0.001 A 
HETATM   17  C   UNL     1       5.050  30.009  47.976  1.00  0.00     0.001 A 
ENDBRANCH   3   6
ENDBRANCH   1   2
BRANCH   1  18
HETATM   18  C   UNL     1       6.279  27.180  56.501  1.00  0.00     0.241 C 
HETATM   19  N   UNL     1       7.483  27.762  56.783  1.00  0.00    -0.353 N 
HETATM   20  H   UNL     1       8.288  27.645  56.173  1.00  0.00     0.162 HD
HETATM   21  O   UNL     1       5.265  27.400  57.174  1.00  0.00    -0.271 OA
BRANCH  19  22
HETATM   22  C   UNL     1       7.605  28.758  57.826  1.00  0.00     0.187 C 
BRANCH  22  23
HETATM   23  C   UNL     1       8.894  29.480  57.690  1.00  0.00     0.070 A 
HETATM   24  O   UNL     1       9.010  30.669  58.351  1.00  0.00    -0.325 OA
HETATM   25  C   UNL     1      10.257  31.144  58.101  1.00  0.00     0.142 A 
HETATM   26  C   UNL     1      10.951  30.273  57.298  1.00  0.00     0.027 A 
HETATM   27  C   UNL     1      10.071  29.196  57.029  1.00  0.00     0.036 A 
ENDBRANCH  22  23
ENDBRANCH  19  22
ENDBRANCH   1  18
BRANCH   1  28
HETATM   28  C   UNL     1       7.644  25.591  54.968  1.00  0.00     0.075 C 
BRANCH  28  29
HETATM   29  C   UNL     1       7.954  24.219  55.491  1.00  0.00    -0.028 A 
HETATM   30  C   UNL     1       8.004  23.007  54.726  1.00  0.00    -0.002 A 
HETATM   31  C   UNL     1       8.222  21.958  55.618  1.00  0.00     0.042 A 
HETATM   32  C   UNL     1       7.858  22.700  53.357  1.00  0.00     0.014 A 
HETATM   33  C   UNL     1       8.295  20.619  55.215  1.00  0.00     0.030 A 
HETATM   34  N   UNL     1       8.320  22.506  56.874  1.00  0.00    -0.365 N 
HETATM   35  C   UNL     1       8.141  20.342  53.854  1.00  0.00     0.002 A 
HETATM   36  C   UNL     1       7.929  21.367  52.935  1.00  0.00     0.001 A 
HETATM   37  H   UNL     1       8.464  21.970  57.721  1.00  0.00     0.165 HD
HETATM   38  C   UNL     1       8.149  23.864  56.812  1.00  0.00     0.096 A 
ENDBRANCH  28  29
ENDBRANCH   1  28
TORSDOF 7
ENDMDL
MODEL 3
REMARK VINA RESULT:     -10.3      1.580      6.707
REMARK  7 active torsions:
REMARK  status: ('A' for Active; 'I' for Inactive)
REMARK    1  A    between atoms: C_9  and  C_10 
REMARK       I    between atoms: C_10  and  N_11 
REMARK    2  A    between atoms: N_11  and  C_12 
REMARK    3  A    between atoms: C_12  and  C_13 
REMARK    4  A    between atoms: C_12  and  C_22 
REMARK       I    between atoms: C_13  and  N_14 
REMARK    5  A    between atoms: N_14  and  C_15 
REMARK    6  A    between atoms: C_15  and  C_16 
REMARK    7  A    between atoms: C_22  and  C_23 
ROOT
HETATM    1  C   UNL     1       5.595  28.432  54.747  1.00  0.00     0.180 C 
ENDROOT
BRANCH   1   2
HETATM    2  N   UNL     1       5.925  27.052  55.189  1.00  0.00    -0.346 N 
HETATM    3  C   UNL     1       6.841  26.283  54.512  1.00  0.00     0.249 C 
HETATM    4  O   UNL     1       7.636  26.713  53.677  1.00  0.00    -0.271 OA
HETATM    5  H   UNL     1       5.126  26.572  55.594  1.00  0.00     0.163 HD
BRANCH   3   6
HETATM    6  C   UNL     1       6.916  24.800  54.893  1.00  0.00     0.281 C 
HETATM    7  N   UNL     1       8.001  24.639  55.940  1.00  0.00    -0.058 N 
HETATM    8  C   UNL     1       8.129  23.257  56.443  1.00  0.00     0.272 C 
HETATM    9  H   UNL     1       8.885  24.954  55.510  1.00  0.00     0.278 HD
HETATM   10  H   UNL     1       7.841  25.310  56.702  1.00  0.00     0.278 HD
HETATM   11  C   UNL     1       8.226  22.256  55.331  1.00  0.00    -0.026 A 
HETATM   12  C   UNL     1       7.787  22.567  54.027  1.00  0.00    -0.048 A 
HETATM   13  C   UNL     1       8.727  20.975  55.606  1.00  0.00     0.009 A 
HETATM   14  C   UNL     1       7.896  21.600  53.018  1.00  0.00     0.008 A 
HETATM   15  C   UNL     1       7.268  23.943  53.673  1.00  0.00     0.082 C 
HETATM   16  C   UNL     1       8.409  20.335  53.302  1.00  0.00     0.001 A 
HETATM   17  C   UNL     1       8.820  20.021  54.593  1.00  0.00     0.001 A 
ENDBRANCH   3   6
ENDBRANCH   1   2
BRANCH   1  18
HETATM   18  C   UNL     1       6.070  29.366  55.886  1.00  0.00     0.241 C 
HETATM   19  N   UNL     1       6.834  28.801  56.868  1.00  0.00    -0.353 N 
HETATM   20  H   UNL     1       7.211  27.861  56.776  1.00  0.00     0.162 HD
HETATM   21  O   UNL     1       5.696  30.544  55.935  1.00  0.00    -0.271 OA
BRANCH  19  22
HETATM   22  C   UNL     1       7.339  29.592  57.970  1.00  0.00     0.187 C 
BRANCH  22  23
HETATM   23  C   UNL     1       8.771  29.910  57.753  1.00  0.00     0.070 A 
HETATM   24  O   UNL     1       9.238  31.069  58.304  1.00  0.00    -0.325 OA
HETATM   25  C   UNL     1      10.557  31.154  57.995  1.00  0.00     0.142 A 
HETATM   26  C   UNL     1      10.951  30.060  57.263  1.00  0.00     0.027 A 
HETATM   27  C   UNL     1       9.797  29.255  57.103  1.00  0.00     0.036 A 
ENDBRANCH  22  23
ENDBRANCH  19  22
ENDBRANCH   1  18
BRANCH   1  28
HETATM   28  C   UNL     1       4.122  28.615  54.344  1.00  0.00     0.075 C 
BRANCH  28  29
HETATM   29  C   UNL     1       3.896  28.922  52.893  1.00  0.00    -0.028 A 
HETATM   30  C   UNL     1       4.232  28.079  51.782  1.00  0.00    -0.002 A 
HETATM   31  C   UNL     1       3.948  28.791  50.616  1.00  0.00     0.042 A 
HETATM   32  C   UNL     1       4.777  26.784  51.658  1.00  0.00     0.014 A 
HETATM   33  C   UNL     1       4.186  28.278  49.336  1.00  0.00     0.030 A 
HETATM   34  N   UNL     1       3.442  30.010  50.998  1.00  0.00    -0.365 N 
HETATM   35  C   UNL     1       4.731  26.995  49.241  1.00  0.00     0.002 A 
HETATM   36  C   UNL     1       5.021  26.255  50.385  1.00  0.00     0.001 A 
HETATM   37  H   UNL     1       3.164  30.739  50.352  1.00  0.00     0.165 HD
HETATM   38  C   UNL     1       3.417  30.105  52.364  1.00  0.00     0.096 A 
ENDBRANCH  28  29
ENDBRANCH   1  28
TORSDOF 7
ENDMDL
MODEL 4
REMARK VINA RESULT:     -10.3      3.996      7.883
REMARK  7 active torsions:
REMARK  status: ('A' for Active; 'I' for Inactive)
REMARK    1  A    between atoms: C_9  and  C_10 
REMARK       I    between atoms: C_10  and  N_11 
REMARK    2  A    between atoms: N_11  and  C_12 
REMARK    3  A    between atoms: C_12  and  C_13 
REMARK    4  A    between atoms: C_12  and  C_22 
REMARK       I    between atoms: C_13  and  N_14 
REMARK    5  A    between atoms: N_14  and  C_15 
REMARK    6  A    between atoms: C_15  and  C_16 
REMARK    7  A    between atoms: C_22  and  C_23 
ROOT
HETATM    1  C   UNL     1       6.841  28.227  56.473  1.00  0.00     0.180 C 
ENDROOT
BRANCH   1   2
HETATM    2  N   UNL     1       6.635  26.764  56.310  1.00  0.00    -0.346 N 
HETATM    3  C   UNL     1       7.275  25.857  57.119  1.00  0.00     0.249 C 
HETATM    4  O   UNL     1       7.847  26.137  58.171  1.00  0.00    -0.271 OA
HETATM    5  H   UNL     1       6.488  26.498  55.340  1.00  0.00     0.163 HD
BRANCH   3   6
HETATM    6  C   UNL     1       7.194  24.383  56.704  1.00  0.00     0.281 C 
HETATM    7  N   UNL     1       8.309  23.636  57.412  1.00  0.00    -0.058 N 
HETATM    8  C   UNL     1       8.301  22.184  57.146  1.00  0.00     0.272 C 
HETATM    9  H   UNL     1       9.199  24.058  57.103  1.00  0.00     0.278 HD
HETATM   10  H   UNL     1       8.270  23.841  58.418  1.00  0.00     0.278 HD
HETATM   11  C   UNL     1       8.218  21.876  55.681  1.00  0.00    -0.026 A 
HETATM   12  C   UNL     1       7.748  22.833  54.758  1.00  0.00    -0.048 A 
HETATM   13  C   UNL     1       8.579  20.597  55.229  1.00  0.00     0.009 A 
HETATM   14  C   UNL     1       7.687  22.502  53.397  1.00  0.00     0.008 A 
HETATM   15  C   UNL     1       7.376  24.235  55.190  1.00  0.00     0.082 C 
HETATM   16  C   UNL     1       8.063  21.232  52.960  1.00  0.00     0.001 A 
HETATM   17  C   UNL     1       8.504  20.280  53.874  1.00  0.00     0.001 A 
ENDBRANCH   3   6
ENDBRANCH   1   2
BRANCH   1  18
HETATM   18  C   UNL     1       5.526  28.895  56.005  1.00  0.00     0.241 C 
HETATM   19  N   UNL     1       5.631  30.140  55.449  1.00  0.00    -0.353 N 
HETATM   20  H   UNL     1       6.532  30.539  55.203  1.00  0.00     0.162 HD
HETATM   21  O   UNL     1       4.433  28.353  56.210  1.00  0.00    -0.271 OA
BRANCH  19  22
HETATM   22  C   UNL     1       4.461  30.844  54.969  1.00  0.00     0.187 C 
BRANCH  22  23
HETATM   23  C   UNL     1       4.089  31.918  55.921  1.00  0.00     0.070 A 
HETATM   24  O   UNL     1       3.518  33.042  55.395  1.00  0.00    -0.325 OA
HETATM   25  C   UNL     1       3.251  33.877  56.431  1.00  0.00     0.142 A 
HETATM   26  C   UNL     1       3.631  33.303  57.620  1.00  0.00     0.027 A 
HETATM   27  C   UNL     1       4.175  32.037  57.293  1.00  0.00     0.036 A 
ENDBRANCH  22  23
ENDBRANCH  19  22
ENDBRANCH   1  18
BRANCH   1  28
HETATM   28  C   UNL     1       8.107  28.753  55.775  1.00  0.00     0.075 C 
BRANCH  28  29
HETATM   29  C   UNL     1       9.063  29.487  56.668  1.00  0.00    -0.028 A 
HETATM   30  C   UNL     1       8.716  30.336  57.772  1.00  0.00    -0.002 A 
HETATM   31  C   UNL     1       9.898  30.895  58.257  1.00  0.00     0.042 A 
HETATM   32  C   UNL     1       7.502  30.701  58.389  1.00  0.00     0.014 A 
HETATM   33  C   UNL     1       9.928  31.805  59.321  1.00  0.00     0.030 A 
HETATM   34  N   UNL     1      10.927  30.396  57.495  1.00  0.00    -0.365 N 
HETATM   35  C   UNL     1       8.711  32.154  59.911  1.00  0.00     0.002 A 
HETATM   36  C   UNL     1       7.513  31.609  59.456  1.00  0.00     0.001 A 
HETATM   37  H   UNL     1      11.900  30.647  57.617  1.00  0.00     0.165 HD
HETATM   38  C   UNL     1      10.436  29.558  56.529  1.00  0.00     0.096 A 
ENDBRANCH  28  29
ENDBRANCH   1  28
TORSDOF 7
ENDMDL
MODEL 5
REMARK VINA RESULT:     -10.2      2.327      8.213
REMARK  7 active torsions:
REMARK  status: ('A' for Active; 'I' for Inactive)
REMARK    1  A    between atoms: C_9  and  C_10 
REMARK       I    between atoms: C_10  and  N_11 
REMARK    2  A    between atoms: N_11  and  C_12 
REMARK    3  A    between atoms: C_12  and  C_13 
REMARK    4  A    between atoms: C_12  and  C_22 
REMARK       I    between atoms: C_13  and  N_14 
REMARK    5  A    between atoms: N_14  and  C_15 
REMARK    6  A    between atoms: C_15  and  C_16 
REMARK    7  A    between atoms: C_22  and  C_23 
ROOT
HETATM    1  C   UNL     1       6.177  27.504  54.847  1.00  0.00     0.180 C 
ENDROOT
BRANCH   1   2
HETATM    2  N   UNL     1       6.012  28.346  56.060  1.00  0.00    -0.346 N 
HETATM    3  C   UNL     1       7.039  29.123  56.538  1.00  0.00     0.249 C 
HETATM    4  O   UNL     1       8.061  29.397  55.910  1.00  0.00    -0.271 OA
HETATM    5  H   UNL     1       5.392  27.923  56.746  1.00  0.00     0.163 HD
BRANCH   3   6
HETATM    6  C   UNL     1       6.848  29.746  57.926  1.00  0.00     0.281 C 
HETATM    7  N   UNL     1       6.351  31.166  57.738  1.00  0.00    -0.058 N 
HETATM    8  C   UNL     1       6.063  31.860  59.008  1.00  0.00     0.272 C 
HETATM    9  H   UNL     1       7.076  31.672  57.204  1.00  0.00     0.278 HD
HETATM   10  H   UNL     1       5.537  31.162  57.111  1.00  0.00     0.278 HD
HETATM   11  C   UNL     1       7.197  31.753  59.983  1.00  0.00    -0.026 A 
HETATM   12  C   UNL     1       8.178  30.747  59.856  1.00  0.00    -0.048 A 
HETATM   13  C   UNL     1       7.260  32.648  61.062  1.00  0.00     0.009 A 
HETATM   14  C   UNL     1       9.222  30.684  60.790  1.00  0.00     0.008 A 
HETATM   15  C   UNL     1       8.174  29.778  58.694  1.00  0.00     0.082 C 
HETATM   16  C   UNL     1       9.279  31.590  61.849  1.00  0.00     0.001 A 
HETATM   17  C   UNL     1       8.298  32.567  61.987  1.00  0.00     0.001 A 
ENDBRANCH   3   6
ENDBRANCH   1   2
BRANCH   1  18
HETATM   18  C   UNL     1       5.373  28.209  53.728  1.00  0.00     0.241 C 
HETATM   19  N   UNL     1       6.072  28.599  52.619  1.00  0.00    -0.353 N 
HETATM   20  H   UNL     1       7.030  28.297  52.460  1.00  0.00     0.162 HD
HETATM   21  O   UNL     1       4.176  28.478  53.883  1.00  0.00    -0.271 OA
BRANCH  19  22
HETATM   22  C   UNL     1       5.410  29.255  51.512  1.00  0.00     0.187 C 
BRANCH  22  23
HETATM   23  C   UNL     1       5.029  28.255  50.485  1.00  0.00     0.070 A 
HETATM   24  O   UNL     1       4.544  28.737  49.303  1.00  0.00    -0.325 OA
HETATM   25  C   UNL     1       4.273  27.665  48.516  1.00  0.00     0.142 A 
HETATM   26  C   UNL     1       4.586  26.498  49.169  1.00  0.00     0.027 A 
HETATM   27  C   UNL     1       5.074  26.877  50.444  1.00  0.00     0.036 A 
ENDBRANCH  22  23
ENDBRANCH  19  22
ENDBRANCH   1  18
BRANCH   1  28
HETATM   28  C   UNL     1       5.806  26.027  55.066  1.00  0.00     0.075 C 
BRANCH  28  29
HETATM   29  C   UNL     1       6.950  25.137  55.452  1.00  0.00    -0.028 A 
HETATM   30  C   UNL     1       7.493  24.062  54.672  1.00  0.00    -0.002 A 
HETATM   31  C   UNL     1       8.470  23.436  55.445  1.00  0.00     0.042 A 
HETATM   32  C   UNL     1       7.225  23.546  53.387  1.00  0.00     0.014 A 
HETATM   33  C   UNL     1       9.188  22.318  55.004  1.00  0.00     0.030 A 
HETATM   34  N   UNL     1       8.536  24.111  56.640  1.00  0.00    -0.365 N 
HETATM   35  C   UNL     1       8.899  21.824  53.729  1.00  0.00     0.002 A 
HETATM   36  C   UNL     1       7.935  22.429  52.928  1.00  0.00     0.001 A 
HETATM   37  H   UNL     1       9.153  23.860  57.403  1.00  0.00     0.165 HD
HETATM   38  C   UNL     1       7.619  25.128  56.661  1.00  0.00     0.096 A 
ENDBRANCH  28  29
ENDBRANCH   1  28
TORSDOF 7
ENDMDL
MODEL 6
REMARK VINA RESULT:     -10.2      2.394      8.044
REMARK  7 active torsions:
REMARK  status: ('A' for Active; 'I' for Inactive)
REMARK    1  A    between atoms: C_9  and  C_10 
REMARK       I    between atoms: C_10  and  N_11 
REMARK    2  A    between atoms: N_11  and  C_12 
REMARK    3  A    between atoms: C_12  and  C_13 
REMARK    4  A    between atoms: C_12  and  C_22 
REMARK       I    between atoms: C_13  and  N_14 
REMARK    5  A    between atoms: N_14  and  C_15 
REMARK    6  A    between atoms: C_15  and  C_16 
REMARK    7  A    between atoms: C_22  and  C_23 
ROOT
HETATM    1  C   UNL     1       6.787  28.226  56.487  1.00  0.00     0.180 C 
ENDROOT
BRANCH   1   2
HETATM    2  N   UNL     1       6.587  26.761  56.336  1.00  0.00    -0.346 N 
HETATM    3  C   UNL     1       7.254  25.862  57.132  1.00  0.00     0.249 C 
HETATM    4  O   UNL     1       7.852  26.151  58.167  1.00  0.00    -0.271 OA
HETATM    5  H   UNL     1       6.415  26.490  55.372  1.00  0.00     0.163 HD
BRANCH   3   6
HETATM    6  C   UNL     1       7.173  24.386  56.726  1.00  0.00     0.281 C 
HETATM    7  N   UNL     1       8.286  23.642  57.438  1.00  0.00    -0.058 N 
HETATM    8  C   UNL     1       8.277  22.188  57.182  1.00  0.00     0.272 C 
HETATM    9  H   UNL     1       9.177  24.061  57.128  1.00  0.00     0.278 HD
HETATM   10  H   UNL     1       8.247  23.853  58.444  1.00  0.00     0.278 HD
HETATM   11  C   UNL     1       8.195  21.872  55.718  1.00  0.00    -0.026 A 
HETATM   12  C   UNL     1       7.727  22.824  54.789  1.00  0.00    -0.048 A 
HETATM   13  C   UNL     1       8.555  20.590  55.274  1.00  0.00     0.009 A 
HETATM   14  C   UNL     1       7.666  22.485  53.430  1.00  0.00     0.008 A 
HETATM   15  C   UNL     1       7.356  24.228  55.213  1.00  0.00     0.082 C 
HETATM   16  C   UNL     1       8.042  21.212  53.001  1.00  0.00     0.001 A 
HETATM   17  C   UNL     1       8.481  20.265  53.921  1.00  0.00     0.001 A 
ENDBRANCH   3   6
ENDBRANCH   1   2
BRANCH   1  18
HETATM   18  C   UNL     1       5.466  28.885  56.021  1.00  0.00     0.241 C 
HETATM   19  N   UNL     1       5.568  29.875  55.085  1.00  0.00    -0.353 N 
HETATM   20  H   UNL     1       6.441  30.059  54.596  1.00  0.00     0.162 HD
HETATM   21  O   UNL     1       4.388  28.580  56.544  1.00  0.00    -0.271 OA
BRANCH  19  22
HETATM   22  C   UNL     1       4.392  30.545  54.574  1.00  0.00     0.187 C 
BRANCH  22  23
HETATM   23  C   UNL     1       4.067  30.039  53.219  1.00  0.00     0.070 A 
HETATM   24  O   UNL     1       4.817  28.999  52.750  1.00  0.00    -0.325 OA
HETATM   25  C   UNL     1       4.348  28.693  51.514  1.00  0.00     0.142 A 
HETATM   26  C   UNL     1       3.297  29.513  51.183  1.00  0.00     0.027 A 
HETATM   27  C   UNL     1       3.114  30.386  52.283  1.00  0.00     0.036 A 
ENDBRANCH  22  23
ENDBRANCH  19  22
ENDBRANCH   1  18
BRANCH   1  28
HETATM   28  C   UNL     1       8.047  28.753  55.779  1.00  0.00     0.075 C 
BRANCH  28  29
HETATM   29  C   UNL     1       9.008  29.491  56.663  1.00  0.00    -0.028 A 
HETATM   30  C   UNL     1       8.669  30.331  57.776  1.00  0.00    -0.002 A 
HETATM   31  C   UNL     1       9.852  30.898  58.248  1.00  0.00     0.042 A 
HETATM   32  C   UNL     1       7.459  30.683  58.411  1.00  0.00     0.014 A 
HETATM   33  C   UNL     1       9.888  31.803  59.316  1.00  0.00     0.030 A 
HETATM   34  N   UNL     1      10.875  30.412  57.470  1.00  0.00    -0.365 N 
HETATM   35  C   UNL     1       8.675  32.138  59.924  1.00  0.00     0.002 A 
HETATM   36  C   UNL     1       7.477  31.585  59.482  1.00  0.00     0.001 A 
HETATM   37  H   UNL     1      11.847  30.671  57.580  1.00  0.00     0.165 HD
HETATM   38  C   UNL     1      10.379  29.574  56.506  1.00  0.00     0.096 A 
ENDBRANCH  28  29
ENDBRANCH   1  28
TORSDOF 7
ENDMDL
MODEL 7
REMARK VINA RESULT:     -10.2      1.743      7.881
REMARK  7 active torsions:
REMARK  status: ('A' for Active; 'I' for Inactive)
REMARK    1  A    between atoms: C_9  and  C_10 
REMARK       I    between atoms: C_10  and  N_11 
REMARK    2  A    between atoms: N_11  and  C_12 
REMARK    3  A    between atoms: C_12  and  C_13 
REMARK    4  A    between atoms: C_12  and  C_22 
REMARK       I    between atoms: C_13  and  N_14 
REMARK    5  A    between atoms: N_14  and  C_15 
REMARK    6  A    between atoms: C_15  and  C_16 
REMARK    7  A    between atoms: C_22  and  C_23 
ROOT
HETATM    1  C   UNL     1       6.364  26.394  52.957  1.00  0.00     0.180 C 
ENDROOT
BRANCH   1   2
HETATM    2  N   UNL     1       6.393  27.156  54.232  1.00  0.00    -0.346 N 
HETATM    3  C   UNL     1       7.467  27.943  54.572  1.00  0.00     0.249 C 
HETATM    4  O   UNL     1       8.353  28.293  53.794  1.00  0.00    -0.271 OA
HETATM    5  H   UNL     1       5.916  26.670  54.987  1.00  0.00     0.163 HD
BRANCH   3   6
HETATM    6  C   UNL     1       7.506  28.476  56.010  1.00  0.00     0.281 C 
HETATM    7  N   UNL     1       6.337  29.425  56.190  1.00  0.00    -0.058 N 
HETATM    8  C   UNL     1       6.223  29.960  57.561  1.00  0.00     0.272 C 
HETATM    9  H   UNL     1       6.462  30.191  55.509  1.00  0.00     0.278 HD
HETATM   10  H   UNL     1       5.472  28.960  55.887  1.00  0.00     0.278 HD
HETATM   11  C   UNL     1       7.521  30.517  58.062  1.00  0.00    -0.026 A 
HETATM   12  C   UNL     1       8.750  30.150  57.475  1.00  0.00    -0.048 A 
HETATM   13  C   UNL     1       7.513  31.392  59.160  1.00  0.00     0.009 A 
HETATM   14  C   UNL     1       9.940  30.696  57.975  1.00  0.00     0.008 A 
HETATM   15  C   UNL     1       8.811  29.236  56.271  1.00  0.00     0.082 C 
HETATM   16  C   UNL     1       9.916  31.575  59.058  1.00  0.00     0.001 A 
HETATM   17  C   UNL     1       8.705  31.919  59.651  1.00  0.00     0.001 A 
ENDBRANCH   3   6
ENDBRANCH   1   2
BRANCH   1  18
HETATM   18  C   UNL     1       5.504  27.232  51.981  1.00  0.00     0.241 C 
HETATM   19  N   UNL     1       5.719  27.034  50.645  1.00  0.00    -0.353 N 
HETATM   20  H   UNL     1       6.289  26.264  50.306  1.00  0.00     0.162 HD
HETATM   21  O   UNL     1       4.728  28.096  52.404  1.00  0.00    -0.271 OA
BRANCH  19  22
HETATM   22  C   UNL     1       4.958  27.759  49.651  1.00  0.00     0.187 C 
BRANCH  22  23
HETATM   23  C   UNL     1       4.225  26.808  48.780  1.00  0.00     0.070 A 
HETATM   24  O   UNL     1       3.926  25.587  49.312  1.00  0.00    -0.325 OA
HETATM   25  C   UNL     1       3.253  24.891  48.360  1.00  0.00     0.142 A 
HETATM   26  C   UNL     1       3.104  25.650  47.225  1.00  0.00     0.027 A 
HETATM   27  C   UNL     1       3.734  26.890  47.493  1.00  0.00     0.036 A 
ENDBRANCH  22  23
ENDBRANCH  19  22
ENDBRANCH   1  18
BRANCH   1  28
HETATM   28  C   UNL     1       5.905  24.935  53.122  1.00  0.00     0.075 C 
BRANCH  28  29
HETATM   29  C   UNL     1       6.613  24.165  54.197  1.00  0.00    -0.028 A 
HETATM   30  C   UNL     1       7.343  22.942  54.029  1.00  0.00    -0.002 A 
HETATM   31  C   UNL     1       7.748  22.519  55.295  1.00  0.00     0.042 A 
HETATM   32  C   UNL     1       7.676  22.139  52.918  1.00  0.00     0.014 A 
HETATM   33  C   UNL     1       8.461  21.333  55.508  1.00  0.00     0.030 A 
HETATM   34  N   UNL     1       7.301  23.453  56.198  1.00  0.00    -0.365 N 
HETATM   35  C   UNL     1       8.773  20.554  54.391  1.00  0.00     0.002 A 
HETATM   36  C   UNL     1       8.390  20.950  53.113  1.00  0.00     0.001 A 
HETATM   37  H   UNL     1       7.440  23.391  57.198  1.00  0.00     0.165 HD
HETATM   38  C   UNL     1       6.608  24.442  55.551  1.00  0.00     0.096 A 
ENDBRANCH  28  29
ENDBRANCH   1  28
TORSDOF 7
ENDMDL
MODEL 8
REMARK VINA RESULT:     -10.1      2.369      8.418
REMARK  7 active torsions:
REMARK  status: ('A' for Active; 'I' for Inactive)
REMARK    1  A    between atoms: C_9  and  C_10 
REMARK       I    between atoms: C_10  and  N_11 
REMARK    2  A    between atoms: N_11  and  C_12 
REMARK    3  A    between atoms: C_12  and  C_13 
REMARK    4  A    between atoms: C_12  and  C_22 
REMARK       I    between atoms: C_13  and  N_14 
REMARK    5  A    between atoms: N_14  and  C_15 
REMARK    6  A    between atoms: C_15  and  C_16 
REMARK    7  A    between atoms: C_22  and  C_23 
ROOT
HETATM    1  C   UNL     1       6.146  28.340  57.128  1.00  0.00     0.180 C 
ENDROOT
BRANCH   1   2
HETATM    2  N   UNL     1       6.417  26.879  57.109  1.00  0.00    -0.346 N 
HETATM    3  C   UNL     1       7.123  26.295  56.084  1.00  0.00     0.249 C 
HETATM    4  O   UNL     1       7.793  26.910  55.256  1.00  0.00    -0.271 OA
HETATM    5  H   UNL     1       5.661  26.338  57.519  1.00  0.00     0.163 HD
BRANCH   3   6
HETATM    6  C   UNL     1       7.123  24.763  56.030  1.00  0.00     0.281 C 
HETATM    7  N   UNL     1       8.266  24.264  56.894  1.00  0.00    -0.058 N 
HETATM    8  C   UNL     1       8.336  22.792  56.980  1.00  0.00     0.272 C 
HETATM    9  H   UNL     1       9.137  24.648  56.494  1.00  0.00     0.278 HD
HETATM   10  H   UNL     1       8.204  24.699  57.823  1.00  0.00     0.278 HD
HETATM   11  C   UNL     1       8.287  22.143  55.630  1.00  0.00    -0.026 A 
HETATM   12  C   UNL     1       7.781  22.829  54.506  1.00  0.00    -0.048 A 
HETATM   13  C   UNL     1       8.719  20.815  55.493  1.00  0.00     0.009 A 
HETATM   14  C   UNL     1       7.754  22.182  53.262  1.00  0.00     0.008 A 
HETATM   15  C   UNL     1       7.332  24.271  54.594  1.00  0.00     0.082 C 
HETATM   16  C   UNL     1       8.200  20.867  53.138  1.00  0.00     0.001 A 
HETATM   17  C   UNL     1       8.678  20.183  54.252  1.00  0.00     0.001 A 
ENDBRANCH   3   6
ENDBRANCH   1   2
BRANCH   1  18
HETATM   18  C   UNL     1       5.535  28.676  55.746  1.00  0.00     0.241 C 
HETATM   19  N   UNL     1       4.652  27.772  55.226  1.00  0.00    -0.353 N 
HETATM   20  H   UNL     1       4.287  27.003  55.782  1.00  0.00     0.162 HD
HETATM   21  O   UNL     1       5.905  29.675  55.118  1.00  0.00    -0.271 OA
BRANCH  19  22
HETATM   22  C   UNL     1       4.017  27.999  53.946  1.00  0.00     0.187 C 
BRANCH  22  23
HETATM   23  C   UNL     1       4.583  27.082  52.928  1.00  0.00     0.070 A 
HETATM   24  O   UNL     1       4.510  25.744  53.192  1.00  0.00    -0.325 OA
HETATM   25  C   UNL     1       5.069  25.098  52.137  1.00  0.00     0.142 A 
HETATM   26  C   UNL     1       5.491  25.999  51.190  1.00  0.00     0.027 A 
HETATM   27  C   UNL     1       5.180  27.283  51.700  1.00  0.00     0.036 A 
ENDBRANCH  22  23
ENDBRANCH  19  22
ENDBRANCH   1  18
BRANCH   1  28
HETATM   28  C   UNL     1       7.371  29.189  57.508  1.00  0.00     0.075 C 
BRANCH  28  29
HETATM   29  C   UNL     1       7.067  30.405  58.333  1.00  0.00    -0.028 A 
HETATM   30  C   UNL     1       7.785  30.847  59.494  1.00  0.00    -0.002 A 
HETATM   31  C   UNL     1       7.107  31.952  60.009  1.00  0.00     0.042 A 
HETATM   32  C   UNL     1       8.935  30.394  60.172  1.00  0.00     0.014 A 
HETATM   33  C   UNL     1       7.516  32.622  61.168  1.00  0.00     0.030 A 
HETATM   34  N   UNL     1       6.032  32.188  59.187  1.00  0.00    -0.365 N 
HETATM   35  C   UNL     1       8.656  32.149  61.823  1.00  0.00     0.002 A 
HETATM   36  C   UNL     1       9.360  31.053  61.333  1.00  0.00     0.001 A 
HETATM   37  H   UNL     1       5.354  32.926  59.333  1.00  0.00     0.165 HD
HETATM   38  C   UNL     1       5.990  31.258  58.183  1.00  0.00     0.096 A 
ENDBRANCH  28  29
ENDBRANCH   1  28
TORSDOF 7
ENDMDL
MODEL 9
REMARK VINA RESULT:      -9.9      2.307      2.782
REMARK  7 active torsions:
REMARK  status: ('A' for Active; 'I' for Inactive)
REMARK    1  A    between atoms: C_9  and  C_10 
REMARK       I    between atoms: C_10  and  N_11 
REMARK    2  A    between atoms: N_11  and  C_12 
REMARK    3  A    between atoms: C_12  and  C_13 
REMARK    4  A    between atoms: C_12  and  C_22 
REMARK       I    between atoms: C_13  and  N_14 
REMARK    5  A    between atoms: N_14  and  C_15 
REMARK    6  A    between atoms: C_15  and  C_16 
REMARK    7  A    between atoms: C_22  and  C_23 
ROOT
HETATM    1  C   UNL     1       6.326  25.519  55.429  1.00  0.00     0.180 C 
ENDROOT
BRANCH   1   2
HETATM    2  N   UNL     1       6.213  26.219  54.124  1.00  0.00    -0.346 N 
HETATM    3  C   UNL     1       5.475  25.693  53.091  1.00  0.00     0.249 C 
HETATM    4  O   UNL     1       4.662  24.777  53.206  1.00  0.00    -0.271 OA
HETATM    5  H   UNL     1       7.060  26.724  53.878  1.00  0.00     0.163 HD
BRANCH   3   6
HETATM    6  C   UNL     1       5.633  26.359  51.719  1.00  0.00     0.281 C 
HETATM    7  N   UNL     1       5.316  27.834  51.874  1.00  0.00    -0.058 N 
HETATM    8  C   UNL     1       5.497  28.606  50.629  1.00  0.00     0.272 C 
HETATM    9  H   UNL     1       4.341  27.900  52.205  1.00  0.00     0.278 HD
HETATM   10  H   UNL     1       5.870  28.221  52.648  1.00  0.00     0.278 HD
HETATM   11  C   UNL     1       4.802  27.970  49.462  1.00  0.00    -0.026 A 
HETATM   12  C   UNL     1       4.438  26.607  49.481  1.00  0.00    -0.048 A 
HETATM   13  C   UNL     1       4.545  28.739  48.316  1.00  0.00     0.009 A 
HETATM   14  C   UNL     1       3.790  26.054  48.368  1.00  0.00     0.008 A 
HETATM   15  C   UNL     1       4.664  25.744  50.703  1.00  0.00     0.082 C 
HETATM   16  C   UNL     1       3.528  26.834  47.242  1.00  0.00     0.001 A 
HETATM   17  C   UNL     1       3.908  28.172  47.214  1.00  0.00     0.001 A 
ENDBRANCH   3   6
ENDBRANCH   1   2
BRANCH   1  18
HETATM   18  C   UNL     1       5.558  26.395  56.448  1.00  0.00     0.241 C 
HETATM   19  N   UNL     1       5.767  27.744  56.383  1.00  0.00    -0.353 N 
HETATM   20  H   UNL     1       6.267  28.169  55.606  1.00  0.00     0.162 HD
HETATM   21  O   UNL     1       4.861  25.877  57.328  1.00  0.00    -0.271 OA
BRANCH  19  22
HETATM   22  C   UNL     1       5.087  28.650  57.283  1.00  0.00     0.187 C 
BRANCH  22  23
HETATM   23  C   UNL     1       4.270  29.616  56.509  1.00  0.00     0.070 A 
HETATM   24  O   UNL     1       4.371  29.561  55.148  1.00  0.00    -0.325 OA
HETATM   25  C   UNL     1       3.541  30.511  54.647  1.00  0.00     0.142 A 
HETATM   26  C   UNL     1       2.896  31.171  55.666  1.00  0.00     0.027 A 
HETATM   27  C   UNL     1       3.367  30.595  56.871  1.00  0.00     0.036 A 
ENDBRANCH  22  23
ENDBRANCH  19  22
ENDBRANCH   1  18
BRANCH   1  28
HETATM   28  C   UNL     1       7.775  25.195  55.831  1.00  0.00     0.075 C 
BRANCH  28  29
HETATM   29  C   UNL     1       8.087  23.733  55.951  1.00  0.00    -0.028 A 
HETATM   30  C   UNL     1       8.076  22.769  54.888  1.00  0.00    -0.002 A 
HETATM   31  C   UNL     1       8.321  21.519  55.453  1.00  0.00     0.042 A 
HETATM   32  C   UNL     1       7.853  22.842  53.497  1.00  0.00     0.014 A 
HETATM   33  C   UNL     1       8.348  20.337  54.703  1.00  0.00     0.030 A 
HETATM   34  N   UNL     1       8.494  21.710  56.803  1.00  0.00    -0.365 N 
HETATM   35  C   UNL     1       8.120  20.436  53.328  1.00  0.00     0.002 A 
HETATM   36  C   UNL     1       7.879  21.670  52.730  1.00  0.00     0.001 A 
HETATM   37  H   UNL     1       8.671  20.966  57.466  1.00  0.00     0.165 HD
HETATM   38  C   UNL     1       8.344  23.035  57.116  1.00  0.00     0.096 A 
ENDBRANCH  28  29
ENDBRANCH   1  28
TORSDOF 7
ENDMDL
MODEL 10
REMARK VINA RESULT:      -9.8      1.976      2.435
REMARK  7 active torsions:
REMARK  status: ('A' for Active; 'I' for Inactive)
REMARK    1  A    between atoms: C_9  and  C_10 
REMARK       I    between atoms: C_10  and  N_11 
REMARK    2  A    between atoms: N_11  and  C_12 
REMARK    3  A    between atoms: C_12  and  C_13 
REMARK    4  A    between atoms: C_12  and  C_22 
REMARK       I    between atoms: C_13  and  N_14 
REMARK    5  A    between atoms: N_14  and  C_15 
REMARK    6  A    between atoms: C_15  and  C_16 
REMARK    7  A    between atoms: C_22  and  C_23 
ROOT
HETATM    1  C   UNL     1       6.701  27.994  56.213  1.00  0.00     0.180 C 
ENDROOT
BRANCH   1   2
HETATM    2  N   UNL     1       6.677  28.490  54.812  1.00  0.00    -0.346 N 
HETATM    3  C   UNL     1       5.668  28.143  53.947  1.00  0.00     0.249 C 
HETATM    4  O   UNL     1       4.601  27.632  54.283  1.00  0.00    -0.271 OA
HETATM    5  H   UNL     1       7.609  28.594  54.421  1.00  0.00     0.163 HD
BRANCH   3   6
HETATM    6  C   UNL     1       5.873  28.494  52.468  1.00  0.00     0.281 C 
HETATM    7  N   UNL     1       5.118  29.778  52.183  1.00  0.00    -0.058 N 
HETATM    8  C   UNL     1       5.290  30.263  50.799  1.00  0.00     0.272 C 
HETATM    9  H   UNL     1       4.122  29.594  52.383  1.00  0.00     0.278 HD
HETATM   10  H   UNL     1       5.384  30.490  52.874  1.00  0.00     0.278 HD
HETATM   11  C   UNL     1       5.036  29.188  49.786  1.00  0.00    -0.026 A 
HETATM   12  C   UNL     1       5.087  27.823  50.139  1.00  0.00    -0.048 A 
HETATM   13  C   UNL     1       4.780  29.550  48.454  1.00  0.00     0.009 A 
HETATM   14  C   UNL     1       4.843  26.851  49.158  1.00  0.00     0.008 A 
HETATM   15  C   UNL     1       5.328  27.382  51.566  1.00  0.00     0.082 C 
HETATM   16  C   UNL     1       4.576  27.226  47.842  1.00  0.00     0.001 A 
HETATM   17  C   UNL     1       4.548  28.571  47.489  1.00  0.00     0.001 A 
ENDBRANCH   3   6
ENDBRANCH   1   2
BRANCH   1  18
HETATM   18  C   UNL     1       6.263  29.189  57.093  1.00  0.00     0.241 C 
HETATM   19  N   UNL     1       7.250  30.027  57.531  1.00  0.00    -0.353 N 
HETATM   20  H   UNL     1       8.197  29.971  57.166  1.00  0.00     0.162 HD
HETATM   21  O   UNL     1       5.085  29.316  57.447  1.00  0.00    -0.271 OA
BRANCH  19  22
HETATM   22  C   UNL     1       6.943  31.181  58.349  1.00  0.00     0.187 C 
BRANCH  22  23
HETATM   23  C   UNL     1       7.920  31.289  59.459  1.00  0.00     0.070 A 
HETATM   24  O   UNL     1       8.427  30.122  59.954  1.00  0.00    -0.325 OA
HETATM   25  C   UNL     1       9.298  30.451  60.942  1.00  0.00     0.142 A 
HETATM   26  C   UNL     1       9.369  31.816  61.084  1.00  0.00     0.027 A 
HETATM   27  C   UNL     1       8.477  32.360  60.128  1.00  0.00     0.036 A 
ENDBRANCH  22  23
ENDBRANCH  19  22
ENDBRANCH   1  18
BRANCH   1  28
HETATM   28  C   UNL     1       8.042  27.359  56.620  1.00  0.00     0.075 C 
BRANCH  28  29
HETATM   29  C   UNL     1       8.043  25.860  56.670  1.00  0.00    -0.028 A 
HETATM   30  C   UNL     1       7.873  24.970  55.556  1.00  0.00    -0.002 A 
HETATM   31  C   UNL     1       7.836  23.671  56.061  1.00  0.00     0.042 A 
HETATM   32  C   UNL     1       7.719  25.152  54.166  1.00  0.00     0.014 A 
HETATM   33  C   UNL     1       7.648  22.546  55.250  1.00  0.00     0.030 A 
HETATM   34  N   UNL     1       7.997  23.760  57.423  1.00  0.00    -0.365 N 
HETATM   35  C   UNL     1       7.494  22.754  53.877  1.00  0.00     0.002 A 
HETATM   36  C   UNL     1       7.532  24.037  53.339  1.00  0.00     0.001 A 
HETATM   37  H   UNL     1       7.994  22.965  58.050  1.00  0.00     0.165 HD
HETATM   38  C   UNL     1       8.110  25.071  57.802  1.00  0.00     0.096 A 
ENDBRANCH  28  29
ENDBRANCH   1  28
TORSDOF 7
ENDMDL
