MODEL 1
REMARK VINA RESULT:      -9.1      0.000      0.000
REMARK  5 active torsions:
REMARK  status: ('A' for Active; 'I' for Inactive)
REMARK    1  A    between atoms: C_5  and  S_6 
REMARK    2  A    between atoms: S_6  and  C_7 
REMARK    3  A    between atoms: C_7  and  C_8 
REMARK       I    between atoms: C_8  and  N_9 
REMARK    4  A    between atoms: N_9  and  C_10 
REMARK    5  A    between atoms: C_12  and  C_13 
ROOT
HETATM    1  C   UNL     1       7.398  26.398  57.468  1.00  0.00     0.231 C 
HETATM    2  N   UNL     1       7.511  27.683  56.971  1.00  0.00    -0.327 N 
HETATM    3  O   UNL     1       7.995  25.953  58.447  1.00  0.00    -0.272 OA
HETATM    4  H   UNL     1       6.995  27.862  56.113  1.00  0.00     0.169 HD
ENDROOT
BRANCH   2   5
HETATM    5  C   UNL     1       8.328  28.730  57.446  1.00  0.00     0.035 A 
HETATM    6  C   UNL     1       8.067  29.456  58.613  1.00  0.00     0.042 A 
HETATM    7  C   UNL     1       8.924  30.483  59.043  1.00  0.00    -0.021 A 
HETATM    8  C   UNL     1      10.056  30.778  58.273  1.00  0.00     0.012 A 
HETATM    9  C   UNL     1      10.323  30.066  57.102  1.00  0.00     0.003 A 
HETATM   10  C   UNL     1       9.462  29.048  56.692  1.00  0.00     0.029 A 
BRANCH   7  11
HETATM   11  C   UNL     1       8.630  31.208  60.273  1.00  0.00     0.010 A 
HETATM   12  C   UNL     1       7.848  32.368  60.498  1.00  0.00     0.152 A 
HETATM   13  N   UNL     1       7.825  32.740  61.781  1.00  0.00    -0.187 NA
HETATM   14  N   UNL     1       8.598  31.827  62.384  1.00  0.00    -0.289 N 
HETATM   15  H   UNL     1       8.739  31.905  63.386  1.00  0.00     0.188 HD
HETATM   16  C   UNL     1       9.104  30.889  61.529  1.00  0.00     0.123 A 
ENDBRANCH   7  11
ENDBRANCH   2   5
BRANCH   1  17
HETATM   17  C   UNL     1       6.372  25.524  56.760  1.00  0.00     0.182 C 
BRANCH  17  18
HETATM   18  S   UNL     1       6.320  25.788  54.954  1.00  0.00    -0.121 SA
BRANCH  18  19
HETATM   19  C   UNL     1       6.992  24.222  54.430  1.00  0.00     0.001 A 
HETATM   20  C   UNL     1       7.215  23.211  55.367  1.00  0.00     0.019 A 
HETATM   21  C   UNL     1       7.758  21.986  54.968  1.00  0.00     0.008 A 
HETATM   22  C   UNL     1       8.071  21.752  53.624  1.00  0.00    -0.062 A 
HETATM   23  C   UNL     1       8.682  20.453  53.188  1.00  0.00     0.048 C 
HETATM   24  C   UNL     1       7.836  22.764  52.687  1.00  0.00     0.008 A 
HETATM   25  C   UNL     1       7.293  23.988  53.085  1.00  0.00     0.019 A 
ENDBRANCH  18  19
ENDBRANCH  17  18
ENDBRANCH   1  17
TORSDOF 5
ENDMDL
MODEL 2
REMARK VINA RESULT:      -8.8      3.207      9.355
REMARK  5 active torsions:
REMARK  status: ('A' for Active; 'I' for Inactive)
REMARK    1  A    between atoms: C_5  and  S_6 
REMARK    2  A    between atoms: S_6  and  C_7 
REMARK    3  A    between atoms: C_7  and  C_8 
REMARK       I    between atoms: C_8  and  N_9 
REMARK    4  A    between atoms: N_9  and  C_10 
REMARK    5  A    between atoms: C_12  and  C_13 
ROOT
HETATM    1  C   UNL     1       7.092  27.530  55.973  1.00  0.00     0.231 C 
HETATM    2  N   UNL     1       6.600  26.289  55.612  1.00  0.00    -0.327 N 
HETATM    3  O   UNL     1       8.059  28.093  55.463  1.00  0.00    -0.272 OA
HETATM    4  H   UNL     1       5.834  25.945  56.184  1.00  0.00     0.169 HD
ENDROOT
BRANCH   2   5
HETATM    5  C   UNL     1       7.096  25.411  54.627  1.00  0.00     0.035 A 
HETATM    6  C   UNL     1       7.500  24.096  54.883  1.00  0.00     0.042 A 
HETATM    7  C   UNL     1       7.977  23.264  53.857  1.00  0.00    -0.021 A 
HETATM    8  C   UNL     1       8.049  23.777  52.556  1.00  0.00     0.012 A 
HETATM    9  C   UNL     1       7.657  25.090  52.288  1.00  0.00     0.003 A 
HETATM   10  C   UNL     1       7.183  25.902  53.320  1.00  0.00     0.029 A 
BRANCH   7  11
HETATM   11  C   UNL     1       8.373  21.894  54.158  1.00  0.00     0.010 A 
HETATM   12  C   UNL     1       8.386  20.735  53.341  1.00  0.00     0.152 A 
HETATM   13  N   UNL     1       8.814  19.647  53.988  1.00  0.00    -0.187 NA
HETATM   14  N   UNL     1       9.069  20.099  55.224  1.00  0.00    -0.289 N 
HETATM   15  H   UNL     1       9.409  19.438  55.914  1.00  0.00     0.188 HD
HETATM   16  C   UNL     1       8.822  21.433  55.378  1.00  0.00     0.123 A 
ENDBRANCH   7  11
ENDBRANCH   2   5
BRANCH   1  17
HETATM   17  C   UNL     1       6.283  28.256  57.039  1.00  0.00     0.182 C 
BRANCH  17  18
HETATM   18  S   UNL     1       6.186  30.059  56.769  1.00  0.00    -0.121 SA
BRANCH  18  19
HETATM   19  C   UNL     1       7.088  30.598  58.210  1.00  0.00     0.001 A 
HETATM   20  C   UNL     1       6.620  31.678  58.962  1.00  0.00     0.019 A 
HETATM   21  C   UNL     1       7.331  32.118  60.082  1.00  0.00     0.008 A 
HETATM   22  C   UNL     1       8.511  31.475  60.473  1.00  0.00    -0.062 A 
HETATM   23  C   UNL     1       9.298  31.956  61.655  1.00  0.00     0.048 C 
HETATM   24  C   UNL     1       8.970  30.386  59.723  1.00  0.00     0.008 A 
HETATM   25  C   UNL     1       8.260  29.946  58.604  1.00  0.00     0.019 A 
ENDBRANCH  18  19
ENDBRANCH  17  18
ENDBRANCH   1  17
TORSDOF 5
ENDMDL
MODEL 3
REMARK VINA RESULT:      -8.7      3.408      8.474
REMARK  5 active torsions:
REMARK  status: ('A' for Active; 'I' for Inactive)
REMARK    1  A    between atoms: C_5  and  S_6 
REMARK    2  A    between atoms: S_6  and  C_7 
REMARK    3  A    between atoms: C_7  and  C_8 
REMARK       I    between atoms: C_8  and  N_9 
REMARK    4  A    between atoms: N_9  and  C_10 
REMARK    5  A    between atoms: C_12  and  C_13 
ROOT
HETATM    1  C   UNL     1       5.896  26.132  56.505  1.00  0.00     0.231 C 
HETATM    2  N   UNL     1       5.745  25.918  55.147  1.00  0.00    -0.327 N 
HETATM    3  O   UNL     1       6.778  25.647  57.213  1.00  0.00    -0.272 OA
HETATM    4  H   UNL     1       4.921  26.344  54.732  1.00  0.00     0.169 HD
ENDROOT
BRANCH   2   5
HETATM    5  C   UNL     1       6.528  25.104  54.303  1.00  0.00     0.035 A 
HETATM    6  C   UNL     1       6.981  23.827  54.650  1.00  0.00     0.042 A 
HETATM    7  C   UNL     1       7.751  23.058  53.762  1.00  0.00    -0.021 A 
HETATM    8  C   UNL     1       8.069  23.597  52.509  1.00  0.00     0.012 A 
HETATM    9  C   UNL     1       7.630  24.873  52.154  1.00  0.00     0.003 A 
HETATM   10  C   UNL     1       6.864  25.623  53.048  1.00  0.00     0.029 A 
BRANCH   7  11
HETATM   11  C   UNL     1       8.192  21.724  54.150  1.00  0.00     0.010 A 
HETATM   12  C   UNL     1       8.592  20.616  53.361  1.00  0.00     0.152 A 
HETATM   13  N   UNL     1       8.923  19.548  54.092  1.00  0.00    -0.187 NA
HETATM   14  N   UNL     1       8.728  19.960  55.353  1.00  0.00    -0.289 N 
HETATM   15  H   UNL     1       8.912  19.305  56.105  1.00  0.00     0.188 HD
HETATM   16  C   UNL     1       8.291  21.251  55.443  1.00  0.00     0.123 A 
ENDBRANCH   7  11
ENDBRANCH   2   5
BRANCH   1  17
HETATM   17  C   UNL     1       4.914  27.125  57.112  1.00  0.00     0.182 C 
BRANCH  17  18
HETATM   18  S   UNL     1       5.032  28.795  56.383  1.00  0.00    -0.121 SA
BRANCH  18  19
HETATM   19  C   UNL     1       6.778  29.071  56.617  1.00  0.00     0.001 A 
HETATM   20  C   UNL     1       7.278  29.329  57.895  1.00  0.00     0.019 A 
HETATM   21  C   UNL     1       8.643  29.564  58.084  1.00  0.00     0.008 A 
HETATM   22  C   UNL     1       9.527  29.530  57.000  1.00  0.00    -0.062 A 
HETATM   23  C   UNL     1      10.989  29.810  57.186  1.00  0.00     0.048 C 
HETATM   24  C   UNL     1       9.024  29.260  55.722  1.00  0.00     0.008 A 
HETATM   25  C   UNL     1       7.660  29.025  55.532  1.00  0.00     0.019 A 
ENDBRANCH  18  19
ENDBRANCH  17  18
ENDBRANCH   1  17
TORSDOF 5
ENDMDL
MODEL 4
REMARK VINA RESULT:      -8.3      5.243      8.600
REMARK  5 active torsions:
REMARK  status: ('A' for Active; 'I' for Inactive)
REMARK    1  A    between atoms: C_5  and  S_6 
REMARK    2  A    between atoms: S_6  and  C_7 
REMARK    3  A    between atoms: C_7  and  C_8 
REMARK       I    between atoms: C_8  and  N_9 
REMARK    4  A    between atoms: N_9  and  C_10 
REMARK    5  A    between atoms: C_12  and  C_13 
ROOT
HETATM    1  C   UNL     1       5.451  27.227  53.791  1.00  0.00     0.231 C 
HETATM    2  N   UNL     1       5.219  26.075  54.521  1.00  0.00    -0.327 N 
HETATM    3  O   UNL     1       6.556  27.673  53.487  1.00  0.00    -0.272 OA
HETATM    4  H   UNL     1       4.244  25.890  54.739  1.00  0.00     0.169 HD
ENDROOT
BRANCH   2   5
HETATM    5  C   UNL     1       6.169  25.197  55.082  1.00  0.00     0.035 A 
HETATM    6  C   UNL     1       6.572  23.998  54.485  1.00  0.00     0.042 A 
HETATM    7  C   UNL     1       7.532  23.167  55.087  1.00  0.00    -0.021 A 
HETATM    8  C   UNL     1       8.083  23.558  56.313  1.00  0.00     0.012 A 
HETATM    9  C   UNL     1       7.684  24.749  56.923  1.00  0.00     0.003 A 
HETATM   10  C   UNL     1       6.731  25.563  56.310  1.00  0.00     0.029 A 
BRANCH   7  11
HETATM   11  C   UNL     1       7.940  21.933  54.429  1.00  0.00     0.010 A 
HETATM   12  C   UNL     1       8.420  20.712  54.968  1.00  0.00     0.152 A 
HETATM   13  N   UNL     1       8.701  19.803  54.029  1.00  0.00    -0.187 NA
HETATM   14  N   UNL     1       8.413  20.438  52.884  1.00  0.00    -0.289 N 
HETATM   15  H   UNL     1       8.554  19.940  52.012  1.00  0.00     0.188 HD
HETATM   16  C   UNL     1       7.955  21.712  53.066  1.00  0.00     0.123 A 
ENDBRANCH   7  11
ENDBRANCH   2   5
BRANCH   1  17
HETATM   17  C   UNL     1       4.198  27.920  53.271  1.00  0.00     0.182 C 
BRANCH  17  18
HETATM   18  S   UNL     1       4.536  29.121  51.939  1.00  0.00    -0.121 SA
BRANCH  18  19
HETATM   19  C   UNL     1       4.077  28.113  50.541  1.00  0.00     0.001 A 
HETATM   20  C   UNL     1       2.993  28.483  49.742  1.00  0.00     0.019 A 
HETATM   21  C   UNL     1       2.616  27.689  48.655  1.00  0.00     0.008 A 
HETATM   22  C   UNL     1       3.326  26.523  48.345  1.00  0.00    -0.062 A 
HETATM   23  C   UNL     1       2.912  25.647  47.200  1.00  0.00     0.048 C 
HETATM   24  C   UNL     1       4.418  26.163  49.142  1.00  0.00     0.008 A 
HETATM   25  C   UNL     1       4.796  26.956  50.228  1.00  0.00     0.019 A 
ENDBRANCH  18  19
ENDBRANCH  17  18
ENDBRANCH   1  17
TORSDOF 5
ENDMDL
MODEL 5
REMARK VINA RESULT:      -8.3      1.529      2.307
REMARK  5 active torsions:
REMARK  status: ('A' for Active; 'I' for Inactive)
REMARK    1  A    between atoms: C_5  and  S_6 
REMARK    2  A    between atoms: S_6  and  C_7 
REMARK    3  A    between atoms: C_7  and  C_8 
REMARK       I    between atoms: C_8  and  N_9 
REMARK    4  A    between atoms: N_9  and  C_10 
REMARK    5  A    between atoms: C_12  and  C_13 
ROOT
HETATM    1  C   UNL     1       7.530  28.215  57.225  1.00  0.00     0.231 C 
HETATM    2  N   UNL     1       7.324  29.559  57.480  1.00  0.00    -0.327 N 
HETATM    3  O   UNL     1       8.363  27.500  57.780  1.00  0.00    -0.272 OA
HETATM    4  H   UNL     1       6.639  30.012  56.882  1.00  0.00     0.169 HD
ENDROOT
BRANCH   2   5
HETATM    5  C   UNL     1       8.018  30.387  58.386  1.00  0.00     0.035 A 
HETATM    6  C   UNL     1       7.484  30.837  59.598  1.00  0.00     0.042 A 
HETATM    7  C   UNL     1       8.228  31.654  60.467  1.00  0.00    -0.021 A 
HETATM    8  C   UNL     1       9.527  32.021  60.094  1.00  0.00     0.012 A 
HETATM    9  C   UNL     1      10.068  31.585  58.883  1.00  0.00     0.003 A 
HETATM   10  C   UNL     1       9.316  30.773  58.034  1.00  0.00     0.029 A 
BRANCH   7  11
HETATM   11  C   UNL     1       7.647  32.090  61.730  1.00  0.00     0.010 A 
HETATM   12  C   UNL     1       8.257  32.388  62.975  1.00  0.00     0.152 A 
HETATM   13  N   UNL     1       7.377  32.753  63.912  1.00  0.00    -0.187 NA
HETATM   14  N   UNL     1       6.199  32.683  63.278  1.00  0.00    -0.289 N 
HETATM   15  H   UNL     1       5.360  32.915  63.799  1.00  0.00     0.188 HD
HETATM   16  C   UNL     1       6.303  32.292  61.973  1.00  0.00     0.123 A 
ENDBRANCH   7  11
ENDBRANCH   2   5
BRANCH   1  17
HETATM   17  C   UNL     1       6.561  27.596  56.227  1.00  0.00     0.182 C 
BRANCH  17  18
HETATM   18  S   UNL     1       7.094  27.784  54.490  1.00  0.00    -0.121 SA
BRANCH  18  19
HETATM   19  C   UNL     1       7.348  26.064  54.096  1.00  0.00     0.001 A 
HETATM   20  C   UNL     1       7.759  25.696  52.813  1.00  0.00     0.019 A 
HETATM   21  C   UNL     1       7.942  24.349  52.491  1.00  0.00     0.008 A 
HETATM   22  C   UNL     1       7.731  23.353  53.451  1.00  0.00    -0.062 A 
HETATM   23  C   UNL     1       7.895  21.901  53.108  1.00  0.00     0.048 C 
HETATM   24  C   UNL     1       7.329  23.726  54.738  1.00  0.00     0.008 A 
HETATM   25  C   UNL     1       7.146  25.072  55.061  1.00  0.00     0.019 A 
ENDBRANCH  18  19
ENDBRANCH  17  18
ENDBRANCH   1  17
TORSDOF 5
ENDMDL
MODEL 6
REMARK VINA RESULT:      -8.2      2.962      9.403
REMARK  5 active torsions:
REMARK  status: ('A' for Active; 'I' for Inactive)
REMARK    1  A    between atoms: C_5  and  S_6 
REMARK    2  A    between atoms: S_6  and  C_7 
REMARK    3  A    between atoms: C_7  and  C_8 
REMARK       I    between atoms: C_8  and  N_9 
REMARK    4  A    between atoms: N_9  and  C_10 
REMARK    5  A    between atoms: C_12  and  C_13 
ROOT
HETATM    1  C   UNL     1       8.817  28.992  57.415  1.00  0.00     0.231 C 
HETATM    2  N   UNL     1       7.988  27.938  57.753  1.00  0.00    -0.327 N 
HETATM    3  O   UNL     1       9.464  29.089  56.373  1.00  0.00    -0.272 OA
HETATM    4  H   UNL     1       7.582  27.990  58.683  1.00  0.00     0.169 HD
ENDROOT
BRANCH   2   5
HETATM    5  C   UNL     1       7.727  26.766  57.014  1.00  0.00     0.035 A 
HETATM    6  C   UNL     1       6.931  26.729  55.864  1.00  0.00     0.042 A 
HETATM    7  C   UNL     1       6.715  25.531  55.162  1.00  0.00    -0.021 A 
HETATM    8  C   UNL     1       7.311  24.358  55.639  1.00  0.00     0.012 A 
HETATM    9  C   UNL     1       8.100  24.380  56.790  1.00  0.00     0.003 A 
HETATM   10  C   UNL     1       8.306  25.579  57.474  1.00  0.00     0.029 A 
BRANCH   7  11
HETATM   11  C   UNL     1       5.894  25.533  53.958  1.00  0.00     0.010 A 
HETATM   12  C   UNL     1       5.832  24.614  52.880  1.00  0.00     0.152 A 
HETATM   13  N   UNL     1       4.947  24.968  51.944  1.00  0.00    -0.187 NA
HETATM   14  N   UNL     1       4.443  26.120  52.410  1.00  0.00    -0.289 N 
HETATM   15  H   UNL     1       3.739  26.594  51.856  1.00  0.00     0.188 HD
HETATM   16  C   UNL     1       4.975  26.502  53.609  1.00  0.00     0.123 A 
ENDBRANCH   7  11
ENDBRANCH   2   5
BRANCH   1  17
HETATM   17  C   UNL     1       8.830  30.144  58.411  1.00  0.00     0.182 C 
BRANCH  17  18
HETATM   18  S   UNL     1       7.231  31.019  58.525  1.00  0.00    -0.121 SA
BRANCH  18  19
HETATM   19  C   UNL     1       7.389  31.658  60.182  1.00  0.00     0.001 A 
HETATM   20  C   UNL     1       8.487  31.298  60.966  1.00  0.00     0.019 A 
HETATM   21  C   UNL     1       8.609  31.780  62.273  1.00  0.00     0.008 A 
HETATM   22  C   UNL     1       7.642  32.640  62.806  1.00  0.00    -0.062 A 
HETATM   23  C   UNL     1       7.746  33.141  64.216  1.00  0.00     0.048 C 
HETATM   24  C   UNL     1       6.549  33.008  62.013  1.00  0.00     0.008 A 
HETATM   25  C   UNL     1       6.427  32.526  60.707  1.00  0.00     0.019 A 
ENDBRANCH  18  19
ENDBRANCH  17  18
ENDBRANCH   1  17
TORSDOF 5
ENDMDL
MODEL 7
REMARK VINA RESULT:      -8.2      2.337      3.637
REMARK  5 active torsions:
REMARK  status: ('A' for Active; 'I' for Inactive)
REMARK    1  A    between atoms: C_5  and  S_6 
REMARK    2  A    between atoms: S_6  and  C_7 
REMARK    3  A    between atoms: C_7  and  C_8 
REMARK       I    between atoms: C_8  and  N_9 
REMARK    4  A    between atoms: N_9  and  C_10 
REMARK    5  A    between atoms: C_12  and  C_13 
ROOT
HETATM    1  C   UNL     1       7.976  29.446  57.702  1.00  0.00     0.231 C 
HETATM    2  N   UNL     1       8.026  30.757  58.141  1.00  0.00    -0.327 N 
HETATM    3  O   UNL     1       7.987  28.448  58.421  1.00  0.00    -0.272 OA
HETATM    4  H   UNL     1       8.075  31.457  57.407  1.00  0.00     0.169 HD
ENDROOT
BRANCH   2   5
HETATM    5  C   UNL     1       8.124  31.225  59.468  1.00  0.00     0.035 A 
HETATM    6  C   UNL     1       7.022  31.574  60.255  1.00  0.00     0.042 A 
HETATM    7  C   UNL     1       7.181  32.025  61.576  1.00  0.00    -0.021 A 
HETATM    8  C   UNL     1       8.476  32.128  62.099  1.00  0.00     0.012 A 
HETATM    9  C   UNL     1       9.584  31.791  61.320  1.00  0.00     0.003 A 
HETATM   10  C   UNL     1       9.407  31.342  60.011  1.00  0.00     0.029 A 
BRANCH   7  11
HETATM   11  C   UNL     1       6.009  32.364  62.374  1.00  0.00     0.010 A 
HETATM   12  C   UNL     1       4.641  32.460  62.014  1.00  0.00     0.152 A 
HETATM   13  N   UNL     1       3.856  32.809  63.037  1.00  0.00    -0.187 NA
HETATM   14  N   UNL     1       4.716  32.947  64.057  1.00  0.00    -0.289 N 
HETATM   15  H   UNL     1       4.346  33.220  64.961  1.00  0.00     0.188 HD
HETATM   16  C   UNL     1       6.013  32.694  63.715  1.00  0.00     0.123 A 
ENDBRANCH   7  11
ENDBRANCH   2   5
BRANCH   1  17
HETATM   17  C   UNL     1       7.807  29.280  56.198  1.00  0.00     0.182 C 
BRANCH  17  18
HETATM   18  S   UNL     1       6.162  28.646  55.721  1.00  0.00    -0.121 SA
BRANCH  18  19
HETATM   19  C   UNL     1       6.671  27.126  54.941  1.00  0.00     0.001 A 
HETATM   20  C   UNL     1       7.379  27.163  53.738  1.00  0.00     0.019 A 
HETATM   21  C   UNL     1       7.767  25.976  53.111  1.00  0.00     0.008 A 
HETATM   22  C   UNL     1       7.464  24.736  53.686  1.00  0.00    -0.062 A 
HETATM   23  C   UNL     1       7.848  23.455  53.008  1.00  0.00     0.048 C 
HETATM   24  C   UNL     1       6.764  24.704  54.897  1.00  0.00     0.008 A 
HETATM   25  C   UNL     1       6.377  25.890  55.525  1.00  0.00     0.019 A 
ENDBRANCH  18  19
ENDBRANCH  17  18
ENDBRANCH   1  17
TORSDOF 5
ENDMDL
MODEL 8
REMARK VINA RESULT:      -8.2      3.098      9.648
REMARK  5 active torsions:
REMARK  status: ('A' for Active; 'I' for Inactive)
REMARK    1  A    between atoms: C_5  and  S_6 
REMARK    2  A    between atoms: S_6  and  C_7 
REMARK    3  A    between atoms: C_7  and  C_8 
REMARK       I    between atoms: C_8  and  N_9 
REMARK    4  A    between atoms: N_9  and  C_10 
REMARK    5  A    between atoms: C_12  and  C_13 
ROOT
HETATM    1  C   UNL     1       8.540  29.247  57.954  1.00  0.00     0.231 C 
HETATM    2  N   UNL     1       7.698  28.165  57.774  1.00  0.00    -0.327 N 
HETATM    3  O   UNL     1       9.371  29.652  57.142  1.00  0.00    -0.272 OA
HETATM    4  H   UNL     1       7.120  27.929  58.575  1.00  0.00     0.169 HD
ENDROOT
BRANCH   2   5
HETATM    5  C   UNL     1       7.623  27.298  56.664  1.00  0.00     0.035 A 
HETATM    6  C   UNL     1       7.778  25.910  56.745  1.00  0.00     0.042 A 
HETATM    7  C   UNL     1       7.683  25.095  55.605  1.00  0.00    -0.021 A 
HETATM    8  C   UNL     1       7.433  25.701  54.367  1.00  0.00     0.012 A 
HETATM    9  C   UNL     1       7.285  27.085  54.271  1.00  0.00     0.003 A 
HETATM   10  C   UNL     1       7.380  27.879  55.415  1.00  0.00     0.029 A 
BRANCH   7  11
HETATM   11  C   UNL     1       7.832  23.651  55.729  1.00  0.00     0.010 A 
HETATM   12  C   UNL     1       8.395  22.865  56.767  1.00  0.00     0.152 A 
HETATM   13  N   UNL     1       8.356  21.555  56.507  1.00  0.00    -0.187 NA
HETATM   14  N   UNL     1       7.777  21.493  55.300  1.00  0.00    -0.289 N 
HETATM   15  H   UNL     1       7.641  20.580  54.881  1.00  0.00     0.188 HD
HETATM   16  C   UNL     1       7.445  22.716  54.790  1.00  0.00     0.123 A 
ENDBRANCH   7  11
ENDBRANCH   2   5
BRANCH   1  17
HETATM   17  C   UNL     1       8.324  30.020  59.248  1.00  0.00     0.182 C 
BRANCH  17  18
HETATM   18  S   UNL     1       7.325  31.533  59.027  1.00  0.00    -0.121 SA
BRANCH  18  19
HETATM   19  C   UNL     1       7.341  32.117  60.712  1.00  0.00     0.001 A 
HETATM   20  C   UNL     1       6.374  33.027  61.143  1.00  0.00     0.019 A 
HETATM   21  C   UNL     1       6.390  33.504  62.457  1.00  0.00     0.008 A 
HETATM   22  C   UNL     1       7.365  33.065  63.360  1.00  0.00    -0.062 A 
HETATM   23  C   UNL     1       7.411  33.592  64.764  1.00  0.00     0.048 C 
HETATM   24  C   UNL     1       8.326  32.144  62.927  1.00  0.00     0.008 A 
HETATM   25  C   UNL     1       8.310  31.667  61.614  1.00  0.00     0.019 A 
ENDBRANCH  18  19
ENDBRANCH  17  18
ENDBRANCH   1  17
TORSDOF 5
ENDMDL
MODEL 9
REMARK VINA RESULT:      -8.1      5.396      8.229
REMARK  5 active torsions:
REMARK  status: ('A' for Active; 'I' for Inactive)
REMARK    1  A    between atoms: C_5  and  S_6 
REMARK    2  A    between atoms: S_6  and  C_7 
REMARK    3  A    between atoms: C_7  and  C_8 
REMARK       I    between atoms: C_8  and  N_9 
REMARK    4  A    between atoms: N_9  and  C_10 
REMARK    5  A    between atoms: C_12  and  C_13 
ROOT
HETATM    1  C   UNL     1       5.074  25.949  54.480  1.00  0.00     0.231 C 
HETATM    2  N   UNL     1       5.008  27.293  54.160  1.00  0.00    -0.327 N 
HETATM    3  O   UNL     1       4.702  25.022  53.762  1.00  0.00    -0.272 OA
HETATM    4  H   UNL     1       5.298  27.928  54.899  1.00  0.00     0.169 HD
ENDROOT
BRANCH   2   5
HETATM    5  C   UNL     1       4.496  27.882  52.986  1.00  0.00     0.035 A 
HETATM    6  C   UNL     1       4.898  27.528  51.695  1.00  0.00     0.042 A 
HETATM    7  C   UNL     1       4.343  28.144  50.560  1.00  0.00    -0.021 A 
HETATM    8  C   UNL     1       3.372  29.136  50.744  1.00  0.00     0.012 A 
HETATM    9  C   UNL     1       2.968  29.505  52.028  1.00  0.00     0.003 A 
HETATM   10  C   UNL     1       3.528  28.880  53.143  1.00  0.00     0.029 A 
BRANCH   7  11
HETATM   11  C   UNL     1       4.774  27.738  49.229  1.00  0.00     0.010 A 
HETATM   12  C   UNL     1       4.524  26.548  48.499  1.00  0.00     0.152 A 
HETATM   13  N   UNL     1       5.106  26.543  47.296  1.00  0.00    -0.187 NA
HETATM   14  N   UNL     1       5.738  27.724  47.250  1.00  0.00    -0.289 N 
HETATM   15  H   UNL     1       6.267  27.952  46.416  1.00  0.00     0.188 HD
HETATM   16  C   UNL     1       5.573  28.475  48.379  1.00  0.00     0.123 A 
ENDBRANCH   7  11
ENDBRANCH   2   5
BRANCH   1  17
HETATM   17  C   UNL     1       5.748  25.638  55.810  1.00  0.00     0.182 C 
BRANCH  17  18
HETATM   18  S   UNL     1       7.571  25.644  55.715  1.00  0.00    -0.121 SA
BRANCH  18  19
HETATM   19  C   UNL     1       7.806  24.083  54.886  1.00  0.00     0.001 A 
HETATM   20  C   UNL     1       8.019  24.051  53.506  1.00  0.00     0.019 A 
HETATM   21  C   UNL     1       8.186  22.830  52.846  1.00  0.00     0.008 A 
HETATM   22  C   UNL     1       8.156  21.627  53.560  1.00  0.00    -0.062 A 
HETATM   23  C   UNL     1       8.304  20.309  52.859  1.00  0.00     0.048 C 
HETATM   24  C   UNL     1       7.952  21.664  54.944  1.00  0.00     0.008 A 
HETATM   25  C   UNL     1       7.786  22.883  55.604  1.00  0.00     0.019 A 
ENDBRANCH  18  19
ENDBRANCH  17  18
ENDBRANCH   1  17
TORSDOF 5
ENDMDL
MODEL 10
REMARK VINA RESULT:      -8.0      5.858      9.169
REMARK  5 active torsions:
REMARK  status: ('A' for Active; 'I' for Inactive)
REMARK    1  A    between atoms: C_5  and  S_6 
REMARK    2  A    between atoms: S_6  and  C_7 
REMARK    3  A    between atoms: C_7  and  C_8 
REMARK       I    between atoms: C_8  and  N_9 
REMARK    4  A    between atoms: N_9  and  C_10 
REMARK    5  A    between atoms: C_12  and  C_13 
ROOT
HETATM    1  C   UNL     1       5.916  27.064  53.207  1.00  0.00     0.231 C 
HETATM    2  N   UNL     1       5.872  28.038  52.225  1.00  0.00    -0.327 N 
HETATM    3  O   UNL     1       4.996  26.304  53.504  1.00  0.00    -0.272 OA
HETATM    4  H   UNL     1       6.701  28.622  52.157  1.00  0.00     0.169 HD
ENDROOT
BRANCH   2   5
HETATM    5  C   UNL     1       4.788  28.380  51.390  1.00  0.00     0.035 A 
HETATM    6  C   UNL     1       4.403  27.639  50.267  1.00  0.00     0.042 A 
HETATM    7  C   UNL     1       3.307  28.024  49.477  1.00  0.00    -0.021 A 
HETATM    8  C   UNL     1       2.599  29.179  49.831  1.00  0.00     0.012 A 
HETATM    9  C   UNL     1       2.978  29.932  50.943  1.00  0.00     0.003 A 
HETATM   10  C   UNL     1       4.068  29.533  51.718  1.00  0.00     0.029 A 
BRANCH   7  11
HETATM   11  C   UNL     1       2.923  27.219  48.325  1.00  0.00     0.010 A 
HETATM   12  C   UNL     1       3.580  26.131  47.697  1.00  0.00     0.152 A 
HETATM   13  N   UNL     1       2.908  25.653  46.646  1.00  0.00    -0.187 NA
HETATM   14  N   UNL     1       1.822  26.435  46.588  1.00  0.00    -0.289 N 
HETATM   15  H   UNL     1       1.147  26.265  45.850  1.00  0.00     0.188 HD
HETATM   16  C   UNL     1       1.782  27.387  47.567  1.00  0.00     0.123 A 
ENDBRANCH   7  11
ENDBRANCH   2   5
BRANCH   1  17
HETATM   17  C   UNL     1       7.267  26.904  53.890  1.00  0.00     0.182 C 
BRANCH  17  18
HETATM   18  S   UNL     1       7.190  25.909  55.420  1.00  0.00    -0.121 SA
BRANCH  18  19
HETATM   19  C   UNL     1       7.524  24.304  54.717  1.00  0.00     0.001 A 
HETATM   20  C   UNL     1       7.549  23.176  55.539  1.00  0.00     0.019 A 
HETATM   21  C   UNL     1       7.827  21.917  54.999  1.00  0.00     0.008 A 
HETATM   22  C   UNL     1       8.069  21.769  53.628  1.00  0.00    -0.062 A 
HETATM   23  C   UNL     1       8.398  20.428  53.042  1.00  0.00     0.048 C 
HETATM   24  C   UNL     1       8.032  22.901  52.807  1.00  0.00     0.008 A 
HETATM   25  C   UNL     1       7.754  24.159  53.345  1.00  0.00     0.019 A 
ENDBRANCH  18  19
ENDBRANCH  17  18
ENDBRANCH   1  17
TORSDOF 5
ENDMDL
