MODEL 1
REMARK VINA RESULT:     -10.1      0.000      0.000
REMARK  5 active torsions:
REMARK  status: ('A' for Active; 'I' for Inactive)
REMARK    1  A    between atoms: C_6  and  S_7 
REMARK    2  A    between atoms: S_7  and  C_8 
REMARK    3  A    between atoms: C_8  and  C_9 
REMARK       I    between atoms: C_9  and  N_10 
REMARK    4  A    between atoms: N_10  and  C_11 
REMARK    5  A    between atoms: C_14  and  C_15 
ROOT
HETATM    1  C   UNL     1       7.389  28.192  55.598  1.00  0.00     0.233 C 
HETATM    2  N   UNL     1       8.450  28.021  56.462  1.00  0.00    -0.305 N 
HETATM    3  O   UNL     1       6.682  29.193  55.507  1.00  0.00    -0.272 OA
HETATM    4  H   UNL     1       8.911  27.126  56.526  1.00  0.00     0.171 HD
ENDROOT
BRANCH   2   5
HETATM    5  C   UNL     1       8.873  29.008  57.305  1.00  0.00     0.173 A 
HETATM    6  S   UNL     1      10.237  29.870  56.753  1.00  0.00    -0.061 SA
HETATM    7  C   UNL     1      10.158  30.852  58.164  1.00  0.00     0.085 A 
HETATM    8  C   UNL     1       9.093  30.461  58.955  1.00  0.00     0.076 A 
HETATM    9  N   UNL     1       8.371  29.392  58.446  1.00  0.00    -0.223 NA
BRANCH   8  10
HETATM   10  C   UNL     1       8.709  31.072  60.229  1.00  0.00    -0.007 A 
HETATM   11  C   UNL     1       9.069  30.527  61.470  1.00  0.00     0.015 A 
HETATM   12  C   UNL     1       8.687  31.153  62.664  1.00  0.00     0.020 A 
HETATM   13  C   UNL     1       7.945  32.330  62.624  1.00  0.00     0.011 A 
HETATM   14 BR   UNL     1       7.436  33.175  64.237  1.00  0.00    -0.051 Br
HETATM   15  C   UNL     1       7.579  32.889  61.405  1.00  0.00     0.020 A 
HETATM   16  C   UNL     1       7.962  32.262  60.215  1.00  0.00     0.015 A 
ENDBRANCH   8  10
ENDBRANCH   2   5
BRANCH   1  17
HETATM   17  C   UNL     1       7.190  27.037  54.631  1.00  0.00     0.184 C 
BRANCH  17  18
HETATM   18  S   UNL     1       5.879  25.903  55.176  1.00  0.00    -0.094 SA
BRANCH  18  19
HETATM   19  C   UNL     1       6.635  24.369  54.788  1.00  0.00     0.136 A 
HETATM   20  S   UNL     1       7.007  23.915  53.181  1.00  0.00    -0.061 SA
HETATM   21  C   UNL     1       7.640  22.420  53.755  1.00  0.00     0.036 A 
HETATM   22  C   UNL     1       7.517  22.380  55.147  1.00  0.00     0.075 A 
HETATM   23  C   UNL     1       8.205  21.356  53.031  1.00  0.00     0.021 A 
HETATM   24  C   UNL     1       7.980  21.242  55.837  1.00  0.00     0.033 A 
HETATM   25  N   UNL     1       6.934  23.497  55.721  1.00  0.00    -0.233 NA
HETATM   26  C   UNL     1       8.543  20.178  55.125  1.00  0.00     0.002 A 
HETATM   27  C   UNL     1       8.653  20.237  53.739  1.00  0.00     0.002 A 
ENDBRANCH  18  19
ENDBRANCH  17  18
ENDBRANCH   1  17
TORSDOF 5
ENDMDL
MODEL 2
REMARK VINA RESULT:      -9.7      4.048     10.864
REMARK  5 active torsions:
REMARK  status: ('A' for Active; 'I' for Inactive)
REMARK    1  A    between atoms: C_6  and  S_7 
REMARK    2  A    between atoms: S_7  and  C_8 
REMARK    3  A    between atoms: C_8  and  C_9 
REMARK       I    between atoms: C_9  and  N_10 
REMARK    4  A    between atoms: N_10  and  C_11 
REMARK    5  A    between atoms: C_14  and  C_15 
ROOT
HETATM    1  C   UNL     1       8.397  29.193  57.839  1.00  0.00     0.233 C 
HETATM    2  N   UNL     1       7.202  28.550  57.597  1.00  0.00    -0.305 N 
HETATM    3  O   UNL     1       9.412  29.121  57.150  1.00  0.00    -0.272 OA
HETATM    4  H   UNL     1       6.455  28.599  58.274  1.00  0.00     0.171 HD
ENDROOT
BRANCH   2   5
HETATM    5  C   UNL     1       6.999  27.775  56.491  1.00  0.00     0.173 A 
HETATM    6  S   UNL     1       6.148  28.550  55.233  1.00  0.00    -0.061 SA
HETATM    7  C   UNL     1       6.300  27.123  54.283  1.00  0.00     0.085 A 
HETATM    8  C   UNL     1       6.995  26.156  54.988  1.00  0.00     0.076 A 
HETATM    9  N   UNL     1       7.382  26.550  56.260  1.00  0.00    -0.223 NA
BRANCH   8  10
HETATM   10  C   UNL     1       7.323  24.816  54.497  1.00  0.00    -0.007 A 
HETATM   11  C   UNL     1       7.663  24.561  53.160  1.00  0.00     0.015 A 
HETATM   12  C   UNL     1       7.978  23.263  52.738  1.00  0.00     0.020 A 
HETATM   13  C   UNL     1       7.958  22.212  53.650  1.00  0.00     0.011 A 
HETATM   14 BR   UNL     1       8.389  20.463  53.078  1.00  0.00    -0.051 Br
HETATM   15  C   UNL     1       7.626  22.443  54.981  1.00  0.00     0.020 A 
HETATM   16  C   UNL     1       7.312  23.739  55.399  1.00  0.00     0.015 A 
ENDBRANCH   8  10
ENDBRANCH   2   5
BRANCH   1  17
HETATM   17  C   UNL     1       8.358  30.137  59.029  1.00  0.00     0.184 C 
BRANCH  17  18
HETATM   18  S   UNL     1       7.051  31.390  58.869  1.00  0.00    -0.094 SA
BRANCH  18  19
HETATM   19  C   UNL     1       7.091  32.068  60.485  1.00  0.00     0.136 A 
HETATM   20  S   UNL     1       8.114  31.451  61.709  1.00  0.00    -0.061 SA
HETATM   21  C   UNL     1       7.503  32.629  62.807  1.00  0.00     0.036 A 
HETATM   22  C   UNL     1       6.552  33.412  62.147  1.00  0.00     0.075 A 
HETATM   23  C   UNL     1       7.836  32.847  64.155  1.00  0.00     0.021 A 
HETATM   24  C   UNL     1       5.919  34.452  62.857  1.00  0.00     0.033 A 
HETATM   25  N   UNL     1       6.323  33.075  60.824  1.00  0.00    -0.233 NA
HETATM   26  C   UNL     1       6.243  34.677  64.199  1.00  0.00     0.002 A 
HETATM   27  C   UNL     1       7.190  33.882  64.838  1.00  0.00     0.002 A 
ENDBRANCH  18  19
ENDBRANCH  17  18
ENDBRANCH   1  17
TORSDOF 5
ENDMDL
MODEL 3
REMARK VINA RESULT:      -9.6      1.340      1.869
REMARK  5 active torsions:
REMARK  status: ('A' for Active; 'I' for Inactive)
REMARK    1  A    between atoms: C_6  and  S_7 
REMARK    2  A    between atoms: S_7  and  C_8 
REMARK    3  A    between atoms: C_8  and  C_9 
REMARK       I    between atoms: C_9  and  N_10 
REMARK    4  A    between atoms: N_10  and  C_11 
REMARK    5  A    between atoms: C_14  and  C_15 
ROOT
HETATM    1  C   UNL     1       8.117  27.832  56.742  1.00  0.00     0.233 C 
HETATM    2  N   UNL     1       8.302  29.187  56.573  1.00  0.00    -0.305 N 
HETATM    3  O   UNL     1       8.306  27.198  57.778  1.00  0.00    -0.272 OA
HETATM    4  H   UNL     1       8.209  29.600  55.656  1.00  0.00     0.171 HD
ENDROOT
BRANCH   2   5
HETATM    5  C   UNL     1       8.683  30.008  57.596  1.00  0.00     0.173 A 
HETATM    6  S   UNL     1      10.277  30.599  57.470  1.00  0.00    -0.061 SA
HETATM    7  C   UNL     1      10.039  31.483  58.927  1.00  0.00     0.085 A 
HETATM    8  C   UNL     1       8.758  31.272  59.406  1.00  0.00     0.076 A 
HETATM    9  N   UNL     1       7.996  30.413  58.628  1.00  0.00    -0.223 NA
BRANCH   8  10
HETATM   10  C   UNL     1       8.195  31.866  60.620  1.00  0.00    -0.007 A 
HETATM   11  C   UNL     1       6.975  32.559  60.629  1.00  0.00     0.015 A 
HETATM   12  C   UNL     1       6.472  33.103  61.818  1.00  0.00     0.020 A 
HETATM   13  C   UNL     1       7.182  32.955  63.006  1.00  0.00     0.011 A 
HETATM   14 BR   UNL     1       6.496  33.685  64.609  1.00  0.00    -0.051 Br
HETATM   15  C   UNL     1       8.392  32.269  63.020  1.00  0.00     0.020 A 
HETATM   16  C   UNL     1       8.892  31.728  61.832  1.00  0.00     0.015 A 
ENDBRANCH   8  10
ENDBRANCH   2   5
BRANCH   1  17
HETATM   17  C   UNL     1       7.530  27.134  55.526  1.00  0.00     0.184 C 
BRANCH  17  18
HETATM   18  S   UNL     1       6.175  26.006  55.970  1.00  0.00    -0.094 SA
BRANCH  18  19
HETATM   19  C   UNL     1       6.910  24.475  55.534  1.00  0.00     0.136 A 
HETATM   20  S   UNL     1       7.782  23.527  56.660  1.00  0.00    -0.061 SA
HETATM   21  C   UNL     1       8.085  22.357  55.433  1.00  0.00     0.036 A 
HETATM   22  C   UNL     1       7.491  22.785  54.243  1.00  0.00     0.075 A 
HETATM   23  C   UNL     1       8.797  21.148  55.512  1.00  0.00     0.021 A 
HETATM   24  C   UNL     1       7.607  21.974  53.096  1.00  0.00     0.033 A 
HETATM   25  N   UNL     1       6.830  24.000  54.314  1.00  0.00    -0.233 NA
HETATM   26  C   UNL     1       8.313  20.769  53.165  1.00  0.00     0.002 A 
HETATM   27  C   UNL     1       8.900  20.363  54.360  1.00  0.00     0.002 A 
ENDBRANCH  18  19
ENDBRANCH  17  18
ENDBRANCH   1  17
TORSDOF 5
ENDMDL
MODEL 4
REMARK VINA RESULT:      -9.2      4.220      9.667
REMARK  5 active torsions:
REMARK  status: ('A' for Active; 'I' for Inactive)
REMARK    1  A    between atoms: C_6  and  S_7 
REMARK    2  A    between atoms: S_7  and  C_8 
REMARK    3  A    between atoms: C_8  and  C_9 
REMARK       I    between atoms: C_9  and  N_10 
REMARK    4  A    between atoms: N_10  and  C_11 
REMARK    5  A    between atoms: C_14  and  C_15 
ROOT
HETATM    1  C   UNL     1       5.337  29.935  56.063  1.00  0.00     0.233 C 
HETATM    2  N   UNL     1       6.643  29.552  55.843  1.00  0.00    -0.305 N 
HETATM    3  O   UNL     1       4.416  29.204  56.418  1.00  0.00    -0.272 OA
HETATM    4  H   UNL     1       7.306  30.210  55.463  1.00  0.00     0.171 HD
ENDROOT
BRANCH   2   5
HETATM    5  C   UNL     1       7.075  28.274  56.055  1.00  0.00     0.173 A 
HETATM    6  S   UNL     1       7.658  27.979  57.630  1.00  0.00    -0.061 SA
HETATM    7  C   UNL     1       7.949  26.340  57.190  1.00  0.00     0.085 A 
HETATM    8  C   UNL     1       7.575  26.130  55.874  1.00  0.00     0.076 A 
HETATM    9  N   UNL     1       7.081  27.258  55.237  1.00  0.00    -0.223 NA
BRANCH   8  10
HETATM   10  C   UNL     1       7.669  24.857  55.157  1.00  0.00    -0.007 A 
HETATM   11  C   UNL     1       7.490  24.754  53.769  1.00  0.00     0.015 A 
HETATM   12  C   UNL     1       7.599  23.515  53.125  1.00  0.00     0.020 A 
HETATM   13  C   UNL     1       7.891  22.371  53.863  1.00  0.00     0.011 A 
HETATM   14 BR   UNL     1       8.042  20.702  52.988  1.00  0.00    -0.051 Br
HETATM   15  C   UNL     1       8.074  22.451  55.239  1.00  0.00     0.020 A 
HETATM   16  C   UNL     1       7.965  23.688  55.879  1.00  0.00     0.015 A 
ENDBRANCH   8  10
ENDBRANCH   2   5
BRANCH   1  17
HETATM   17  C   UNL     1       5.105  31.431  55.932  1.00  0.00     0.184 C 
BRANCH  17  18
HETATM   18  S   UNL     1       4.149  32.102  57.326  1.00  0.00    -0.094 SA
BRANCH  18  19
HETATM   19  C   UNL     1       5.399  32.132  58.555  1.00  0.00     0.136 A 
HETATM   20  S   UNL     1       5.059  32.475  60.195  1.00  0.00    -0.061 SA
HETATM   21  C   UNL     1       6.730  32.299  60.575  1.00  0.00     0.036 A 
HETATM   22  C   UNL     1       7.428  31.989  59.405  1.00  0.00     0.075 A 
HETATM   23  C   UNL     1       7.380  32.426  61.814  1.00  0.00     0.021 A 
HETATM   24  C   UNL     1       8.822  31.793  59.479  1.00  0.00     0.033 A 
HETATM   25  N   UNL     1       6.656  31.905  58.259  1.00  0.00    -0.233 NA
HETATM   26  C   UNL     1       9.478  31.917  60.708  1.00  0.00     0.002 A 
HETATM   27  C   UNL     1       8.763  32.230  61.860  1.00  0.00     0.002 A 
ENDBRANCH  18  19
ENDBRANCH  17  18
ENDBRANCH   1  17
TORSDOF 5
ENDMDL
MODEL 5
REMARK VINA RESULT:      -8.9      6.099      8.999
REMARK  5 active torsions:
REMARK  status: ('A' for Active; 'I' for Inactive)
REMARK    1  A    between atoms: C_6  and  S_7 
REMARK    2  A    between atoms: S_7  and  C_8 
REMARK    3  A    between atoms: C_8  and  C_9 
REMARK       I    between atoms: C_9  and  N_10 
REMARK    4  A    between atoms: N_10  and  C_11 
REMARK    5  A    between atoms: C_14  and  C_15 
ROOT
HETATM    1  C   UNL     1       4.160  29.307  53.077  1.00  0.00     0.233 C 
HETATM    2  N   UNL     1       5.493  29.271  53.424  1.00  0.00    -0.305 N 
HETATM    3  O   UNL     1       3.341  28.407  53.250  1.00  0.00    -0.272 OA
HETATM    4  H   UNL     1       6.106  30.026  53.155  1.00  0.00     0.171 HD
ENDROOT
BRANCH   2   5
HETATM    5  C   UNL     1       6.053  28.205  54.068  1.00  0.00     0.173 A 
HETATM    6  S   UNL     1       6.391  28.476  55.717  1.00  0.00    -0.061 SA
HETATM    7  C   UNL     1       6.974  26.862  55.839  1.00  0.00     0.085 A 
HETATM    8  C   UNL     1       6.865  26.225  54.615  1.00  0.00     0.076 A 
HETATM    9  N   UNL     1       6.339  27.019  53.608  1.00  0.00    -0.223 NA
BRANCH   8  10
HETATM   10  C   UNL     1       7.255  24.841  54.339  1.00  0.00    -0.007 A 
HETATM   11  C   UNL     1       7.309  23.855  55.336  1.00  0.00     0.015 A 
HETATM   12  C   UNL     1       7.679  22.541  55.022  1.00  0.00     0.020 A 
HETATM   13  C   UNL     1       7.995  22.203  53.709  1.00  0.00     0.011 A 
HETATM   14 BR   UNL     1       8.488  20.427  53.288  1.00  0.00    -0.051 Br
HETATM   15  C   UNL     1       7.945  23.164  52.705  1.00  0.00     0.020 A 
HETATM   16  C   UNL     1       7.576  24.474  53.021  1.00  0.00     0.015 A 
ENDBRANCH   8  10
ENDBRANCH   2   5
BRANCH   1  17
HETATM   17  C   UNL     1       3.703  30.647  52.525  1.00  0.00     0.184 C 
BRANCH  17  18
HETATM   18  S   UNL     1       4.568  31.086  50.987  1.00  0.00    -0.094 SA
BRANCH  18  19
HETATM   19  C   UNL     1       4.179  29.679  50.016  1.00  0.00     0.136 A 
HETATM   20  S   UNL     1       5.378  28.595  49.458  1.00  0.00    -0.061 SA
HETATM   21  C   UNL     1       4.161  27.656  48.679  1.00  0.00     0.036 A 
HETATM   22  C   UNL     1       2.917  28.251  48.907  1.00  0.00     0.075 A 
HETATM   23  C   UNL     1       4.292  26.481  47.921  1.00  0.00     0.021 A 
HETATM   24  C   UNL     1       1.766  27.646  48.364  1.00  0.00     0.033 A 
HETATM   25  N   UNL     1       2.944  29.409  49.666  1.00  0.00    -0.233 NA
HETATM   26  C   UNL     1       1.886  26.476  47.608  1.00  0.00     0.002 A 
HETATM   27  C   UNL     1       3.136  25.903  47.390  1.00  0.00     0.002 A 
ENDBRANCH  18  19
ENDBRANCH  17  18
ENDBRANCH   1  17
TORSDOF 5
ENDMDL
MODEL 6
REMARK VINA RESULT:      -8.9      3.977      9.842
REMARK  5 active torsions:
REMARK  status: ('A' for Active; 'I' for Inactive)
REMARK    1  A    between atoms: C_6  and  S_7 
REMARK    2  A    between atoms: S_7  and  C_8 
REMARK    3  A    between atoms: C_8  and  C_9 
REMARK       I    between atoms: C_9  and  N_10 
REMARK    4  A    between atoms: N_10  and  C_11 
REMARK    5  A    between atoms: C_14  and  C_15 
ROOT
HETATM    1  C   UNL     1       4.993  29.709  55.537  1.00  0.00     0.233 C 
HETATM    2  N   UNL     1       5.773  29.244  54.499  1.00  0.00    -0.305 N 
HETATM    3  O   UNL     1       4.133  29.072  56.140  1.00  0.00    -0.272 OA
HETATM    4  H   UNL     1       6.388  29.875  54.007  1.00  0.00     0.171 HD
ENDROOT
BRANCH   2   5
HETATM    5  C   UNL     1       5.701  27.957  54.050  1.00  0.00     0.173 A 
HETATM    6  S   UNL     1       4.576  27.711  52.792  1.00  0.00    -0.061 SA
HETATM    7  C   UNL     1       5.033  26.052  52.741  1.00  0.00     0.085 A 
HETATM    8  C   UNL     1       6.016  25.802  53.681  1.00  0.00     0.076 A 
HETATM    9  N   UNL     1       6.380  26.910  54.430  1.00  0.00    -0.223 NA
BRANCH   8  10
HETATM   10  C   UNL     1       6.653  24.506  53.921  1.00  0.00    -0.007 A 
HETATM   11  C   UNL     1       7.140  23.696  52.883  1.00  0.00     0.015 A 
HETATM   12  C   UNL     1       7.751  22.468  53.162  1.00  0.00     0.020 A 
HETATM   13  C   UNL     1       7.883  22.040  54.480  1.00  0.00     0.011 A 
HETATM   14 BR   UNL     1       8.714  20.383  54.852  1.00  0.00    -0.051 Br
HETATM   15  C   UNL     1       7.410  22.827  55.524  1.00  0.00     0.020 A 
HETATM   16  C   UNL     1       6.800  24.053  55.243  1.00  0.00     0.015 A 
ENDBRANCH   8  10
ENDBRANCH   2   5
BRANCH   1  17
HETATM   17  C   UNL     1       5.348  31.115  55.992  1.00  0.00     0.184 C 
BRANCH  17  18
HETATM   18  S   UNL     1       4.495  31.575  57.530  1.00  0.00    -0.094 SA
BRANCH  18  19
HETATM   19  C   UNL     1       5.849  31.533  58.643  1.00  0.00     0.136 A 
HETATM   20  S   UNL     1       7.259  30.617  58.331  1.00  0.00    -0.061 SA
HETATM   21  C   UNL     1       7.929  31.147  59.827  1.00  0.00     0.036 A 
HETATM   22  C   UNL     1       7.013  31.993  60.458  1.00  0.00     0.075 A 
HETATM   23  C   UNL     1       9.173  30.839  60.405  1.00  0.00     0.021 A 
HETATM   24  C   UNL     1       7.354  32.554  61.705  1.00  0.00     0.033 A 
HETATM   25  N   UNL     1       5.827  32.197  59.773  1.00  0.00    -0.233 NA
HETATM   26  C   UNL     1       8.589  32.254  62.288  1.00  0.00     0.002 A 
HETATM   27  C   UNL     1       9.486  31.406  61.644  1.00  0.00     0.002 A 
ENDBRANCH  18  19
ENDBRANCH  17  18
ENDBRANCH   1  17
TORSDOF 5
ENDMDL
MODEL 7
REMARK VINA RESULT:      -8.9      2.166      3.269
REMARK  5 active torsions:
REMARK  status: ('A' for Active; 'I' for Inactive)
REMARK    1  A    between atoms: C_6  and  S_7 
REMARK    2  A    between atoms: S_7  and  C_8 
REMARK    3  A    between atoms: C_8  and  C_9 
REMARK       I    between atoms: C_9  and  N_10 
REMARK    4  A    between atoms: N_10  and  C_11 
REMARK    5  A    between atoms: C_14  and  C_15 
ROOT
HETATM    1  C   UNL     1       7.424  29.677  57.968  1.00  0.00     0.233 C 
HETATM    2  N   UNL     1       8.189  29.658  59.115  1.00  0.00    -0.305 N 
HETATM    3  O   UNL     1       6.680  30.585  57.607  1.00  0.00    -0.272 OA
HETATM    4  H   UNL     1       8.697  28.825  59.371  1.00  0.00     0.171 HD
ENDROOT
BRANCH   2   5
HETATM    5  C   UNL     1       8.238  30.715  59.979  1.00  0.00     0.173 A 
HETATM    6  S   UNL     1       9.443  31.865  59.617  1.00  0.00    -0.061 SA
HETATM    7  C   UNL     1       8.919  32.802  60.962  1.00  0.00     0.085 A 
HETATM    8  C   UNL     1       7.857  32.177  61.590  1.00  0.00     0.076 A 
HETATM    9  N   UNL     1       7.485  30.972  61.012  1.00  0.00    -0.223 NA
BRANCH   8  10
HETATM   10  C   UNL     1       7.146  32.683  62.766  1.00  0.00    -0.007 A 
HETATM   11  C   UNL     1       5.755  32.863  62.792  1.00  0.00     0.015 A 
HETATM   12  C   UNL     1       5.118  33.342  63.943  1.00  0.00     0.020 A 
HETATM   13  C   UNL     1       5.866  33.642  65.079  1.00  0.00     0.011 A 
HETATM   14 BR   UNL     1       5.001  34.282  66.632  1.00  0.00    -0.051 Br
HETATM   15  C   UNL     1       7.246  33.468  65.076  1.00  0.00     0.020 A 
HETATM   16  C   UNL     1       7.879  32.990  63.925  1.00  0.00     0.015 A 
ENDBRANCH   8  10
ENDBRANCH   2   5
BRANCH   1  17
HETATM   17  C   UNL     1       7.642  28.476  57.063  1.00  0.00     0.184 C 
BRANCH  17  18
HETATM   18  S   UNL     1       6.148  27.452  56.909  1.00  0.00    -0.094 SA
BRANCH  18  19
HETATM   19  C   UNL     1       6.822  26.069  56.069  1.00  0.00     0.136 A 
HETATM   20  S   UNL     1       7.708  24.851  56.881  1.00  0.00    -0.061 SA
HETATM   21  C   UNL     1       7.933  24.024  55.386  1.00  0.00     0.036 A 
HETATM   22  C   UNL     1       7.306  24.751  54.369  1.00  0.00     0.075 A 
HETATM   23  C   UNL     1       8.613  22.822  55.127  1.00  0.00     0.021 A 
HETATM   24  C   UNL     1       7.357  24.255  53.051  1.00  0.00     0.033 A 
HETATM   25  N   UNL     1       6.683  25.919  54.774  1.00  0.00    -0.233 NA
HETATM   26  C   UNL     1       8.031  23.059  52.783  1.00  0.00     0.002 A 
HETATM   27  C   UNL     1       8.651  22.354  53.810  1.00  0.00     0.002 A 
ENDBRANCH  18  19
ENDBRANCH  17  18
ENDBRANCH   1  17
TORSDOF 5
ENDMDL
MODEL 8
REMARK VINA RESULT:      -8.2      5.326      8.653
REMARK  5 active torsions:
REMARK  status: ('A' for Active; 'I' for Inactive)
REMARK    1  A    between atoms: C_6  and  S_7 
REMARK    2  A    between atoms: S_7  and  C_8 
REMARK    3  A    between atoms: C_8  and  C_9 
REMARK       I    between atoms: C_9  and  N_10 
REMARK    4  A    between atoms: N_10  and  C_11 
REMARK    5  A    between atoms: C_14  and  C_15 
ROOT
HETATM    1  C   UNL     1       4.992  29.759  55.595  1.00  0.00     0.233 C 
HETATM    2  N   UNL     1       6.264  29.392  55.212  1.00  0.00    -0.305 N 
HETATM    3  O   UNL     1       4.184  29.055  56.197  1.00  0.00    -0.272 OA
HETATM    4  H   UNL     1       6.818  30.011  54.638  1.00  0.00     0.171 HD
ENDROOT
BRANCH   2   5
HETATM    5  C   UNL     1       6.797  28.173  55.519  1.00  0.00     0.173 A 
HETATM    6  S   UNL     1       7.417  28.053  57.102  1.00  0.00    -0.061 SA
HETATM    7  C   UNL     1       7.831  26.412  56.791  1.00  0.00     0.085 A 
HETATM    8  C   UNL     1       7.461  26.066  55.504  1.00  0.00     0.076 A 
HETATM    9  N   UNL     1       6.875  27.097  54.785  1.00  0.00    -0.223 NA
BRANCH   8  10
HETATM   10  C   UNL     1       7.648  24.750  54.890  1.00  0.00    -0.007 A 
HETATM   11  C   UNL     1       7.484  24.525  53.515  1.00  0.00     0.015 A 
HETATM   12  C   UNL     1       7.683  23.249  52.971  1.00  0.00     0.020 A 
HETATM   13  C   UNL     1       8.050  22.190  53.798  1.00  0.00     0.011 A 
HETATM   14 BR   UNL     1       8.322  20.472  53.059  1.00  0.00    -0.051 Br
HETATM   15  C   UNL     1       8.220  22.392  55.163  1.00  0.00     0.020 A 
HETATM   16  C   UNL     1       8.021  23.666  55.702  1.00  0.00     0.015 A 
ENDBRANCH   8  10
ENDBRANCH   2   5
BRANCH   1  17
HETATM   17  C   UNL     1       4.656  31.212  55.303  1.00  0.00     0.184 C 
BRANCH  17  18
HETATM   18  S   UNL     1       3.177  31.379  54.260  1.00  0.00    -0.094 SA
BRANCH  18  19
HETATM   19  C   UNL     1       3.700  30.465  52.857  1.00  0.00     0.136 A 
HETATM   20  S   UNL     1       3.212  28.848  52.588  1.00  0.00    -0.061 SA
HETATM   21  C   UNL     1       4.136  28.816  51.135  1.00  0.00     0.036 A 
HETATM   22  C   UNL     1       4.754  30.058  50.965  1.00  0.00     0.075 A 
HETATM   23  C   UNL     1       4.306  27.771  50.210  1.00  0.00     0.021 A 
HETATM   24  C   UNL     1       5.564  30.264  49.829  1.00  0.00     0.033 A 
HETATM   25  N   UNL     1       4.501  30.986  51.960  1.00  0.00    -0.233 NA
HETATM   26  C   UNL     1       5.739  29.230  48.904  1.00  0.00     0.002 A 
HETATM   27  C   UNL     1       5.117  28.000  49.094  1.00  0.00     0.002 A 
ENDBRANCH  18  19
ENDBRANCH  17  18
ENDBRANCH   1  17
TORSDOF 5
ENDMDL
MODEL 9
REMARK VINA RESULT:      -8.2      7.191     10.295
REMARK  5 active torsions:
REMARK  status: ('A' for Active; 'I' for Inactive)
REMARK    1  A    between atoms: C_6  and  S_7 
REMARK    2  A    between atoms: S_7  and  C_8 
REMARK    3  A    between atoms: C_8  and  C_9 
REMARK       I    between atoms: C_9  and  N_10 
REMARK    4  A    between atoms: N_10  and  C_11 
REMARK    5  A    between atoms: C_14  and  C_15 
ROOT
HETATM    1  C   UNL     1       4.866  27.279  53.009  1.00  0.00     0.233 C 
HETATM    2  N   UNL     1       4.972  28.046  51.868  1.00  0.00    -0.305 N 
HETATM    3  O   UNL     1       4.230  26.234  53.124  1.00  0.00    -0.272 OA
HETATM    4  H   UNL     1       5.442  28.938  51.900  1.00  0.00     0.171 HD
ENDROOT
BRANCH   2   5
HETATM    5  C   UNL     1       4.398  27.679  50.684  1.00  0.00     0.173 A 
HETATM    6  S   UNL     1       4.990  26.217  50.037  1.00  0.00    -0.061 SA
HETATM    7  C   UNL     1       3.892  26.383  48.722  1.00  0.00     0.085 A 
HETATM    8  C   UNL     1       3.145  27.538  48.871  1.00  0.00     0.076 A 
HETATM    9  N   UNL     1       3.458  28.274  50.004  1.00  0.00    -0.223 NA
BRANCH   8  10
HETATM   10  C   UNL     1       2.105  28.003  47.951  1.00  0.00    -0.007 A 
HETATM   11  C   UNL     1       1.985  29.344  47.558  1.00  0.00     0.015 A 
HETATM   12  C   UNL     1       0.980  29.741  46.667  1.00  0.00     0.020 A 
HETATM   13  C   UNL     1       0.088  28.799  46.162  1.00  0.00     0.011 A 
HETATM   14 BR   UNL     1      -1.265  29.337  44.956  1.00  0.00    -0.051 Br
HETATM   15  C   UNL     1       0.190  27.463  46.536  1.00  0.00     0.020 A 
HETATM   16  C   UNL     1       1.195  27.071  47.425  1.00  0.00     0.015 A 
ENDBRANCH   8  10
ENDBRANCH   2   5
BRANCH   1  17
HETATM   17  C   UNL     1       5.716  27.776  54.166  1.00  0.00     0.184 C 
BRANCH  17  18
HETATM   18  S   UNL     1       7.495  27.596  53.838  1.00  0.00    -0.094 SA
BRANCH  18  19
HETATM   19  C   UNL     1       7.621  25.847  53.844  1.00  0.00     0.136 A 
HETATM   20  S   UNL     1       7.867  24.945  52.412  1.00  0.00    -0.061 SA
HETATM   21  C   UNL     1       7.849  23.488  53.332  1.00  0.00     0.036 A 
HETATM   22  C   UNL     1       7.654  23.807  54.679  1.00  0.00     0.075 A 
HETATM   23  C   UNL     1       7.996  22.160  52.899  1.00  0.00     0.021 A 
HETATM   24  C   UNL     1       7.610  22.762  55.624  1.00  0.00     0.033 A 
HETATM   25  N   UNL     1       7.518  25.157  54.954  1.00  0.00    -0.233 NA
HETATM   26  C   UNL     1       7.756  21.437  55.203  1.00  0.00     0.002 A 
HETATM   27  C   UNL     1       7.945  21.142  53.856  1.00  0.00     0.002 A 
ENDBRANCH  18  19
ENDBRANCH  17  18
ENDBRANCH   1  17
TORSDOF 5
ENDMDL
MODEL 10
REMARK VINA RESULT:      -8.1      4.404     10.991
REMARK  5 active torsions:
REMARK  status: ('A' for Active; 'I' for Inactive)
REMARK    1  A    between atoms: C_6  and  S_7 
REMARK    2  A    between atoms: S_7  and  C_8 
REMARK    3  A    between atoms: C_8  and  C_9 
REMARK       I    between atoms: C_9  and  N_10 
REMARK    4  A    between atoms: N_10  and  C_11 
REMARK    5  A    between atoms: C_14  and  C_15 
ROOT
HETATM    1  C   UNL     1       6.612  30.792  58.322  1.00  0.00     0.233 C 
HETATM    2  N   UNL     1       5.473  30.038  58.139  1.00  0.00    -0.305 N 
HETATM    3  O   UNL     1       7.663  30.683  57.694  1.00  0.00    -0.272 OA
HETATM    4  H   UNL     1       4.692  30.140  58.769  1.00  0.00     0.171 HD
ENDROOT
BRANCH   2   5
HETATM    5  C   UNL     1       5.374  29.086  57.164  1.00  0.00     0.173 A 
HETATM    6  S   UNL     1       4.368  29.518  55.857  1.00  0.00    -0.061 SA
HETATM    7  C   UNL     1       4.734  28.012  55.109  1.00  0.00     0.085 A 
HETATM    8  C   UNL     1       5.604  27.287  55.904  1.00  0.00     0.076 A 
HETATM    9  N   UNL     1       5.954  27.921  57.086  1.00  0.00    -0.223 NA
BRANCH   8  10
HETATM   10  C   UNL     1       6.142  25.962  55.587  1.00  0.00    -0.007 A 
HETATM   11  C   UNL     1       5.962  25.349  54.338  1.00  0.00     0.015 A 
HETATM   12  C   UNL     1       6.503  24.084  54.079  1.00  0.00     0.020 A 
HETATM   13  C   UNL     1       7.231  23.423  55.065  1.00  0.00     0.011 A 
HETATM   14 BR   UNL     1       7.964  21.718  54.709  1.00  0.00    -0.051 Br
HETATM   15  C   UNL     1       7.423  24.013  56.309  1.00  0.00     0.020 A 
HETATM   16  C   UNL     1       6.881  25.276  56.565  1.00  0.00     0.015 A 
ENDBRANCH   8  10
ENDBRANCH   2   5
BRANCH   1  17
HETATM   17  C   UNL     1       6.456  31.906  59.343  1.00  0.00     0.184 C 
BRANCH  17  18
HETATM   18  S   UNL     1       7.910  32.057  60.423  1.00  0.00    -0.094 SA
BRANCH  18  19
HETATM   19  C   UNL     1       7.131  32.613  61.892  1.00  0.00     0.136 A 
HETATM   20  S   UNL     1       7.952  32.682  63.391  1.00  0.00    -0.061 SA
HETATM   21  C   UNL     1       6.521  33.277  64.143  1.00  0.00     0.036 A 
HETATM   22  C   UNL     1       5.513  33.378  63.180  1.00  0.00     0.075 A 
HETATM   23  C   UNL     1       6.300  33.629  65.486  1.00  0.00     0.021 A 
HETATM   24  C   UNL     1       4.245  33.852  63.572  1.00  0.00     0.033 A 
HETATM   25  N   UNL     1       5.874  32.988  61.902  1.00  0.00    -0.233 NA
HETATM   26  C   UNL     1       4.016  34.205  64.905  1.00  0.00     0.002 A 
HETATM   27  C   UNL     1       5.033  34.093  65.849  1.00  0.00     0.002 A 
ENDBRANCH  18  19
ENDBRANCH  17  18
ENDBRANCH   1  17
TORSDOF 5
ENDMDL
