MODEL 1
REMARK VINA RESULT:      -9.5      0.000      0.000
REMARK  6 active torsions:
REMARK  status: ('A' for Active; 'I' for Inactive)
REMARK    1  A    between atoms: C_10  and  C_11 
REMARK       I    between atoms: C_11  and  N_12 
REMARK    2  A    between atoms: N_12  and  C_13 
REMARK    3  A    between atoms: C_13  and  C_14 
REMARK    4  A    between atoms: C_14  and  N_15 
REMARK    5  A    between atoms: C_14  and  C_19 
REMARK    6  A    between atoms: C_20  and  O_21 
ROOT
HETATM    1  C   UNL     1       5.914  26.953  55.513  1.00  0.00     0.276 C 
HETATM    2  N   UNL     1       6.565  27.480  56.614  1.00  0.00    -0.353 N 
HETATM    3  O   UNL     1       4.942  27.518  55.021  1.00  0.00    -0.265 OA
HETATM    4  H   UNL     1       7.267  26.869  57.026  1.00  0.00     0.162 HD
ENDROOT
BRANCH   2   5
HETATM    5  C   UNL     1       5.999  28.561  57.395  1.00  0.00     0.161 C 
BRANCH   5   6
HETATM    6  C   UNL     1       6.431  30.024  57.014  1.00  0.00     0.240 C 
BRANCH   6   7
HETATM    7  N   UNL     1       5.175  30.940  56.892  1.00  0.00    -0.069 N 
HETATM    8  H   UNL     1       5.404  31.822  57.363  1.00  0.00     0.279 HD
HETATM    9  C   UNL     1       4.886  31.290  55.449  1.00  0.00     0.270 C 
HETATM   10  C   UNL     1       3.941  30.363  57.528  1.00  0.00     0.270 C 
ENDBRANCH   6   7
BRANCH   6  11
HETATM   11  C   UNL     1       7.434  30.613  58.004  1.00  0.00     0.007 A 
HETATM   12  C   UNL     1       8.791  30.224  57.955  1.00  0.00     0.076 A 
HETATM   13  C   UNL     1       9.711  30.777  58.850  1.00  0.00     0.037 A 
HETATM   14  C   UNL     1       9.297  31.715  59.795  1.00  0.00     0.003 A 
HETATM   15  C   UNL     1       7.966  32.115  59.847  1.00  0.00     0.001 A 
HETATM   16  C   UNL     1       7.039  31.574  58.955  1.00  0.00     0.012 A 
BRANCH  12  17
HETATM   17  O   UNL     1       9.129  29.350  56.954  1.00  0.00    -0.355 OA
HETATM   18  C   UNL     1      10.213  29.725  56.107  1.00  0.00     0.210 C 
ENDBRANCH  12  17
ENDBRANCH   6  11
ENDBRANCH   5   6
ENDBRANCH   2   5
BRANCH   1  19
HETATM   19  C   UNL     1       6.467  25.697  55.051  1.00  0.00     0.150 A 
HETATM   20  O   UNL     1       6.796  24.757  55.992  1.00  0.00    -0.304 OA
HETATM   21  C   UNL     1       7.208  23.645  55.328  1.00  0.00     0.087 A 
HETATM   22  C   UNL     1       7.585  22.445  55.925  1.00  0.00     0.045 A 
HETATM   23  C   UNL     1       7.189  23.865  53.961  1.00  0.00     0.007 A 
HETATM   24  C   UNL     1       7.961  21.390  55.073  1.00  0.00    -0.053 A 
HETATM   25  C   UNL     1       8.000  21.583  53.674  1.00  0.00    -0.055 A 
HETATM   26  C   UNL     1       8.357  20.074  55.695  1.00  0.00     0.049 C 
HETATM   27  C   UNL     1       8.413  20.475  52.739  1.00  0.00     0.049 C 
HETATM   28  C   UNL     1       7.597  22.817  53.116  1.00  0.00     0.022 A 
HETATM   29  C   UNL     1       6.710  25.200  53.777  1.00  0.00    -0.009 A 
HETATM   30  C   UNL     1       6.496  25.901  52.486  1.00  0.00     0.052 C 
ENDBRANCH   1  19
TORSDOF 6
ENDMDL
MODEL 2
REMARK VINA RESULT:      -9.2      1.678      2.752
REMARK  6 active torsions:
REMARK  status: ('A' for Active; 'I' for Inactive)
REMARK    1  A    between atoms: C_10  and  C_11 
REMARK       I    between atoms: C_11  and  N_12 
REMARK    2  A    between atoms: N_12  and  C_13 
REMARK    3  A    between atoms: C_13  and  C_14 
REMARK    4  A    between atoms: C_14  and  N_15 
REMARK    5  A    between atoms: C_14  and  C_19 
REMARK    6  A    between atoms: C_20  and  O_21 
ROOT
HETATM    1  C   UNL     1       6.940  27.596  55.405  1.00  0.00     0.276 C 
HETATM    2  N   UNL     1       8.065  28.309  55.775  1.00  0.00    -0.353 N 
HETATM    3  O   UNL     1       5.826  28.111  55.433  1.00  0.00    -0.265 OA
HETATM    4  H   UNL     1       8.916  27.755  55.849  1.00  0.00     0.162 HD
ENDROOT
BRANCH   2   5
HETATM    5  C   UNL     1       7.976  29.588  56.451  1.00  0.00     0.161 C 
BRANCH   5   6
HETATM    6  C   UNL     1       8.485  29.652  57.937  1.00  0.00     0.240 C 
BRANCH   6   7
HETATM    7  N   UNL     1      10.004  30.002  57.970  1.00  0.00    -0.069 N 
HETATM    8  H   UNL     1      10.378  29.617  58.845  1.00  0.00     0.279 HD
HETATM    9  C   UNL     1      10.753  29.315  56.849  1.00  0.00     0.270 C 
HETATM   10  C   UNL     1      10.286  31.478  57.936  1.00  0.00     0.270 C 
ENDBRANCH   6   7
BRANCH   6  11
HETATM   11  C   UNL     1       7.685  30.638  58.786  1.00  0.00     0.007 A 
HETATM   12  C   UNL     1       7.991  30.806  60.155  1.00  0.00     0.076 A 
HETATM   13  C   UNL     1       7.270  31.722  60.926  1.00  0.00     0.037 A 
HETATM   14  C   UNL     1       6.247  32.474  60.351  1.00  0.00     0.003 A 
HETATM   15  C   UNL     1       5.942  32.326  59.003  1.00  0.00     0.001 A 
HETATM   16  C   UNL     1       6.659  31.419  58.221  1.00  0.00     0.012 A 
BRANCH  12  17
HETATM   17  O   UNL     1       9.055  30.080  60.626  1.00  0.00    -0.355 OA
HETATM   18  C   UNL     1       9.449  30.313  61.976  1.00  0.00     0.210 C 
ENDBRANCH  12  17
ENDBRANCH   6  11
ENDBRANCH   5   6
ENDBRANCH   2   5
BRANCH   1  19
HETATM   19  C   UNL     1       7.212  26.224  55.030  1.00  0.00     0.150 A 
HETATM   20  O   UNL     1       7.433  25.317  56.034  1.00  0.00    -0.304 OA
HETATM   21  C   UNL     1       7.578  24.097  55.454  1.00  0.00     0.087 A 
HETATM   22  C   UNL     1       7.770  22.899  56.136  1.00  0.00     0.045 A 
HETATM   23  C   UNL     1       7.496  24.206  54.075  1.00  0.00     0.007 A 
HETATM   24  C   UNL     1       7.877  21.726  55.366  1.00  0.00    -0.053 A 
HETATM   25  C   UNL     1       7.844  21.795  53.955  1.00  0.00    -0.055 A 
HETATM   26  C   UNL     1       8.067  20.414  56.083  1.00  0.00     0.049 C 
HETATM   27  C   UNL     1       7.971  20.556  53.105  1.00  0.00     0.049 C 
HETATM   28  C   UNL     1       7.636  23.034  53.310  1.00  0.00     0.022 A 
HETATM   29  C   UNL     1       7.260  25.589  53.797  1.00  0.00    -0.009 A 
HETATM   30  C   UNL     1       7.082  26.211  52.460  1.00  0.00     0.052 C 
ENDBRANCH   1  19
TORSDOF 6
ENDMDL
MODEL 3
REMARK VINA RESULT:      -9.1      2.881      9.700
REMARK  6 active torsions:
REMARK  status: ('A' for Active; 'I' for Inactive)
REMARK    1  A    between atoms: C_10  and  C_11 
REMARK       I    between atoms: C_11  and  N_12 
REMARK    2  A    between atoms: N_12  and  C_13 
REMARK    3  A    between atoms: C_13  and  C_14 
REMARK    4  A    between atoms: C_14  and  N_15 
REMARK    5  A    between atoms: C_14  and  C_19 
REMARK    6  A    between atoms: C_20  and  O_21 
ROOT
HETATM    1  C   UNL     1       8.416  30.575  59.043  1.00  0.00     0.276 C 
HETATM    2  N   UNL     1       7.806  29.335  58.993  1.00  0.00    -0.353 N 
HETATM    3  O   UNL     1       9.140  30.963  58.131  1.00  0.00    -0.265 OA
HETATM    4  H   UNL     1       7.342  29.053  59.853  1.00  0.00     0.162 HD
ENDROOT
BRANCH   2   5
HETATM    5  C   UNL     1       8.179  28.336  58.012  1.00  0.00     0.161 C 
BRANCH   5   6
HETATM    6  C   UNL     1       7.045  27.806  57.061  1.00  0.00     0.240 C 
BRANCH   6   7
HETATM    7  N   UNL     1       6.985  28.669  55.764  1.00  0.00    -0.069 N 
HETATM    8  H   UNL     1       6.458  28.126  55.070  1.00  0.00     0.279 HD
HETATM    9  C   UNL     1       6.205  29.946  55.987  1.00  0.00     0.270 C 
HETATM   10  C   UNL     1       8.336  28.997  55.192  1.00  0.00     0.270 C 
ENDBRANCH   6   7
BRANCH   6  11
HETATM   11  C   UNL     1       7.215  26.328  56.717  1.00  0.00     0.007 A 
HETATM   12  C   UNL     1       6.344  25.710  55.792  1.00  0.00     0.076 A 
HETATM   13  C   UNL     1       6.512  24.361  55.465  1.00  0.00     0.037 A 
HETATM   14  C   UNL     1       7.538  23.618  56.048  1.00  0.00     0.003 A 
HETATM   15  C   UNL     1       8.408  24.217  56.952  1.00  0.00     0.001 A 
HETATM   16  C   UNL     1       8.254  25.564  57.282  1.00  0.00     0.012 A 
BRANCH  12  17
HETATM   17  O   UNL     1       5.406  26.525  55.213  1.00  0.00    -0.355 OA
HETATM   18  C   UNL     1       5.148  26.330  53.825  1.00  0.00     0.210 C 
ENDBRANCH  12  17
ENDBRANCH   6  11
ENDBRANCH   5   6
ENDBRANCH   2   5
BRANCH   1  19
HETATM   19  C   UNL     1       8.143  31.314  60.258  1.00  0.00     0.150 A 
HETATM   20  O   UNL     1       7.219  32.325  60.199  1.00  0.00    -0.304 OA
HETATM   21  C   UNL     1       7.067  32.810  61.460  1.00  0.00     0.087 A 
HETATM   22  C   UNL     1       6.180  33.816  61.833  1.00  0.00     0.045 A 
HETATM   23  C   UNL     1       7.915  32.150  62.335  1.00  0.00     0.007 A 
HETATM   24  C   UNL     1       6.144  34.173  63.195  1.00  0.00    -0.053 A 
HETATM   25  C   UNL     1       7.022  33.559  64.115  1.00  0.00    -0.055 A 
HETATM   26  C   UNL     1       5.179  35.247  63.627  1.00  0.00     0.049 C 
HETATM   27  C   UNL     1       7.015  33.932  65.576  1.00  0.00     0.049 C 
HETATM   28  C   UNL     1       7.896  32.535  63.688  1.00  0.00     0.022 A 
HETATM   29  C   UNL     1       8.618  31.179  61.556  1.00  0.00    -0.009 A 
HETATM   30  C   UNL     1       9.631  30.209  62.043  1.00  0.00     0.052 C 
ENDBRANCH   1  19
TORSDOF 6
ENDMDL
MODEL 4
REMARK VINA RESULT:      -9.0      1.679      2.840
REMARK  6 active torsions:
REMARK  status: ('A' for Active; 'I' for Inactive)
REMARK    1  A    between atoms: C_10  and  C_11 
REMARK       I    between atoms: C_11  and  N_12 
REMARK    2  A    between atoms: N_12  and  C_13 
REMARK    3  A    between atoms: C_13  and  C_14 
REMARK    4  A    between atoms: C_14  and  N_15 
REMARK    5  A    between atoms: C_14  and  C_19 
REMARK    6  A    between atoms: C_20  and  O_21 
ROOT
HETATM    1  C   UNL     1       6.538  27.249  56.773  1.00  0.00     0.276 C 
HETATM    2  N   UNL     1       7.614  27.984  57.237  1.00  0.00    -0.353 N 
HETATM    3  O   UNL     1       5.387  27.649  56.919  1.00  0.00    -0.265 OA
HETATM    4  H   UNL     1       8.510  27.504  57.191  1.00  0.00     0.162 HD
ENDROOT
BRANCH   2   5
HETATM    5  C   UNL     1       7.445  29.113  58.130  1.00  0.00     0.161 C 
BRANCH   5   6
HETATM    6  C   UNL     1       8.750  29.786  58.692  1.00  0.00     0.240 C 
BRANCH   6   7
HETATM    7  N   UNL     1       9.483  30.565  57.558  1.00  0.00    -0.069 N 
HETATM    8  H   UNL     1       8.775  31.142  57.089  1.00  0.00     0.279 HD
HETATM    9  C   UNL     1      10.509  31.524  58.121  1.00  0.00     0.270 C 
HETATM   10  C   UNL     1      10.132  29.677  56.534  1.00  0.00     0.270 C 
ENDBRANCH   6   7
BRANCH   6  11
HETATM   11  C   UNL     1       8.469  30.701  59.881  1.00  0.00     0.007 A 
HETATM   12  C   UNL     1       7.595  31.801  59.739  1.00  0.00     0.076 A 
HETATM   13  C   UNL     1       7.325  32.627  60.833  1.00  0.00     0.037 A 
HETATM   14  C   UNL     1       7.915  32.372  62.071  1.00  0.00     0.003 A 
HETATM   15  C   UNL     1       8.769  31.286  62.227  1.00  0.00     0.001 A 
HETATM   16  C   UNL     1       9.041  30.450  61.144  1.00  0.00     0.012 A 
BRANCH  12  17
HETATM   17  O   UNL     1       7.004  31.943  58.510  1.00  0.00    -0.355 OA
HETATM   18  C   UNL     1       5.656  32.407  58.491  1.00  0.00     0.210 C 
ENDBRANCH  12  17
ENDBRANCH   6  11
ENDBRANCH   5   6
ENDBRANCH   2   5
BRANCH   1  19
HETATM   19  C   UNL     1       6.909  25.993  56.156  1.00  0.00     0.150 A 
HETATM   20  O   UNL     1       7.555  25.064  56.930  1.00  0.00    -0.304 OA
HETATM   21  C   UNL     1       7.722  23.949  56.172  1.00  0.00     0.087 A 
HETATM   22  C   UNL     1       8.295  22.758  56.608  1.00  0.00     0.045 A 
HETATM   23  C   UNL     1       7.228  24.157  54.894  1.00  0.00     0.007 A 
HETATM   24  C   UNL     1       8.364  21.697  55.684  1.00  0.00    -0.053 A 
HETATM   25  C   UNL     1       7.913  21.878  54.357  1.00  0.00    -0.055 A 
HETATM   26  C   UNL     1       8.964  20.391  56.138  1.00  0.00     0.049 C 
HETATM   27  C   UNL     1       7.988  20.765  53.344  1.00  0.00     0.049 C 
HETATM   28  C   UNL     1       7.329  23.104  53.967  1.00  0.00     0.022 A 
HETATM   29  C   UNL     1       6.701  25.487  54.880  1.00  0.00    -0.009 A 
HETATM   30  C   UNL     1       6.046  26.174  53.739  1.00  0.00     0.052 C 
ENDBRANCH   1  19
TORSDOF 6
ENDMDL
MODEL 5
REMARK VINA RESULT:      -8.9      4.334      7.734
REMARK  6 active torsions:
REMARK  status: ('A' for Active; 'I' for Inactive)
REMARK    1  A    between atoms: C_10  and  C_11 
REMARK       I    between atoms: C_11  and  N_12 
REMARK    2  A    between atoms: N_12  and  C_13 
REMARK    3  A    between atoms: C_13  and  C_14 
REMARK    4  A    between atoms: C_14  and  N_15 
REMARK    5  A    between atoms: C_14  and  C_19 
REMARK    6  A    between atoms: C_20  and  O_21 
ROOT
HETATM    1  C   UNL     1       6.056  26.733  52.474  1.00  0.00     0.276 C 
HETATM    2  N   UNL     1       5.563  26.528  51.198  1.00  0.00    -0.353 N 
HETATM    3  O   UNL     1       6.176  27.866  52.932  1.00  0.00    -0.265 OA
HETATM    4  H   UNL     1       5.632  25.569  50.864  1.00  0.00     0.162 HD
ENDROOT
BRANCH   2   5
HETATM    5  C   UNL     1       5.410  27.613  50.250  1.00  0.00     0.161 C 
BRANCH   5   6
HETATM    6  C   UNL     1       4.005  28.317  50.186  1.00  0.00     0.240 C 
BRANCH   6   7
HETATM    7  N   UNL     1       4.183  29.861  50.055  1.00  0.00    -0.069 N 
HETATM    8  H   UNL     1       3.306  30.229  49.670  1.00  0.00     0.279 HD
HETATM    9  C   UNL     1       4.362  30.512  51.409  1.00  0.00     0.270 C 
HETATM   10  C   UNL     1       5.312  30.265  49.148  1.00  0.00     0.270 C 
ENDBRANCH   6   7
BRANCH   6  11
HETATM   11  C   UNL     1       3.132  27.777  49.056  1.00  0.00     0.007 A 
HETATM   12  C   UNL     1       1.791  28.204  48.929  1.00  0.00     0.076 A 
HETATM   13  C   UNL     1       1.000  27.722  47.883  1.00  0.00     0.037 A 
HETATM   14  C   UNL     1       1.526  26.819  46.959  1.00  0.00     0.003 A 
HETATM   15  C   UNL     1       2.847  26.399  47.067  1.00  0.00     0.001 A 
HETATM   16  C   UNL     1       3.649  26.877  48.103  1.00  0.00     0.012 A 
BRANCH  12  17
HETATM   17  O   UNL     1       1.372  29.143  49.835  1.00  0.00    -0.355 OA
HETATM   18  C   UNL     1       0.950  30.401  49.313  1.00  0.00     0.210 C 
ENDBRANCH  12  17
ENDBRANCH   6  11
ENDBRANCH   5   6
ENDBRANCH   2   5
BRANCH   1  19
HETATM   19  C   UNL     1       6.427  25.515  53.161  1.00  0.00     0.150 A 
HETATM   20  O   UNL     1       6.917  24.478  52.410  1.00  0.00    -0.304 OA
HETATM   21  C   UNL     1       7.274  23.487  53.269  1.00  0.00     0.087 A 
HETATM   22  C   UNL     1       7.861  22.279  52.904  1.00  0.00     0.045 A 
HETATM   23  C   UNL     1       6.983  23.853  54.573  1.00  0.00     0.007 A 
HETATM   24  C   UNL     1       8.185  21.380  53.937  1.00  0.00    -0.053 A 
HETATM   25  C   UNL     1       7.866  21.691  55.278  1.00  0.00    -0.055 A 
HETATM   26  C   UNL     1       8.838  20.072  53.569  1.00  0.00     0.049 C 
HETATM   27  C   UNL     1       8.188  20.740  56.402  1.00  0.00     0.049 C 
HETATM   28  C   UNL     1       7.280  22.935  55.598  1.00  0.00     0.022 A 
HETATM   29  C   UNL     1       6.430  25.170  54.506  1.00  0.00    -0.009 A 
HETATM   30  C   UNL     1       5.973  26.004  55.647  1.00  0.00     0.052 C 
ENDBRANCH   1  19
TORSDOF 6
ENDMDL
MODEL 6
REMARK VINA RESULT:      -8.9      1.355      2.311
REMARK  6 active torsions:
REMARK  status: ('A' for Active; 'I' for Inactive)
REMARK    1  A    between atoms: C_10  and  C_11 
REMARK       I    between atoms: C_11  and  N_12 
REMARK    2  A    between atoms: N_12  and  C_13 
REMARK    3  A    between atoms: C_13  and  C_14 
REMARK    4  A    between atoms: C_14  and  N_15 
REMARK    5  A    between atoms: C_14  and  C_19 
REMARK    6  A    between atoms: C_20  and  O_21 
ROOT
HETATM    1  C   UNL     1       6.038  27.056  54.229  1.00  0.00     0.276 C 
HETATM    2  N   UNL     1       6.923  27.973  54.765  1.00  0.00    -0.353 N 
HETATM    3  O   UNL     1       4.889  27.378  53.941  1.00  0.00    -0.265 OA
HETATM    4  H   UNL     1       7.800  27.576  55.094  1.00  0.00     0.162 HD
ENDROOT
BRANCH   2   5
HETATM    5  C   UNL     1       6.489  29.267  55.251  1.00  0.00     0.161 C 
BRANCH   5   6
HETATM    6  C   UNL     1       6.805  29.614  56.751  1.00  0.00     0.240 C 
BRANCH   6   7
HETATM    7  N   UNL     1       6.283  28.480  57.686  1.00  0.00    -0.069 N 
HETATM    8  H   UNL     1       6.198  28.885  58.625  1.00  0.00     0.279 HD
HETATM    9  C   UNL     1       4.893  28.033  57.287  1.00  0.00     0.270 C 
HETATM   10  C   UNL     1       7.195  27.288  57.759  1.00  0.00     0.270 C 
ENDBRANCH   6   7
BRANCH   6  11
HETATM   11  C   UNL     1       8.291  29.868  56.990  1.00  0.00     0.007 A 
HETATM   12  C   UNL     1       8.716  30.556  58.149  1.00  0.00     0.076 A 
HETATM   13  C   UNL     1      10.078  30.773  58.375  1.00  0.00     0.037 A 
HETATM   14  C   UNL     1      11.025  30.312  57.461  1.00  0.00     0.003 A 
HETATM   15  C   UNL     1      10.622  29.625  56.322  1.00  0.00     0.001 A 
HETATM   16  C   UNL     1       9.265  29.397  56.088  1.00  0.00     0.012 A 
BRANCH  12  17
HETATM   17  O   UNL     1       7.728  30.915  59.030  1.00  0.00    -0.355 OA
HETATM   18  C   UNL     1       8.080  30.964  60.411  1.00  0.00     0.210 C 
ENDBRANCH  12  17
ENDBRANCH   6  11
ENDBRANCH   5   6
ENDBRANCH   2   5
BRANCH   1  19
HETATM   19  C   UNL     1       6.588  25.724  54.087  1.00  0.00     0.150 A 
HETATM   20  O   UNL     1       6.799  24.993  55.226  1.00  0.00    -0.304 OA
HETATM   21  C   UNL     1       7.232  23.762  54.844  1.00  0.00     0.087 A 
HETATM   22  C   UNL     1       7.514  22.705  55.705  1.00  0.00     0.045 A 
HETATM   23  C   UNL     1       7.345  23.698  53.465  1.00  0.00     0.007 A 
HETATM   24  C   UNL     1       7.930  21.492  55.124  1.00  0.00    -0.053 A 
HETATM   25  C   UNL     1       8.102  21.394  53.726  1.00  0.00    -0.055 A 
HETATM   26  C   UNL     1       8.224  20.327  56.035  1.00  0.00     0.049 C 
HETATM   27  C   UNL     1       8.561  20.112  53.079  1.00  0.00     0.049 C 
HETATM   28  C   UNL     1       7.793  22.493  52.894  1.00  0.00     0.022 A 
HETATM   29  C   UNL     1       6.929  24.974  52.969  1.00  0.00    -0.009 A 
HETATM   30  C   UNL     1       6.856  25.398  51.548  1.00  0.00     0.052 C 
ENDBRANCH   1  19
TORSDOF 6
ENDMDL
MODEL 7
REMARK VINA RESULT:      -8.8      1.547      1.937
REMARK  6 active torsions:
REMARK  status: ('A' for Active; 'I' for Inactive)
REMARK    1  A    between atoms: C_10  and  C_11 
REMARK       I    between atoms: C_11  and  N_12 
REMARK    2  A    between atoms: N_12  and  C_13 
REMARK    3  A    between atoms: C_13  and  C_14 
REMARK    4  A    between atoms: C_14  and  N_15 
REMARK    5  A    between atoms: C_14  and  C_19 
REMARK    6  A    between atoms: C_20  and  O_21 
ROOT
HETATM    1  C   UNL     1       5.091  26.257  56.128  1.00  0.00     0.276 C 
HETATM    2  N   UNL     1       4.771  27.257  55.227  1.00  0.00    -0.353 N 
HETATM    3  O   UNL     1       4.745  26.329  57.304  1.00  0.00    -0.265 OA
HETATM    4  H   UNL     1       5.218  27.170  54.318  1.00  0.00     0.162 HD
ENDROOT
BRANCH   2   5
HETATM    5  C   UNL     1       4.249  28.539  55.656  1.00  0.00     0.161 C 
BRANCH   5   6
HETATM    6  C   UNL     1       5.213  29.776  55.555  1.00  0.00     0.240 C 
BRANCH   6   7
HETATM    7  N   UNL     1       4.484  31.066  56.040  1.00  0.00    -0.069 N 
HETATM    8  H   UNL     1       4.991  31.400  56.868  1.00  0.00     0.279 HD
HETATM    9  C   UNL     1       4.573  32.171  55.010  1.00  0.00     0.270 C 
HETATM   10  C   UNL     1       3.046  30.843  56.418  1.00  0.00     0.270 C 
ENDBRANCH   6   7
BRANCH   6  11
HETATM   11  C   UNL     1       6.513  29.568  56.329  1.00  0.00     0.007 A 
HETATM   12  C   UNL     1       7.640  29.009  55.685  1.00  0.00     0.076 A 
HETATM   13  C   UNL     1       8.834  28.836  56.390  1.00  0.00     0.037 A 
HETATM   14  C   UNL     1       8.922  29.213  57.730  1.00  0.00     0.003 A 
HETATM   15  C   UNL     1       7.824  29.773  58.372  1.00  0.00     0.001 A 
HETATM   16  C   UNL     1       6.628  29.957  57.678  1.00  0.00     0.012 A 
BRANCH  12  17
HETATM   17  O   UNL     1       7.492  28.729  54.352  1.00  0.00    -0.355 OA
HETATM   18  C   UNL     1       8.115  27.542  53.867  1.00  0.00     0.210 C 
ENDBRANCH  12  17
ENDBRANCH   6  11
ENDBRANCH   5   6
ENDBRANCH   2   5
BRANCH   1  19
HETATM   19  C   UNL     1       5.876  25.183  55.557  1.00  0.00     0.150 A 
HETATM   20  O   UNL     1       6.665  24.446  56.402  1.00  0.00    -0.304 OA
HETATM   21  C   UNL     1       7.232  23.455  55.665  1.00  0.00     0.087 A 
HETATM   22  C   UNL     1       8.066  22.458  56.164  1.00  0.00     0.045 A 
HETATM   23  C   UNL     1       6.853  23.564  54.337  1.00  0.00     0.007 A 
HETATM   24  C   UNL     1       8.543  21.498  55.252  1.00  0.00    -0.053 A 
HETATM   25  C   UNL     1       8.219  21.595  53.881  1.00  0.00    -0.055 A 
HETATM   26  C   UNL     1       9.434  20.398  55.772  1.00  0.00     0.049 C 
HETATM   27  C   UNL     1       8.729  20.589  52.880  1.00  0.00     0.049 C 
HETATM   28  C   UNL     1       7.360  22.619  53.425  1.00  0.00     0.022 A 
HETATM   29  C   UNL     1       5.973  24.689  54.263  1.00  0.00    -0.009 A 
HETATM   30  C   UNL     1       5.288  25.206  53.052  1.00  0.00     0.052 C 
ENDBRANCH   1  19
TORSDOF 6
ENDMDL
MODEL 8
REMARK VINA RESULT:      -8.7      2.008      8.986
REMARK  6 active torsions:
REMARK  status: ('A' for Active; 'I' for Inactive)
REMARK    1  A    between atoms: C_10  and  C_11 
REMARK       I    between atoms: C_11  and  N_12 
REMARK    2  A    between atoms: N_12  and  C_13 
REMARK    3  A    between atoms: C_13  and  C_14 
REMARK    4  A    between atoms: C_14  and  N_15 
REMARK    5  A    between atoms: C_14  and  C_19 
REMARK    6  A    between atoms: C_20  and  O_21 
ROOT
HETATM    1  C   UNL     1       8.669  29.233  57.824  1.00  0.00     0.276 C 
HETATM    2  N   UNL     1       7.856  28.157  57.519  1.00  0.00    -0.353 N 
HETATM    3  O   UNL     1       9.773  29.361  57.303  1.00  0.00    -0.265 OA
HETATM    4  H   UNL     1       7.026  28.070  58.102  1.00  0.00     0.162 HD
ENDROOT
BRANCH   2   5
HETATM    5  C   UNL     1       8.347  27.006  56.787  1.00  0.00     0.161 C 
BRANCH   5   6
HETATM    6  C   UNL     1       7.320  25.854  56.487  1.00  0.00     0.240 C 
BRANCH   6   7
HETATM    7  N   UNL     1       5.862  26.374  56.669  1.00  0.00    -0.069 N 
HETATM    8  H   UNL     1       5.906  27.153  57.336  1.00  0.00     0.279 HD
HETATM    9  C   UNL     1       5.315  26.947  55.380  1.00  0.00     0.270 C 
HETATM   10  C   UNL     1       4.912  25.338  57.204  1.00  0.00     0.270 C 
ENDBRANCH   6   7
BRANCH   6  11
HETATM   11  C   UNL     1       7.509  25.252  55.096  1.00  0.00     0.007 A 
HETATM   12  C   UNL     1       7.512  23.850  54.925  1.00  0.00     0.076 A 
HETATM   13  C   UNL     1       7.666  23.301  53.649  1.00  0.00     0.037 A 
HETATM   14  C   UNL     1       7.818  24.131  52.539  1.00  0.00     0.003 A 
HETATM   15  C   UNL     1       7.807  25.513  52.692  1.00  0.00     0.001 A 
HETATM   16  C   UNL     1       7.647  26.073  53.960  1.00  0.00     0.012 A 
BRANCH  12  17
HETATM   17  O   UNL     1       7.288  23.107  56.055  1.00  0.00    -0.355 OA
HETATM   18  C   UNL     1       8.405  22.407  56.600  1.00  0.00     0.210 C 
ENDBRANCH  12  17
ENDBRANCH   6  11
ENDBRANCH   5   6
ENDBRANCH   2   5
BRANCH   1  19
HETATM   19  C   UNL     1       8.105  30.132  58.809  1.00  0.00     0.150 A 
HETATM   20  O   UNL     1       8.678  30.158  60.055  1.00  0.00    -0.304 OA
HETATM   21  C   UNL     1       8.046  31.124  60.772  1.00  0.00     0.087 A 
HETATM   22  C   UNL     1       8.366  31.499  62.074  1.00  0.00     0.045 A 
HETATM   23  C   UNL     1       7.037  31.701  60.018  1.00  0.00     0.007 A 
HETATM   24  C   UNL     1       7.614  32.540  62.650  1.00  0.00    -0.053 A 
HETATM   25  C   UNL     1       6.547  33.128  61.935  1.00  0.00    -0.055 A 
HETATM   26  C   UNL     1       7.953  32.976  64.052  1.00  0.00     0.049 C 
HETATM   27  C   UNL     1       5.716  34.234  62.533  1.00  0.00     0.049 C 
HETATM   28  C   UNL     1       6.269  32.720  60.611  1.00  0.00     0.022 A 
HETATM   29  C   UNL     1       7.071  31.056  58.742  1.00  0.00    -0.009 A 
HETATM   30  C   UNL     1       6.193  31.336  57.577  1.00  0.00     0.052 C 
ENDBRANCH   1  19
TORSDOF 6
ENDMDL
MODEL 9
REMARK VINA RESULT:      -8.6      4.605      7.166
REMARK  6 active torsions:
REMARK  status: ('A' for Active; 'I' for Inactive)
REMARK    1  A    between atoms: C_10  and  C_11 
REMARK       I    between atoms: C_11  and  N_12 
REMARK    2  A    between atoms: N_12  and  C_13 
REMARK    3  A    between atoms: C_13  and  C_14 
REMARK    4  A    between atoms: C_14  and  N_15 
REMARK    5  A    between atoms: C_14  and  C_19 
REMARK    6  A    between atoms: C_20  and  O_21 
ROOT
HETATM    1  C   UNL     1       4.345  27.576  53.533  1.00  0.00     0.276 C 
HETATM    2  N   UNL     1       3.695  27.773  52.329  1.00  0.00    -0.353 N 
HETATM    3  O   UNL     1       4.199  28.359  54.467  1.00  0.00    -0.265 OA
HETATM    4  H   UNL     1       3.988  27.150  51.579  1.00  0.00     0.162 HD
ENDROOT
BRANCH   2   5
HETATM    5  C   UNL     1       3.025  29.018  52.012  1.00  0.00     0.161 C 
BRANCH   5   6
HETATM    6  C   UNL     1       2.459  29.178  50.554  1.00  0.00     0.240 C 
BRANCH   6   7
HETATM    7  N   UNL     1       2.153  30.678  50.258  1.00  0.00    -0.069 N 
HETATM    8  H   UNL     1       2.743  30.950  49.464  1.00  0.00     0.279 HD
HETATM    9  C   UNL     1       0.720  30.872  49.811  1.00  0.00     0.270 C 
HETATM   10  C   UNL     1       2.450  31.595  51.412  1.00  0.00     0.270 C 
ENDBRANCH   6   7
BRANCH   6  11
HETATM   11  C   UNL     1       3.397  28.600  49.497  1.00  0.00     0.007 A 
HETATM   12  C   UNL     1       2.923  27.637  48.578  1.00  0.00     0.076 A 
HETATM   13  C   UNL     1       3.778  27.122  47.600  1.00  0.00     0.037 A 
HETATM   14  C   UNL     1       5.102  27.555  47.523  1.00  0.00     0.003 A 
HETATM   15  C   UNL     1       5.578  28.509  48.415  1.00  0.00     0.001 A 
HETATM   16  C   UNL     1       4.732  29.035  49.392  1.00  0.00     0.012 A 
BRANCH  12  17
HETATM   17  O   UNL     1       1.594  27.316  48.677  1.00  0.00    -0.355 OA
HETATM   18  C   UNL     1       0.817  27.405  47.484  1.00  0.00     0.210 C 
ENDBRANCH  12  17
ENDBRANCH   6  11
ENDBRANCH   5   6
ENDBRANCH   2   5
BRANCH   1  19
HETATM   19  C   UNL     1       5.206  26.412  53.551  1.00  0.00     0.150 A 
HETATM   20  O   UNL     1       5.594  25.920  54.770  1.00  0.00    -0.304 OA
HETATM   21  C   UNL     1       6.316  24.792  54.541  1.00  0.00     0.087 A 
HETATM   22  C   UNL     1       6.851  23.966  55.526  1.00  0.00     0.045 A 
HETATM   23  C   UNL     1       6.437  24.565  53.180  1.00  0.00     0.007 A 
HETATM   24  C   UNL     1       7.552  22.822  55.099  1.00  0.00    -0.053 A 
HETATM   25  C   UNL     1       7.739  22.575  53.720  1.00  0.00    -0.055 A 
HETATM   26  C   UNL     1       8.125  21.902  56.146  1.00  0.00     0.049 C 
HETATM   27  C   UNL     1       8.499  21.366  53.236  1.00  0.00     0.049 C 
HETATM   28  C   UNL     1       7.167  23.438  52.760  1.00  0.00     0.022 A 
HETATM   29  C   UNL     1       5.719  25.619  52.533  1.00  0.00    -0.009 A 
HETATM   30  C   UNL     1       5.541  25.811  51.071  1.00  0.00     0.052 C 
ENDBRANCH   1  19
TORSDOF 6
ENDMDL
MODEL 10
REMARK VINA RESULT:      -8.5      3.926     10.162
REMARK  6 active torsions:
REMARK  status: ('A' for Active; 'I' for Inactive)
REMARK    1  A    between atoms: C_10  and  C_11 
REMARK       I    between atoms: C_11  and  N_12 
REMARK    2  A    between atoms: N_12  and  C_13 
REMARK    3  A    between atoms: C_13  and  C_14 
REMARK    4  A    between atoms: C_14  and  N_15 
REMARK    5  A    between atoms: C_14  and  C_19 
REMARK    6  A    between atoms: C_20  and  O_21 
ROOT
HETATM    1  C   UNL     1       8.089  31.980  60.377  1.00  0.00     0.276 C 
HETATM    2  N   UNL     1       7.987  30.627  60.108  1.00  0.00    -0.353 N 
HETATM    3  O   UNL     1       8.816  32.706  59.706  1.00  0.00    -0.265 OA
HETATM    4  H   UNL     1       7.469  30.092  60.802  1.00  0.00     0.162 HD
ENDROOT
BRANCH   2   5
HETATM    5  C   UNL     1       8.904  29.951  59.212  1.00  0.00     0.161 C 
BRANCH   5   6
HETATM    6  C   UNL     1       8.604  30.045  57.672  1.00  0.00     0.240 C 
BRANCH   6   7
HETATM    7  N   UNL     1       9.711  29.304  56.863  1.00  0.00    -0.069 N 
HETATM    8  H   UNL     1       9.643  28.310  57.110  1.00  0.00     0.279 HD
HETATM    9  C   UNL     1       9.458  29.391  55.374  1.00  0.00     0.270 C 
HETATM   10  C   UNL     1      11.104  29.779  57.167  1.00  0.00     0.270 C 
ENDBRANCH   6   7
BRANCH   6  11
HETATM   11  C   UNL     1       7.221  29.507  57.313  1.00  0.00     0.007 A 
HETATM   12  C   UNL     1       6.946  28.126  57.426  1.00  0.00     0.076 A 
HETATM   13  C   UNL     1       5.674  27.638  57.114  1.00  0.00     0.037 A 
HETATM   14  C   UNL     1       4.670  28.507  56.690  1.00  0.00     0.003 A 
HETATM   15  C   UNL     1       4.925  29.870  56.583  1.00  0.00     0.001 A 
HETATM   16  C   UNL     1       6.188  30.371  56.897  1.00  0.00     0.012 A 
BRANCH  12  17
HETATM   17  O   UNL     1       7.964  27.349  57.916  1.00  0.00    -0.355 OA
HETATM   18  C   UNL     1       7.880  25.947  57.675  1.00  0.00     0.210 C 
ENDBRANCH  12  17
ENDBRANCH   6  11
ENDBRANCH   5   6
ENDBRANCH   2   5
BRANCH   1  19
HETATM   19  C   UNL     1       7.300  32.412  61.512  1.00  0.00     0.150 A 
HETATM   20  O   UNL     1       7.929  32.524  62.724  1.00  0.00    -0.304 OA
HETATM   21  C   UNL     1       7.024  33.022  63.607  1.00  0.00     0.087 A 
HETATM   22  C   UNL     1       7.284  33.328  64.940  1.00  0.00     0.045 A 
HETATM   23  C   UNL     1       5.796  33.197  62.990  1.00  0.00     0.007 A 
HETATM   24  C   UNL     1       6.224  33.859  65.699  1.00  0.00    -0.053 A 
HETATM   25  C   UNL     1       4.943  34.014  65.124  1.00  0.00    -0.055 A 
HETATM   26  C   UNL     1       6.486  34.216  67.141  1.00  0.00     0.049 C 
HETATM   27  C   UNL     1       3.787  34.566  65.919  1.00  0.00     0.049 C 
HETATM   28  C   UNL     1       4.733  33.698  63.764  1.00  0.00     0.022 A 
HETATM   29  C   UNL     1       5.972  32.799  61.628  1.00  0.00    -0.009 A 
HETATM   30  C   UNL     1       4.946  32.818  60.554  1.00  0.00     0.052 C 
ENDBRANCH   1  19
TORSDOF 6
ENDMDL
