MODEL 1
REMARK VINA RESULT:      -8.5      0.000      0.000
REMARK  8 active torsions:
REMARK  status: ('A' for Active; 'I' for Inactive)
REMARK    1  A    between atoms: C_1  and  C_15 
REMARK    2  A    between atoms: C_2  and  C_11 
REMARK    3  A    between atoms: C_2  and  N_12 
REMARK    4  A    between atoms: C_5  and  C_6 
REMARK    5  A    between atoms: C_6  and  O_7 
REMARK       I    between atoms: N_10  and  C_11 
REMARK    6  A    between atoms: C_16  and  O_17 
REMARK    7  A    between atoms: C_20  and  O_22 
REMARK    8  A    between atoms: C_25  and  O_26 
ROOT
HETATM    1  C           1       5.743  28.446  56.759  0.00  0.00     0.231 C 
HETATM    2  N           1       6.820  29.456  57.116  0.00  0.00    -0.054 N 
HETATM    3  C           1       6.125  27.035  57.273  0.00  0.00     0.055 C 
HETATM    4  C           1       7.583  26.581  57.111  0.00  0.00     0.065 C 
HETATM    5  C           1       8.540  27.732  57.449  0.00  0.00     0.066 C 
HETATM    6  C           1       8.235  29.060  56.754  0.00  0.00     0.239 C 
HETATM    7  C           1       5.095  25.949  56.884  0.00  0.00     0.010 C 
HETATM    8  C           1       5.679  24.745  56.129  0.00  0.00     0.001 C 
HETATM    9  C           1       6.714  25.211  55.103  0.00  0.00     0.003 C 
HETATM   10  C           1       7.906  25.917  55.767  0.00  0.00     0.038 C 
HETATM   11  H           1       6.806  29.505  58.163  0.00  0.00     0.281 HD
ENDROOT
BRANCH   2  12
HETATM   12  C           1       6.480  30.851  56.630  0.00  0.00     0.338 C 
BRANCH  12  13
HETATM   13  C           1       6.055  31.743  57.786  0.00  0.00     0.248 C 
HETATM   14  N           1       6.794  31.557  58.917  0.00  0.00    -0.319 N 
HETATM   15  C           1       6.747  32.102  60.148  0.00  0.00     0.094 A 
HETATM   16  H           1       7.570  30.923  58.837  0.00  0.00     0.169 HD
HETATM   17  C           1       7.743  32.070  61.059  0.00  0.00     0.080 A 
HETATM   18  S           1       5.500  32.592  60.733  0.00  0.00    -0.076 SA
HETATM   19  C           1       7.294  32.592  62.215  0.00  0.00    -0.030 A 
HETATM   20  C           1       8.068  32.787  63.493  0.00  0.00     0.050 C 
HETATM   21  C           1       6.001  32.926  62.070  0.00  0.00    -0.012 A 
HETATM   22  C           1       5.128  33.541  63.134  0.00  0.00     0.057 C 
HETATM   23  O           1       5.161  32.541  57.666  0.00  0.00    -0.271 OA
BRANCH  17  24
HETATM   24  C           1       9.015  31.603  60.852  0.00  0.00     0.296 C 
HETATM   25  O           1       9.370  30.605  61.448  0.00  0.00    -0.259 OA
BRANCH  24  26
HETATM   26  O           1       9.886  32.221  59.997  0.00  0.00    -0.322 OA
HETATM   27  C           1      10.132  31.639  58.739  0.00  0.00     0.213 C 
ENDBRANCH  24  26
ENDBRANCH  17  24
ENDBRANCH  12  13
ENDBRANCH   2  12
BRANCH   1  28
HETATM   28  C           1       5.180  28.608  55.339  0.00  0.00     0.009 A 
HETATM   29  C           1       3.982  29.213  55.140  0.00  0.00     0.076 A 
HETATM   30  C           1       3.529  29.276  53.872  0.00  0.00     0.040 A 
HETATM   31  C           1       4.238  28.819  52.833  0.00  0.00     0.039 A 
HETATM   32  C           1       5.448  28.258  52.994  0.00  0.00     0.069 A 
HETATM   33  C           1       5.862  28.158  54.271  0.00  0.00     0.048 A 
BRANCH  29  34
HETATM   34  O           1       3.253  29.661  56.216  0.00  0.00    -0.355 OA
HETATM   35  C           1       2.686  30.949  56.181  0.00  0.00     0.210 C 
ENDBRANCH  29  34
BRANCH  32  36
HETATM   36  O           1       6.119  27.792  51.889  0.00  0.00    -0.356 OA
HETATM   37  C           1       5.425  26.996  50.956  0.00  0.00     0.210 C 
ENDBRANCH  32  36
ENDBRANCH   1  28
BRANCH   4  38
HETATM   38  O           1       7.831  25.618  58.117  0.00  0.00    -0.389 OA
HETATM   39  H           1       7.557  25.922  58.981  0.00  0.00     0.210 HD
ENDBRANCH   4  38
TORSDOF 8
ENDMDL
MODEL 2
REMARK VINA RESULT:      -8.2      5.013      8.543
REMARK  8 active torsions:
REMARK  status: ('A' for Active; 'I' for Inactive)
REMARK    1  A    between atoms: C_1  and  C_15 
REMARK    2  A    between atoms: C_2  and  C_11 
REMARK    3  A    between atoms: C_2  and  N_12 
REMARK    4  A    between atoms: C_5  and  C_6 
REMARK    5  A    between atoms: C_6  and  O_7 
REMARK       I    between atoms: N_10  and  C_11 
REMARK    6  A    between atoms: C_16  and  O_17 
REMARK    7  A    between atoms: C_20  and  O_22 
REMARK    8  A    between atoms: C_25  and  O_26 
ROOT
HETATM    1  C           1       3.189  28.655  50.313  0.00  0.00     0.231 C 
HETATM    2  N           1       4.085  27.450  50.084  0.00  0.00    -0.054 N 
HETATM    3  C           1       1.931  28.579  49.413  0.00  0.00     0.055 C 
HETATM    4  C           1       2.113  28.117  47.960  0.00  0.00     0.065 C 
HETATM    5  C           1       3.091  26.937  47.895  0.00  0.00     0.066 C 
HETATM    6  C           1       4.412  27.142  48.638  0.00  0.00     0.239 C 
HETATM    7  C           1       1.009  29.813  49.556  0.00  0.00     0.010 C 
HETATM    8  C           1       0.689  30.537  48.238  0.00  0.00     0.001 C 
HETATM    9  C           1       1.939  30.622  47.361  0.00  0.00     0.003 C 
HETATM   10  C           1       2.462  29.232  46.968  0.00  0.00     0.038 C 
HETATM   11  H           1       3.526  26.630  50.420  0.00  0.00     0.281 HD
ENDROOT
BRANCH   2  12
HETATM   12  C           1       5.329  27.487  50.950  0.00  0.00     0.338 C 
BRANCH  12  13
HETATM   13  C           1       5.454  26.219  51.779  0.00  0.00     0.248 C 
HETATM   14  N           1       6.248  26.363  52.879  0.00  0.00    -0.319 N 
HETATM   15  C           1       6.642  25.516  53.849  0.00  0.00     0.094 A 
HETATM   16  H           1       6.588  27.293  53.056  0.00  0.00     0.169 HD
HETATM   17  C           1       7.149  25.876  55.047  0.00  0.00     0.080 A 
HETATM   18  S           1       6.789  24.081  53.613  0.00  0.00    -0.076 SA
HETATM   19  C           1       7.555  24.771  55.698  0.00  0.00    -0.030 A 
HETATM   20  C           1       8.155  24.690  57.078  0.00  0.00     0.050 C 
HETATM   21  C           1       7.350  23.701  54.912  0.00  0.00    -0.012 A 
HETATM   22  C           1       7.674  22.272  55.271  0.00  0.00     0.057 C 
HETATM   23  O           1       4.872  25.209  51.472  0.00  0.00    -0.271 OA
BRANCH  17  24
HETATM   24  C           1       7.228  27.151  55.543  0.00  0.00     0.296 C 
HETATM   25  O           1       7.958  27.946  54.985  0.00  0.00    -0.259 OA
BRANCH  24  26
HETATM   26  O           1       6.509  27.551  56.636  0.00  0.00    -0.322 OA
HETATM   27  C           1       5.105  27.471  56.594  0.00  0.00     0.213 C 
ENDBRANCH  24  26
ENDBRANCH  17  24
ENDBRANCH  12  13
ENDBRANCH   2  12
BRANCH   1  28
HETATM   28  C           1       3.950  29.983  50.443  0.00  0.00     0.009 A 
HETATM   29  C           1       3.928  30.676  51.609  0.00  0.00     0.076 A 
HETATM   30  C           1       4.577  31.857  51.633  0.00  0.00     0.040 A 
HETATM   31  C           1       5.268  32.319  50.584  0.00  0.00     0.039 A 
HETATM   32  C           1       5.346  31.633  49.431  0.00  0.00     0.069 A 
HETATM   33  C           1       4.651  30.480  49.408  0.00  0.00     0.048 A 
BRANCH  29  34
HETATM   34  O           1       3.200  30.203  52.674  0.00  0.00    -0.355 OA
HETATM   35  C           1       3.873  29.682  53.796  0.00  0.00     0.210 C 
ENDBRANCH  29  34
BRANCH  32  36
HETATM   36  O           1       6.056  32.169  48.383  0.00  0.00    -0.356 OA
HETATM   37  C           1       5.352  32.664  47.268  0.00  0.00     0.210 C 
ENDBRANCH  32  36
ENDBRANCH   1  28
BRANCH   4  38
HETATM   38  O           1       0.878  27.566  47.543  0.00  0.00    -0.389 OA
HETATM   39  H           1       0.132  28.064  47.875  0.00  0.00     0.210 HD
ENDBRANCH   4  38
TORSDOF 8
ENDMDL
MODEL 3
REMARK VINA RESULT:      -7.9      1.981      3.226
REMARK  8 active torsions:
REMARK  status: ('A' for Active; 'I' for Inactive)
REMARK    1  A    between atoms: C_1  and  C_15 
REMARK    2  A    between atoms: C_2  and  C_11 
REMARK    3  A    between atoms: C_2  and  N_12 
REMARK    4  A    between atoms: C_5  and  C_6 
REMARK    5  A    between atoms: C_6  and  O_7 
REMARK       I    between atoms: N_10  and  C_11 
REMARK    6  A    between atoms: C_16  and  O_17 
REMARK    7  A    between atoms: C_20  and  O_22 
REMARK    8  A    between atoms: C_25  and  O_26 
ROOT
HETATM    1  C           1       5.578  27.399  54.818  0.00  0.00     0.231 C 
HETATM    2  N           1       6.830  27.770  55.594  0.00  0.00    -0.054 N 
HETATM    3  C           1       5.598  25.898  54.435  0.00  0.00     0.055 C 
HETATM    4  C           1       6.922  25.299  53.941  0.00  0.00     0.065 C 
HETATM    5  C           1       8.091  25.820  54.787  0.00  0.00     0.066 C 
HETATM    6  C           1       8.140  27.338  54.969  0.00  0.00     0.239 C 
HETATM    7  C           1       4.376  25.472  53.588  0.00  0.00     0.010 C 
HETATM    8  C           1       4.719  24.796  52.252  0.00  0.00     0.001 C 
HETATM    9  C           1       5.895  25.509  51.582  0.00  0.00     0.003 C 
HETATM   10  C           1       7.171  25.441  52.435  0.00  0.00     0.038 C 
HETATM   11  H           1       6.762  27.232  56.490  0.00  0.00     0.281 HD
ENDROOT
BRANCH   2  12
HETATM   12  C           1       6.847  29.233  55.989  0.00  0.00     0.338 C 
BRANCH  12  13
HETATM   13  C           1       7.226  29.399  57.452  0.00  0.00     0.248 C 
HETATM   14  N           1       6.857  30.602  57.977  0.00  0.00    -0.319 N 
HETATM   15  C           1       7.012  31.164  59.191  0.00  0.00     0.094 A 
HETATM   16  H           1       6.317  31.199  57.373  0.00  0.00     0.169 HD
HETATM   17  C           1       6.307  32.214  59.665  0.00  0.00     0.080 A 
HETATM   18  S           1       8.145  30.843  60.056  0.00  0.00    -0.076 SA
HETATM   19  C           1       6.823  32.585  60.851  0.00  0.00    -0.030 A 
HETATM   20  C           1       6.338  33.688  61.756  0.00  0.00     0.050 C 
HETATM   21  C           1       7.882  31.806  61.130  0.00  0.00    -0.012 A 
HETATM   22  C           1       8.740  31.900  62.366  0.00  0.00     0.057 C 
HETATM   23  O           1       7.779  28.518  58.060  0.00  0.00    -0.271 OA
BRANCH  17  24
HETATM   24  C           1       5.230  32.806  59.060  0.00  0.00     0.296 C 
HETATM   25  O           1       5.427  33.528  58.103  0.00  0.00    -0.259 OA
BRANCH  24  26
HETATM   26  O           1       3.949  32.604  59.498  0.00  0.00    -0.322 OA
HETATM   27  C           1       3.165  33.720  59.844  0.00  0.00     0.213 C 
ENDBRANCH  24  26
ENDBRANCH  17  24
ENDBRANCH  12  13
ENDBRANCH   2  12
BRANCH   1  28
HETATM   28  C           1       5.158  28.442  53.773  0.00  0.00     0.009 A 
HETATM   29  C           1       4.150  29.312  54.036  0.00  0.00     0.076 A 
HETATM   30  C           1       3.804  30.166  53.054  0.00  0.00     0.040 A 
HETATM   31  C           1       4.449  30.212  51.881  0.00  0.00     0.039 A 
HETATM   32  C           1       5.480  29.395  51.609  0.00  0.00     0.069 A 
HETATM   33  C           1       5.779  28.515  52.582  0.00  0.00     0.048 A 
BRANCH  29  34
HETATM   34  O           1       3.482  29.244  55.236  0.00  0.00    -0.355 OA
HETATM   35  C           1       3.401  30.390  56.050  0.00  0.00     0.210 C 
ENDBRANCH  29  34
BRANCH  32  36
HETATM   36  O           1       6.089  29.478  50.380  0.00  0.00    -0.356 OA
HETATM   37  C           1       5.492  28.832  49.280  0.00  0.00     0.210 C 
ENDBRANCH  32  36
ENDBRANCH   1  28
BRANCH   4  38
HETATM   38  O           1       6.882  23.914  54.223  0.00  0.00    -0.389 OA
HETATM   39  H           1       6.370  23.429  53.576  0.00  0.00     0.210 HD
ENDBRANCH   4  38
TORSDOF 8
ENDMDL
MODEL 4
REMARK VINA RESULT:      -7.9      5.812      8.952
REMARK  8 active torsions:
REMARK  status: ('A' for Active; 'I' for Inactive)
REMARK    1  A    between atoms: C_1  and  C_15 
REMARK    2  A    between atoms: C_2  and  C_11 
REMARK    3  A    between atoms: C_2  and  N_12 
REMARK    4  A    between atoms: C_5  and  C_6 
REMARK    5  A    between atoms: C_6  and  O_7 
REMARK       I    between atoms: N_10  and  C_11 
REMARK    6  A    between atoms: C_16  and  O_17 
REMARK    7  A    between atoms: C_20  and  O_22 
REMARK    8  A    between atoms: C_25  and  O_26 
ROOT
HETATM    1  C           1       3.335  28.936  49.928  0.00  0.00     0.231 C 
HETATM    2  N           1       4.262  27.735  49.989  0.00  0.00    -0.054 N 
HETATM    3  C           1       1.947  28.527  49.376  0.00  0.00     0.055 C 
HETATM    4  C           1       1.903  27.557  48.187  0.00  0.00     0.065 C 
HETATM    5  C           1       2.939  26.440  48.372  0.00  0.00     0.066 C 
HETATM    6  C           1       4.351  26.911  48.722  0.00  0.00     0.239 C 
HETATM    7  C           1       0.975  29.723  49.231  0.00  0.00     0.010 C 
HETATM    8  C           1       0.376  29.902  47.827  0.00  0.00     0.001 C 
HETATM    9  C           1       1.443  29.657  46.758  0.00  0.00     0.003 C 
HETATM   10  C           1       1.989  28.222  46.808  0.00  0.00     0.038 C 
HETATM   11  H           1       3.833  27.098  50.702  0.00  0.00     0.281 HD
ENDROOT
BRANCH   2  12
HETATM   12  C           1       5.632  28.096  50.527  0.00  0.00     0.338 C 
BRANCH  12  13
HETATM   13  C           1       5.685  27.935  52.038  0.00  0.00     0.248 C 
HETATM   14  N           1       6.004  26.673  52.441  0.00  0.00    -0.319 N 
HETATM   15  C           1       6.134  26.096  53.652  0.00  0.00     0.094 A 
HETATM   16  H           1       6.242  26.024  51.709  0.00  0.00     0.169 HD
HETATM   17  C           1       6.779  24.937  53.904  0.00  0.00     0.080 A 
HETATM   18  S           1       5.374  26.552  54.813  0.00  0.00    -0.076 SA
HETATM   19  C           1       6.589  24.605  55.194  0.00  0.00    -0.030 A 
HETATM   20  C           1       7.146  23.409  55.923  0.00  0.00     0.050 C 
HETATM   21  C           1       5.793  25.522  55.769  0.00  0.00    -0.012 A 
HETATM   22  C           1       5.338  25.513  57.206  0.00  0.00     0.057 C 
HETATM   23  O           1       5.480  28.867  52.775  0.00  0.00    -0.271 OA
BRANCH  17  24
HETATM   24  C           1       7.523  24.213  53.010  0.00  0.00     0.296 C 
HETATM   25  O           1       8.374  24.790  52.361  0.00  0.00    -0.259 OA
BRANCH  24  26
HETATM   26  O           1       7.339  22.868  52.832  0.00  0.00    -0.322 OA
HETATM   27  C           1       8.432  22.002  53.019  0.00  0.00     0.213 C 
ENDBRANCH  24  26
ENDBRANCH  17  24
ENDBRANCH  12  13
ENDBRANCH   2  12
BRANCH   1  28
HETATM   28  C           1       4.006  30.219  49.415  0.00  0.00     0.009 A 
HETATM   29  C           1       4.222  31.264  50.253  0.00  0.00     0.076 A 
HETATM   30  C           1       4.771  32.374  49.722  0.00  0.00     0.040 A 
HETATM   31  C           1       5.148  32.446  48.439  0.00  0.00     0.039 A 
HETATM   32  C           1       4.990  31.411  47.597  0.00  0.00     0.069 A 
HETATM   33  C           1       4.394  30.329  48.132  0.00  0.00     0.048 A 
BRANCH  29  34
HETATM   34  O           1       3.814  31.187  51.563  0.00  0.00    -0.355 OA
HETATM   35  C           1       4.110  32.245  52.444  0.00  0.00     0.210 C 
ENDBRANCH  29  34
BRANCH  32  36
HETATM   36  O           1       5.380  31.553  46.287  0.00  0.00    -0.356 OA
HETATM   37  C           1       5.596  32.849  45.778  0.00  0.00     0.210 C 
ENDBRANCH  32  36
ENDBRANCH   1  28
BRANCH   4  38
HETATM   38  O           1       0.658  26.887  48.244  0.00  0.00    -0.389 OA
HETATM   39  H           1       0.592  26.195  47.588  0.00  0.00     0.210 HD
ENDBRANCH   4  38
TORSDOF 8
ENDMDL
MODEL 5
REMARK VINA RESULT:      -7.6      1.602      2.145
REMARK  8 active torsions:
REMARK  status: ('A' for Active; 'I' for Inactive)
REMARK    1  A    between atoms: C_1  and  C_15 
REMARK    2  A    between atoms: C_2  and  C_11 
REMARK    3  A    between atoms: C_2  and  N_12 
REMARK    4  A    between atoms: C_5  and  C_6 
REMARK    5  A    between atoms: C_6  and  O_7 
REMARK       I    between atoms: N_10  and  C_11 
REMARK    6  A    between atoms: C_16  and  O_17 
REMARK    7  A    between atoms: C_20  and  O_22 
REMARK    8  A    between atoms: C_25  and  O_26 
ROOT
HETATM    1  C           1       5.928  27.502  56.049  0.00  0.00     0.231 C 
HETATM    2  N           1       6.627  28.790  56.448  0.00  0.00    -0.054 N 
HETATM    3  C           1       6.293  26.357  57.027  0.00  0.00     0.055 C 
HETATM    4  C           1       7.754  26.240  57.485  0.00  0.00     0.065 C 
HETATM    5  C           1       8.330  27.629  57.788  0.00  0.00     0.066 C 
HETATM    6  C           1       8.117  28.678  56.695  0.00  0.00     0.239 C 
HETATM    7  C           1       5.660  25.001  56.635  0.00  0.00     0.010 C 
HETATM    8  C           1       6.658  23.844  56.477  0.00  0.00     0.001 C 
HETATM    9  C           1       7.922  24.325  55.761  0.00  0.00     0.003 C 
HETATM   10  C           1       8.655  25.414  56.559  0.00  0.00     0.038 C 
HETATM   11  H           1       6.213  29.046  57.375  0.00  0.00     0.281 HD
ENDROOT
BRANCH   2  12
HETATM   12  C           1       6.294  29.936  55.514  0.00  0.00     0.338 C 
BRANCH  12  13
HETATM   13  C           1       5.601  31.065  56.261  0.00  0.00     0.248 C 
HETATM   14  N           1       6.042  31.221  57.542  0.00  0.00    -0.319 N 
HETATM   15  C           1       5.698  32.058  58.540  0.00  0.00     0.094 A 
HETATM   16  H           1       6.814  30.636  57.816  0.00  0.00     0.169 HD
HETATM   17  C           1       6.443  32.322  59.635  0.00  0.00     0.080 A 
HETATM   18  S           1       4.348  32.602  58.665  0.00  0.00    -0.076 SA
HETATM   19  C           1       5.727  33.092  60.473  0.00  0.00    -0.030 A 
HETATM   20  C           1       6.166  33.655  61.801  0.00  0.00     0.050 C 
HETATM   21  C           1       4.509  33.297  59.946  0.00  0.00    -0.012 A 
HETATM   22  C           1       3.403  34.108  60.575  0.00  0.00     0.057 C 
HETATM   23  O           1       4.765  31.749  55.728  0.00  0.00    -0.271 OA
BRANCH  17  24
HETATM   24  C           1       7.726  31.897  59.863  0.00  0.00     0.296 C 
HETATM   25  O           1       8.631  32.432  59.255  0.00  0.00    -0.259 OA
BRANCH  24  26
HETATM   26  O           1       8.012  30.899  60.754  0.00  0.00    -0.322 OA
HETATM   27  C           1       9.285  30.868  61.355  0.00  0.00     0.213 C 
ENDBRANCH  24  26
ENDBRANCH  17  24
ENDBRANCH  12  13
ENDBRANCH   2  12
BRANCH   1  28
HETATM   28  C           1       5.926  27.235  54.536  0.00  0.00     0.009 A 
HETATM   29  C           1       4.906  27.681  53.761  0.00  0.00     0.076 A 
HETATM   30  C           1       4.947  27.367  52.452  0.00  0.00     0.040 A 
HETATM   31  C           1       5.968  26.694  51.906  0.00  0.00     0.039 A 
HETATM   32  C           1       7.015  26.281  52.639  0.00  0.00     0.069 A 
HETATM   33  C           1       6.933  26.559  53.954  0.00  0.00     0.048 A 
BRANCH  29  34
HETATM   34  O           1       3.853  28.353  54.335  0.00  0.00    -0.355 OA
HETATM   35  C           1       3.247  29.416  53.637  0.00  0.00     0.210 C 
ENDBRANCH  29  34
BRANCH  32  36
HETATM   36  O           1       8.024  25.579  52.024  0.00  0.00    -0.356 OA
HETATM   37  C           1       8.051  24.176  52.150  0.00  0.00     0.210 C 
ENDBRANCH  32  36
ENDBRANCH   1  28
BRANCH   4  38
HETATM   38  O           1       7.744  25.588  58.739  0.00  0.00    -0.389 OA
HETATM   39  H           1       8.616  25.542  59.129  0.00  0.00     0.210 HD
ENDBRANCH   4  38
TORSDOF 8
ENDMDL
MODEL 6
REMARK VINA RESULT:      -7.5      4.076      9.054
REMARK  8 active torsions:
REMARK  status: ('A' for Active; 'I' for Inactive)
REMARK    1  A    between atoms: C_1  and  C_15 
REMARK    2  A    between atoms: C_2  and  C_11 
REMARK    3  A    between atoms: C_2  and  N_12 
REMARK    4  A    between atoms: C_5  and  C_6 
REMARK    5  A    between atoms: C_6  and  O_7 
REMARK       I    between atoms: N_10  and  C_11 
REMARK    6  A    between atoms: C_16  and  O_17 
REMARK    7  A    between atoms: C_20  and  O_22 
REMARK    8  A    between atoms: C_25  and  O_26 
ROOT
HETATM    1  C           1       7.109  27.280  54.170  0.00  0.00     0.231 C 
HETATM    2  N           1       6.310  27.390  52.883  0.00  0.00    -0.054 N 
HETATM    3  C           1       7.238  25.800  54.608  0.00  0.00     0.055 C 
HETATM    4  C           1       5.999  24.902  54.484  0.00  0.00     0.065 C 
HETATM    5  C           1       5.271  25.179  53.162  0.00  0.00     0.066 C 
HETATM    6  C           1       4.987  26.653  52.869  0.00  0.00     0.239 C 
HETATM    7  C           1       7.990  25.628  55.949  0.00  0.00     0.010 C 
HETATM    8  C           1       7.223  24.843  57.025  0.00  0.00     0.001 C 
HETATM    9  C           1       5.748  25.250  57.030  0.00  0.00     0.003 C 
HETATM   10  C           1       5.059  24.929  55.694  0.00  0.00     0.038 C 
HETATM   11  H           1       6.898  26.914  52.159  0.00  0.00     0.281 HD
ENDROOT
BRANCH   2  12
HETATM   12  C           1       6.163  28.826  52.421  0.00  0.00     0.338 C 
BRANCH  12  13
HETATM   13  C           1       4.749  29.101  51.935  0.00  0.00     0.248 C 
HETATM   14  N           1       4.504  28.632  50.678  0.00  0.00    -0.319 N 
HETATM   15  C           1       3.426  28.677  49.871  0.00  0.00     0.094 A 
HETATM   16  H           1       5.246  28.100  50.254  0.00  0.00     0.169 HD
HETATM   17  C           1       3.217  27.886  48.797  0.00  0.00     0.080 A 
HETATM   18  S           1       2.456  29.768  49.932  0.00  0.00    -0.076 SA
HETATM   19  C           1       2.109  28.303  48.158  0.00  0.00    -0.030 A 
HETATM   20  C           1       1.479  27.701  46.929  0.00  0.00     0.050 C 
HETATM   21  C           1       1.621  29.384  48.790  0.00  0.00    -0.012 A 
HETATM   22  C           1       0.389  30.154  48.389  0.00  0.00     0.057 C 
HETATM   23  O           1       3.944  29.661  52.634  0.00  0.00    -0.271 OA
BRANCH  17  24
HETATM   24  C           1       3.987  26.819  48.415  0.00  0.00     0.296 C 
HETATM   25  O           1       4.933  27.020  47.678  0.00  0.00    -0.259 OA
BRANCH  24  26
HETATM   26  O           1       3.725  25.545  48.840  0.00  0.00    -0.322 OA
HETATM   27  C           1       3.049  24.664  47.974  0.00  0.00     0.213 C 
ENDBRANCH  24  26
ENDBRANCH  17  24
ENDBRANCH  12  13
ENDBRANCH   2  12
BRANCH   1  28
HETATM   28  C           1       6.764  28.352  55.214  0.00  0.00     0.009 A 
HETATM   29  C           1       7.737  29.135  55.743  0.00  0.00     0.076 A 
HETATM   30  C           1       7.367  30.020  56.689  0.00  0.00     0.040 A 
HETATM   31  C           1       6.092  30.178  57.066  0.00  0.00     0.039 A 
HETATM   32  C           1       5.101  29.450  56.527  0.00  0.00     0.069 A 
HETATM   33  C           1       5.495  28.536  55.620  0.00  0.00     0.048 A 
BRANCH  29  34
HETATM   34  O           1       9.046  28.952  55.363  0.00  0.00    -0.355 OA
HETATM   35  C           1      10.065  29.660  56.028  0.00  0.00     0.210 C 
ENDBRANCH  29  34
BRANCH  32  36
HETATM   36  O           1       3.814  29.645  56.969  0.00  0.00    -0.356 OA
HETATM   37  C           1       3.190  30.884  56.721  0.00  0.00     0.210 C 
ENDBRANCH  32  36
ENDBRANCH   1  28
BRANCH   4  38
HETATM   38  O           1       6.462  23.572  54.351  0.00  0.00    -0.389 OA
HETATM   39  H           1       6.410  23.090  55.175  0.00  0.00     0.210 HD
ENDBRANCH   4  38
TORSDOF 8
ENDMDL
MODEL 7
REMARK VINA RESULT:      -7.4      5.150      9.577
REMARK  8 active torsions:
REMARK  status: ('A' for Active; 'I' for Inactive)
REMARK    1  A    between atoms: C_1  and  C_15 
REMARK    2  A    between atoms: C_2  and  C_11 
REMARK    3  A    between atoms: C_2  and  N_12 
REMARK    4  A    between atoms: C_5  and  C_6 
REMARK    5  A    between atoms: C_6  and  O_7 
REMARK       I    between atoms: N_10  and  C_11 
REMARK    6  A    between atoms: C_16  and  O_17 
REMARK    7  A    between atoms: C_20  and  O_22 
REMARK    8  A    between atoms: C_25  and  O_26 
ROOT
HETATM    1  C           1       3.237  29.941  48.643  0.00  0.00     0.231 C 
HETATM    2  N           1       2.628  30.283  49.992  0.00  0.00    -0.054 N 
HETATM    3  C           1       3.432  31.220  47.791  0.00  0.00     0.055 C 
HETATM    4  C           1       2.309  32.267  47.798  0.00  0.00     0.065 C 
HETATM    5  C           1       1.761  32.450  49.219  0.00  0.00     0.066 C 
HETATM    6  C           1       1.392  31.157  49.949  0.00  0.00     0.239 C 
HETATM    7  C           1       3.993  30.928  46.379  0.00  0.00     0.010 C 
HETATM    8  C           1       3.150  31.484  45.221  0.00  0.00     0.001 C 
HETATM    9  C           1       1.660  31.281  45.502  0.00  0.00     0.003 C 
HETATM   10  C           1       1.204  32.034  46.762  0.00  0.00     0.038 C 
HETATM   11  H           1       3.355  30.859  50.478  0.00  0.00     0.281 HD
ENDROOT
BRANCH   2  12
HETATM   12  C           1       2.423  29.055  50.856  0.00  0.00     0.338 C 
BRANCH  12  13
HETATM   13  C           1       3.186  29.177  52.166  0.00  0.00     0.248 C 
HETATM   14  N           1       3.774  28.013  52.563  0.00  0.00    -0.319 N 
HETATM   15  C           1       4.506  27.671  53.642  0.00  0.00     0.094 A 
HETATM   16  H           1       3.705  27.243  51.919  0.00  0.00     0.169 HD
HETATM   17  C           1       5.300  26.583  53.738  0.00  0.00     0.080 A 
HETATM   18  S           1       4.332  28.326  54.936  0.00  0.00    -0.076 SA
HETATM   19  C           1       5.763  26.493  54.998  0.00  0.00    -0.030 A 
HETATM   20  C           1       6.706  25.457  55.555  0.00  0.00     0.050 C 
HETATM   21  C           1       5.243  27.493  55.728  0.00  0.00    -0.012 A 
HETATM   22  C           1       5.510  27.746  57.190  0.00  0.00     0.057 C 
HETATM   23  O           1       3.259  30.226  52.753  0.00  0.00    -0.271 OA
BRANCH  17  24
HETATM   24  C           1       5.608  25.713  52.725  0.00  0.00     0.296 C 
HETATM   25  O           1       4.788  24.873  52.412  0.00  0.00    -0.259 OA
BRANCH  24  26
HETATM   26  O           1       6.803  25.768  52.059  0.00  0.00    -0.322 OA
HETATM   27  C           1       7.661  24.653  52.109  0.00  0.00     0.213 C 
ENDBRANCH  24  26
ENDBRANCH  17  24
ENDBRANCH  12  13
ENDBRANCH   2  12
BRANCH   1  28
HETATM   28  C           1       2.649  28.679  47.993  0.00  0.00     0.009 A 
HETATM   29  C           1       3.419  27.578  47.810  0.00  0.00     0.076 A 
HETATM   30  C           1       2.848  26.527  47.189  0.00  0.00     0.040 A 
HETATM   31  C           1       1.564  26.525  46.813  0.00  0.00     0.039 A 
HETATM   32  C           1       0.764  27.584  47.023  0.00  0.00     0.069 A 
HETATM   33  C           1       1.363  28.643  47.599  0.00  0.00     0.048 A 
BRANCH  29  34
HETATM   34  O           1       4.742  27.597  48.182  0.00  0.00    -0.355 OA
HETATM   35  C           1       5.144  26.914  49.346  0.00  0.00     0.210 C 
ENDBRANCH  29  34
BRANCH  32  36
HETATM   36  O           1      -0.542  27.528  46.597  0.00  0.00    -0.356 OA
HETATM   37  C           1      -1.120  28.678  46.025  0.00  0.00     0.210 C 
ENDBRANCH  32  36
ENDBRANCH   1  28
BRANCH   4  38
HETATM   38  O           1       2.904  33.514  47.493  0.00  0.00    -0.389 OA
HETATM   39  H           1       2.705  33.799  46.602  0.00  0.00     0.210 HD
ENDBRANCH   4  38
TORSDOF 8
ENDMDL
MODEL 8
REMARK VINA RESULT:      -7.3      5.040      8.081
REMARK  8 active torsions:
REMARK  status: ('A' for Active; 'I' for Inactive)
REMARK    1  A    between atoms: C_1  and  C_15 
REMARK    2  A    between atoms: C_2  and  C_11 
REMARK    3  A    between atoms: C_2  and  N_12 
REMARK    4  A    between atoms: C_5  and  C_6 
REMARK    5  A    between atoms: C_6  and  O_7 
REMARK       I    between atoms: N_10  and  C_11 
REMARK    6  A    between atoms: C_16  and  O_17 
REMARK    7  A    between atoms: C_20  and  O_22 
REMARK    8  A    between atoms: C_25  and  O_26 
ROOT
HETATM    1  C           1       2.835  29.023  50.647  0.00  0.00     0.231 C 
HETATM    2  N           1       3.528  28.328  51.807  0.00  0.00    -0.054 N 
HETATM    3  C           1       2.998  28.202  49.344  0.00  0.00     0.055 C 
HETATM    4  C           1       4.368  27.572  49.056  0.00  0.00     0.065 C 
HETATM    5  C           1       4.958  26.971  50.339  0.00  0.00     0.066 C 
HETATM    6  C           1       4.958  27.899  51.555  0.00  0.00     0.239 C 
HETATM    7  C           1       2.366  28.890  48.111  0.00  0.00     0.010 C 
HETATM    8  C           1       3.321  29.095  46.924  0.00  0.00     0.001 C 
HETATM    9  C           1       4.698  29.542  47.420  0.00  0.00     0.003 C 
HETATM   10  C           1       5.356  28.485  48.321  0.00  0.00     0.038 C 
HETATM   11  H           1       2.993  27.438  51.946  0.00  0.00     0.281 HD
ENDROOT
BRANCH   2  12
HETATM   12  C           1       3.389  29.102  53.103  0.00  0.00     0.338 C 
BRANCH  12  13
HETATM   13  C           1       4.483  28.718  54.087  0.00  0.00     0.248 C 
HETATM   14  N           1       4.729  27.377  54.132  0.00  0.00    -0.319 N 
HETATM   15  C           1       5.573  26.619  54.858  0.00  0.00     0.094 A 
HETATM   16  H           1       4.226  26.815  53.466  0.00  0.00     0.169 HD
HETATM   17  C           1       5.946  25.356  54.561  0.00  0.00     0.080 A 
HETATM   18  S           1       6.001  27.003  56.201  0.00  0.00    -0.076 SA
HETATM   19  C           1       6.684  24.870  55.575  0.00  0.00    -0.030 A 
HETATM   20  C           1       7.337  23.514  55.665  0.00  0.00     0.050 C 
HETATM   21  C           1       6.760  25.797  56.544  0.00  0.00    -0.012 A 
HETATM   22  C           1       7.495  25.644  57.851  0.00  0.00     0.057 C 
HETATM   23  O           1       5.068  29.552  54.730  0.00  0.00    -0.271 OA
BRANCH  17  24
HETATM   24  C           1       5.645  24.671  53.413  0.00  0.00     0.296 C 
HETATM   25  O           1       4.482  24.604  53.064  0.00  0.00    -0.259 OA
BRANCH  24  26
HETATM   26  O           1       6.610  24.071  52.651  0.00  0.00    -0.322 OA
HETATM   27  C           1       7.574  24.876  52.015  0.00  0.00     0.213 C 
ENDBRANCH  24  26
ENDBRANCH  17  24
ENDBRANCH  12  13
ENDBRANCH   2  12
BRANCH   1  28
HETATM   28  C           1       3.043  30.544  50.615  0.00  0.00     0.009 A 
HETATM   29  C           1       1.980  31.381  50.518  0.00  0.00     0.076 A 
HETATM   30  C           1       2.242  32.700  50.446  0.00  0.00     0.040 A 
HETATM   31  C           1       3.485  33.191  50.523  0.00  0.00     0.039 A 
HETATM   32  C           1       4.554  32.391  50.667  0.00  0.00     0.069 A 
HETATM   33  C           1       4.278  31.073  50.686  0.00  0.00     0.048 A 
BRANCH  29  34
HETATM   34  O           1       0.709  30.866  50.420  0.00  0.00    -0.355 OA
HETATM   35  C           1      -0.372  31.732  50.167  0.00  0.00     0.210 C 
ENDBRANCH  29  34
BRANCH  32  36
HETATM   36  O           1       5.806  32.954  50.721  0.00  0.00    -0.356 OA
HETATM   37  C           1       5.929  34.353  50.608  0.00  0.00     0.210 C 
ENDBRANCH  32  36
ENDBRANCH   1  28
BRANCH   4  38
HETATM   38  O           1       4.143  26.452  48.222  0.00  0.00    -0.389 OA
HETATM   39  H           1       3.300  26.036  48.398  0.00  0.00     0.210 HD
ENDBRANCH   4  38
TORSDOF 8
ENDMDL
MODEL 9
REMARK VINA RESULT:      -7.3      2.846      8.289
REMARK  8 active torsions:
REMARK  status: ('A' for Active; 'I' for Inactive)
REMARK    1  A    between atoms: C_1  and  C_15 
REMARK    2  A    between atoms: C_2  and  C_11 
REMARK    3  A    between atoms: C_2  and  N_12 
REMARK    4  A    between atoms: C_5  and  C_6 
REMARK    5  A    between atoms: C_6  and  O_7 
REMARK       I    between atoms: N_10  and  C_11 
REMARK    6  A    between atoms: C_16  and  O_17 
REMARK    7  A    between atoms: C_20  and  O_22 
REMARK    8  A    between atoms: C_25  and  O_26 
ROOT
HETATM    1  C           1       4.161  31.613  57.658  0.00  0.00     0.231 C 
HETATM    2  N           1       4.107  32.563  56.474  0.00  0.00    -0.054 N 
HETATM    3  C           1       3.285  32.141  58.822  0.00  0.00     0.055 C 
HETATM    4  C           1       3.336  33.643  59.136  0.00  0.00     0.065 C 
HETATM    5  C           1       3.338  34.459  57.837  0.00  0.00     0.066 C 
HETATM    6  C           1       4.365  34.021  56.792  0.00  0.00     0.239 C 
HETATM    7  C           1       3.349  31.246  60.082  0.00  0.00     0.010 C 
HETATM    8  C           1       3.753  31.975  61.373  0.00  0.00     0.001 C 
HETATM    9  C           1       4.881  32.969  61.092  0.00  0.00     0.003 C 
HETATM   10  C           1       4.450  34.063  60.101  0.00  0.00     0.038 C 
HETATM   11  H           1       3.114  32.525  56.143  0.00  0.00     0.281 HD
ENDROOT
BRANCH   2  12
HETATM   12  C           1       4.951  32.079  55.312  0.00  0.00     0.338 C 
BRANCH  12  13
HETATM   13  C           1       4.097  31.361  54.279  0.00  0.00     0.248 C 
HETATM   14  N           1       4.762  30.374  53.614  0.00  0.00    -0.319 N 
HETATM   15  C           1       4.408  29.526  52.629  0.00  0.00     0.094 A 
HETATM   16  H           1       5.698  30.183  53.931  0.00  0.00     0.169 HD
HETATM   17  C           1       5.055  28.386  52.304  0.00  0.00     0.080 A 
HETATM   18  S           1       3.400  29.875  51.630  0.00  0.00    -0.076 SA
HETATM   19  C           1       4.500  27.872  51.191  0.00  0.00    -0.030 A 
HETATM   20  C           1       4.878  26.596  50.485  0.00  0.00     0.050 C 
HETATM   21  C           1       3.522  28.693  50.772  0.00  0.00    -0.012 A 
HETATM   22  C           1       2.656  28.478  49.557  0.00  0.00     0.057 C 
HETATM   23  O           1       2.940  31.652  54.111  0.00  0.00    -0.271 OA
BRANCH  17  24
HETATM   24  C           1       6.097  27.822  52.992  0.00  0.00     0.296 C 
HETATM   25  O           1       7.135  28.447  53.089  0.00  0.00    -0.259 OA
BRANCH  24  26
HETATM   26  O           1       5.999  26.587  53.574  0.00  0.00    -0.322 OA
HETATM   27  C           1       7.050  25.668  53.399  0.00  0.00     0.213 C 
ENDBRANCH  24  26
ENDBRANCH  17  24
ENDBRANCH  12  13
ENDBRANCH   2  12
BRANCH   1  28
HETATM   28  C           1       5.563  31.061  57.954  0.00  0.00     0.009 A 
HETATM   29  C           1       5.858  29.761  57.702  0.00  0.00     0.076 A 
HETATM   30  C           1       7.093  29.337  58.033  0.00  0.00     0.040 A 
HETATM   31  C           1       8.024  30.156  58.536  0.00  0.00     0.039 A 
HETATM   32  C           1       7.776  31.459  58.753  0.00  0.00     0.069 A 
HETATM   33  C           1       6.522  31.855  58.465  0.00  0.00     0.048 A 
BRANCH  29  34
HETATM   34  O           1       4.889  28.924  57.203  0.00  0.00    -0.355 OA
HETATM   35  C           1       5.231  27.605  56.846  0.00  0.00     0.210 C 
ENDBRANCH  29  34
BRANCH  32  36
HETATM   36  O           1       8.768  32.245  59.290  0.00  0.00    -0.356 OA
HETATM   37  C           1      10.113  31.915  59.031  0.00  0.00     0.210 C 
ENDBRANCH  32  36
ENDBRANCH   1  28
BRANCH   4  38
HETATM   38  O           1       2.108  33.978  59.754  0.00  0.00    -0.389 OA
HETATM   39  H           1       2.226  34.586  60.482  0.00  0.00     0.210 HD
ENDBRANCH   4  38
TORSDOF 8
ENDMDL
MODEL 10
REMARK VINA RESULT:      -7.3      4.197      8.597
REMARK  8 active torsions:
REMARK  status: ('A' for Active; 'I' for Inactive)
REMARK    1  A    between atoms: C_1  and  C_15 
REMARK    2  A    between atoms: C_2  and  C_11 
REMARK    3  A    between atoms: C_2  and  N_12 
REMARK    4  A    between atoms: C_5  and  C_6 
REMARK    5  A    between atoms: C_6  and  O_7 
REMARK       I    between atoms: N_10  and  C_11 
REMARK    6  A    between atoms: C_16  and  O_17 
REMARK    7  A    between atoms: C_20  and  O_22 
REMARK    8  A    between atoms: C_25  and  O_26 
ROOT
HETATM    1  C           1       7.065  27.219  54.189  0.00  0.00     0.231 C 
HETATM    2  N           1       6.207  27.134  52.939  0.00  0.00    -0.054 N 
HETATM    3  C           1       7.354  25.805  54.751  0.00  0.00     0.055 C 
HETATM    4  C           1       6.203  24.789  54.768  0.00  0.00     0.065 C 
HETATM    5  C           1       5.399  24.873  53.465  0.00  0.00     0.066 C 
HETATM    6  C           1       4.962  26.280  53.056  0.00  0.00     0.239 C 
HETATM    7  C           1       8.174  25.829  56.062  0.00  0.00     0.010 C 
HETATM    8  C           1       7.531  25.082  57.241  0.00  0.00     0.001 C 
HETATM    9  C           1       6.025  25.349  57.282  0.00  0.00     0.003 C 
HETATM   10  C           1       5.316  24.842  56.017  0.00  0.00     0.038 C 
HETATM   11  H           1       6.808  26.648  52.231  0.00  0.00     0.281 HD
ENDROOT
BRANCH   2  12
HETATM   12  C           1       5.903  28.500  52.358  0.00  0.00     0.338 C 
BRANCH  12  13
HETATM   13  C           1       5.187  28.378  51.022  0.00  0.00     0.248 C 
HETATM   14  N           1       4.140  29.241  50.885  0.00  0.00    -0.319 N 
HETATM   15  C           1       3.242  29.451  49.902  0.00  0.00     0.094 A 
HETATM   16  H           1       4.012  29.900  51.634  0.00  0.00     0.169 HD
HETATM   17  C           1       2.478  30.556  49.762  0.00  0.00     0.080 A 
HETATM   18  S           1       2.817  28.385  48.998  0.00  0.00    -0.076 SA
HETATM   19  C           1       1.609  30.358  48.754  0.00  0.00    -0.030 A 
HETATM   20  C           1       0.586  31.329  48.223  0.00  0.00     0.050 C 
HETATM   21  C           1       1.779  29.117  48.267  0.00  0.00    -0.012 A 
HETATM   22  C           1       0.998  28.504  47.132  0.00  0.00     0.057 C 
HETATM   23  O           1       5.557  27.598  50.182  0.00  0.00    -0.271 OA
BRANCH  17  24
HETATM   24  C           1       2.571  31.704  50.502  0.00  0.00     0.296 C 
HETATM   25  O           1       3.052  32.693  49.984  0.00  0.00    -0.259 OA
BRANCH  24  26
HETATM   26  O           1       2.135  31.770  51.798  0.00  0.00    -0.322 OA
HETATM   27  C           1       3.039  32.170  52.800  0.00  0.00     0.213 C 
ENDBRANCH  24  26
ENDBRANCH  17  24
ENDBRANCH  12  13
ENDBRANCH   2  12
BRANCH   1  28
HETATM   28  C           1       6.661  28.348  55.149  0.00  0.00     0.009 A 
HETATM   29  C           1       7.596  29.194  55.648  0.00  0.00     0.076 A 
HETATM   30  C           1       7.175  30.128  56.522  0.00  0.00     0.040 A 
HETATM   31  C           1       5.887  30.272  56.855  0.00  0.00     0.039 A 
HETATM   32  C           1       4.931  29.479  56.342  0.00  0.00     0.069 A 
HETATM   33  C           1       5.376  28.519  55.510  0.00  0.00     0.048 A 
BRANCH  29  34
HETATM   34  O           1       8.919  29.026  55.315  0.00  0.00    -0.355 OA
HETATM   35  C           1       9.914  29.656  56.087  0.00  0.00     0.210 C 
ENDBRANCH  29  34
BRANCH  32  36
HETATM   36  O           1       3.628  29.665  56.737  0.00  0.00    -0.356 OA
HETATM   37  C           1       2.974  30.861  56.385  0.00  0.00     0.210 C 
ENDBRANCH  32  36
ENDBRANCH   1  28
BRANCH   4  38
HETATM   38  O           1       6.787  23.501  54.733  0.00  0.00    -0.389 OA
HETATM   39  H           1       7.075  23.212  55.598  0.00  0.00     0.210 HD
ENDBRANCH   4  38
TORSDOF 8
ENDMDL
