MODEL 1
REMARK VINA RESULT:      -8.9      0.000      0.000
REMARK  4 active torsions:
REMARK  status: ('A' for Active; 'I' for Inactive)
REMARK    1  A    between atoms: C_6  and  O_7 
REMARK    2  A    between atoms: C_6  and  C_8 
REMARK    3  A    between atoms: N_15  and  C_17 
REMARK    4  A    between atoms: C_17  and  C_18 
ROOT
HETATM    1  C   UNL     1       4.810  28.366  52.188  1.00  0.00    -0.023 A 
HETATM    2  C   UNL     1       5.966  27.813  52.791  1.00  0.00     0.022 A 
HETATM    3  C   UNL     1       6.331  28.102  54.119  1.00  0.00     0.002 A 
HETATM    4  C   UNL     1       5.501  28.933  54.865  1.00  0.00     0.076 A 
HETATM    5  O   UNL     1       5.796  29.243  56.163  1.00  0.00    -0.349 OA
HETATM    6  C   UNL     1       5.633  28.105  57.021  1.00  0.00     0.203 C 
HETATM    7  C   UNL     1       6.947  27.331  57.164  1.00  0.00     0.262 C 
HETATM    8  N   UNL     1       7.369  26.607  55.893  1.00  0.00    -0.061 N 
HETATM    9  H   UNL     1       8.304  26.230  56.099  1.00  0.00     0.280 HD
HETATM   10  C   UNL     1       7.587  27.540  54.726  1.00  0.00     0.276 C 
HETATM   11  C   UNL     1       4.364  29.500  54.303  1.00  0.00     0.038 A 
HETATM   12  C   UNL     1       4.013  29.205  52.982  1.00  0.00     0.013 A 
ENDROOT
BRANCH   1  13
HETATM   13  C   UNL     1       4.430  27.966  50.756  1.00  0.00     0.088 C 
HETATM   14  C   UNL     1       5.557  28.200  49.728  1.00  0.00     0.070 C 
HETATM   15  C   UNL     1       5.726  29.667  49.380  1.00  0.00     0.237 C 
HETATM   16  N   UNL     1       4.431  30.200  48.826  1.00  0.00    -0.075 N 
HETATM   17  C   UNL     1       4.575  31.627  48.357  1.00  0.00     0.269 C 
HETATM   18  H   UNL     1       4.206  29.656  47.978  1.00  0.00     0.279 HD
HETATM   19  C   UNL     1       3.285  30.041  49.789  1.00  0.00     0.237 C 
HETATM   20  C   UNL     1       3.135  28.575  50.179  1.00  0.00     0.070 C 
BRANCH  13  21
HETATM   21  O   UNL     1       4.236  26.547  50.814  1.00  0.00    -0.385 OA
HETATM   22  H   UNL     1       4.410  26.171  49.931  1.00  0.00     0.211 HD
ENDBRANCH  13  21
ENDBRANCH   1  13
BRANCH   8  23
HETATM   23  C   UNL     1       6.534  25.396  55.528  1.00  0.00     0.278 C 
BRANCH  23  24
HETATM   24  C   UNL     1       7.306  24.266  54.916  1.00  0.00     0.028 A 
HETATM   25  C   UNL     1       8.335  23.592  55.586  1.00  0.00     0.045 A 
HETATM   26 CL   UNL     1       8.736  23.991  57.219  1.00  0.00    -0.084 Cl
HETATM   27  C   UNL     1       9.046  22.566  54.960  1.00  0.00     0.024 A 
HETATM   28  C   UNL     1       8.736  22.200  53.649  1.00  0.00     0.005 A 
HETATM   29  C   UNL     1       7.712  22.856  52.970  1.00  0.00     0.043 A 
HETATM   30  C   UNL     1       7.012  23.875  53.606  1.00  0.00     0.126 A 
HETATM   31  F   UNL     1       6.015  24.486  52.951  1.00  0.00    -0.205 F 
ENDBRANCH  23  24
ENDBRANCH   8  23
TORSDOF 4
ENDMDL
MODEL 2
REMARK VINA RESULT:      -8.9      1.791      2.114
REMARK  4 active torsions:
REMARK  status: ('A' for Active; 'I' for Inactive)
REMARK    1  A    between atoms: C_6  and  O_7 
REMARK    2  A    between atoms: C_6  and  C_8 
REMARK    3  A    between atoms: N_15  and  C_17 
REMARK    4  A    between atoms: C_17  and  C_18 
ROOT
HETATM    1  C   UNL     1       4.159  28.017  50.754  1.00  0.00    -0.023 A 
HETATM    2  C   UNL     1       5.348  27.687  51.448  1.00  0.00     0.022 A 
HETATM    3  C   UNL     1       5.616  28.162  52.745  1.00  0.00     0.002 A 
HETATM    4  C   UNL     1       4.656  28.954  53.370  1.00  0.00     0.076 A 
HETATM    5  O   UNL     1       4.853  29.436  54.632  1.00  0.00    -0.349 OA
HETATM    6  C   UNL     1       4.799  28.385  55.608  1.00  0.00     0.203 C 
HETATM    7  C   UNL     1       6.193  27.809  55.874  1.00  0.00     0.262 C 
HETATM    8  N   UNL     1       6.757  27.014  54.705  1.00  0.00    -0.061 N 
HETATM    9  H   UNL     1       7.723  26.787  54.978  1.00  0.00     0.280 HD
HETATM   10  C   UNL     1       6.905  27.837  53.447  1.00  0.00     0.276 C 
HETATM   11  C   UNL     1       3.482  29.303  52.715  1.00  0.00     0.038 A 
HETATM   12  C   UNL     1       3.228  28.825  51.426  1.00  0.00     0.013 A 
ENDROOT
BRANCH   1  13
HETATM   13  C   UNL     1       3.893  27.420  49.366  1.00  0.00     0.088 C 
HETATM   14  C   UNL     1       5.009  27.716  48.341  1.00  0.00     0.070 C 
HETATM   15  C   UNL     1       4.970  29.149  47.842  1.00  0.00     0.237 C 
HETATM   16  N   UNL     1       3.631  29.418  47.209  1.00  0.00    -0.075 N 
HETATM   17  C   UNL     1       3.576  30.795  46.594  1.00  0.00     0.269 C 
HETATM   18  H   UNL     1       3.520  28.763  46.420  1.00  0.00     0.279 HD
HETATM   19  C   UNL     1       2.487  29.186  48.160  1.00  0.00     0.237 C 
HETATM   20  C   UNL     1       2.544  27.762  48.702  1.00  0.00     0.070 C 
BRANCH  13  21
HETATM   21  O   UNL     1       3.912  26.001  49.570  1.00  0.00    -0.385 OA
HETATM   22  H   UNL     1       3.385  25.792  50.364  1.00  0.00     0.211 HD
ENDBRANCH  13  21
ENDBRANCH   1  13
BRANCH   8  23
HETATM   23  C   UNL     1       6.099  25.673  54.454  1.00  0.00     0.278 C 
BRANCH  23  24
HETATM   24  C   UNL     1       7.019  24.495  54.562  1.00  0.00     0.028 A 
HETATM   25  C   UNL     1       7.719  23.970  53.467  1.00  0.00     0.045 A 
HETATM   26 CL   UNL     1       7.608  24.709  51.910  1.00  0.00    -0.084 Cl
HETATM   27  C   UNL     1       8.540  22.850  53.613  1.00  0.00     0.024 A 
HETATM   28  C   UNL     1       8.674  22.238  54.860  1.00  0.00     0.005 A 
HETATM   29  C   UNL     1       7.990  22.750  55.960  1.00  0.00     0.043 A 
HETATM   30  C   UNL     1       7.176  23.866  55.801  1.00  0.00     0.126 A 
HETATM   31  F   UNL     1       6.539  24.364  56.870  1.00  0.00    -0.205 F 
ENDBRANCH  23  24
ENDBRANCH   8  23
TORSDOF 4
ENDMDL
MODEL 3
REMARK VINA RESULT:      -8.7      5.671      8.944
REMARK  4 active torsions:
REMARK  status: ('A' for Active; 'I' for Inactive)
REMARK    1  A    between atoms: C_6  and  O_7 
REMARK    2  A    between atoms: C_6  and  C_8 
REMARK    3  A    between atoms: N_15  and  C_17 
REMARK    4  A    between atoms: C_17  and  C_18 
ROOT
HETATM    1  C   UNL     1       7.542  31.923  61.177  1.00  0.00    -0.023 A 
HETATM    2  C   UNL     1       7.158  31.455  59.896  1.00  0.00     0.022 A 
HETATM    3  C   UNL     1       8.076  31.329  58.837  1.00  0.00     0.002 A 
HETATM    4  C   UNL     1       9.411  31.646  59.079  1.00  0.00     0.076 A 
HETATM    5  O   UNL     1      10.351  31.535  58.095  1.00  0.00    -0.349 OA
HETATM    6  C   UNL     1      10.608  30.161  57.771  1.00  0.00     0.203 C 
HETATM    7  C   UNL     1       9.708  29.688  56.626  1.00  0.00     0.262 C 
HETATM    8  N   UNL     1       8.242  29.566  57.014  1.00  0.00    -0.061 N 
HETATM    9  H   UNL     1       7.750  29.351  56.136  1.00  0.00     0.280 HD
HETATM   10  C   UNL     1       7.641  30.873  57.473  1.00  0.00     0.276 C 
HETATM   11  C   UNL     1       9.820  32.116  60.321  1.00  0.00     0.038 A 
HETATM   12  C   UNL     1       8.897  32.237  61.365  1.00  0.00     0.013 A 
ENDROOT
BRANCH   1  13
HETATM   13  C   UNL     1       6.509  31.980  62.310  1.00  0.00     0.088 C 
HETATM   14  C   UNL     1       5.091  32.365  61.836  1.00  0.00     0.070 C 
HETATM   15  C   UNL     1       4.970  33.843  61.516  1.00  0.00     0.237 C 
HETATM   16  N   UNL     1       5.319  34.648  62.741  1.00  0.00    -0.075 N 
HETATM   17  C   UNL     1       5.107  36.124  62.512  1.00  0.00     0.269 C 
HETATM   18  H   UNL     1       4.654  34.388  63.486  1.00  0.00     0.279 HD
HETATM   19  C   UNL     1       6.707  34.354  63.245  1.00  0.00     0.237 C 
HETATM   20  C   UNL     1       6.852  32.863  63.527  1.00  0.00     0.070 C 
BRANCH  13  21
HETATM   21  O   UNL     1       6.414  30.630  62.785  1.00  0.00    -0.385 OA
HETATM   22  H   UNL     1       5.543  30.270  62.532  1.00  0.00     0.211 HD
ENDBRANCH  13  21
ENDBRANCH   1  13
BRANCH   8  23
HETATM   23  C   UNL     1       7.909  28.412  57.938  1.00  0.00     0.278 C 
BRANCH  23  24
HETATM   24  C   UNL     1       7.124  27.306  57.299  1.00  0.00     0.028 A 
HETATM   25  C   UNL     1       5.760  27.413  56.998  1.00  0.00     0.045 A 
HETATM   26 CL   UNL     1       4.902  28.884  57.292  1.00  0.00    -0.084 Cl
HETATM   27  C   UNL     1       5.065  26.342  56.431  1.00  0.00     0.024 A 
HETATM   28  C   UNL     1       5.729  25.145  56.158  1.00  0.00     0.005 A 
HETATM   29  C   UNL     1       7.085  25.024  56.445  1.00  0.00     0.043 A 
HETATM   30  C   UNL     1       7.765  26.098  57.008  1.00  0.00     0.126 A 
HETATM   31  F   UNL     1       9.075  25.978  57.262  1.00  0.00    -0.205 F 
ENDBRANCH  23  24
ENDBRANCH   8  23
TORSDOF 4
ENDMDL
MODEL 4
REMARK VINA RESULT:      -8.6      1.413      1.640
REMARK  4 active torsions:
REMARK  status: ('A' for Active; 'I' for Inactive)
REMARK    1  A    between atoms: C_6  and  O_7 
REMARK    2  A    between atoms: C_6  and  C_8 
REMARK    3  A    between atoms: N_15  and  C_17 
REMARK    4  A    between atoms: C_17  and  C_18 
ROOT
HETATM    1  C   UNL     1       4.675  28.707  52.179  1.00  0.00    -0.023 A 
HETATM    2  C   UNL     1       5.853  28.107  52.688  1.00  0.00     0.022 A 
HETATM    3  C   UNL     1       6.231  28.224  54.038  1.00  0.00     0.002 A 
HETATM    4  C   UNL     1       5.393  28.926  54.900  1.00  0.00     0.076 A 
HETATM    5  O   UNL     1       5.700  29.066  56.223  1.00  0.00    -0.349 OA
HETATM    6  C   UNL     1       5.578  27.819  56.922  1.00  0.00     0.203 C 
HETATM    7  C   UNL     1       6.912  27.066  56.943  1.00  0.00     0.262 C 
HETATM    8  N   UNL     1       7.331  26.531  55.582  1.00  0.00    -0.061 N 
HETATM    9  H   UNL     1       8.278  26.154  55.724  1.00  0.00     0.280 HD
HETATM   10  C   UNL     1       7.509  27.617  54.549  1.00  0.00     0.276 C 
HETATM   11  C   UNL     1       4.234  29.534  54.433  1.00  0.00     0.038 A 
HETATM   12  C   UNL     1       3.870  29.411  53.089  1.00  0.00     0.013 A 
ENDROOT
BRANCH   1  13
HETATM   13  C   UNL     1       4.282  28.493  50.711  1.00  0.00     0.088 C 
HETATM   14  C   UNL     1       5.448  28.703  49.722  1.00  0.00     0.070 C 
HETATM   15  C   UNL     1       5.781  30.170  49.523  1.00  0.00     0.237 C 
HETATM   16  N   UNL     1       4.562  30.892  49.013  1.00  0.00    -0.075 N 
HETATM   17  C   UNL     1       4.867  32.334  48.691  1.00  0.00     0.269 C 
HETATM   18  H   UNL     1       4.296  30.462  48.114  1.00  0.00     0.279 HD
HETATM   19  C   UNL     1       3.386  30.765  49.946  1.00  0.00     0.237 C 
HETATM   20  C   UNL     1       3.072  29.294  50.187  1.00  0.00     0.070 C 
BRANCH  13  21
HETATM   21  O   UNL     1       3.935  27.105  50.625  1.00  0.00    -0.385 OA
HETATM   22  H   UNL     1       2.965  27.028  50.560  1.00  0.00     0.211 HD
ENDBRANCH  13  21
ENDBRANCH   1  13
BRANCH   8  23
HETATM   23  C   UNL     1       6.520  25.360  55.068  1.00  0.00     0.278 C 
BRANCH  23  24
HETATM   24  C   UNL     1       7.327  24.145  54.719  1.00  0.00     0.028 A 
HETATM   25  C   UNL     1       7.686  23.819  53.405  1.00  0.00     0.045 A 
HETATM   26 CL   UNL     1       7.267  24.858  52.089  1.00  0.00    -0.084 Cl
HETATM   27  C   UNL     1       8.412  22.659  53.127  1.00  0.00     0.024 A 
HETATM   28  C   UNL     1       8.789  21.805  54.166  1.00  0.00     0.005 A 
HETATM   29  C   UNL     1       8.445  22.117  55.479  1.00  0.00     0.043 A 
HETATM   30  C   UNL     1       7.723  23.276  55.740  1.00  0.00     0.126 A 
HETATM   31  F   UNL     1       7.414  23.578  57.009  1.00  0.00    -0.205 F 
ENDBRANCH  23  24
ENDBRANCH   8  23
TORSDOF 4
ENDMDL
MODEL 5
REMARK VINA RESULT:      -8.4      2.677      5.370
REMARK  4 active torsions:
REMARK  status: ('A' for Active; 'I' for Inactive)
REMARK    1  A    between atoms: C_6  and  O_7 
REMARK    2  A    between atoms: C_6  and  C_8 
REMARK    3  A    between atoms: N_15  and  C_17 
REMARK    4  A    between atoms: C_17  and  C_18 
ROOT
HETATM    1  C   UNL     1       5.710  28.369  55.764  1.00  0.00    -0.023 A 
HETATM    2  C   UNL     1       5.447  27.007  55.483  1.00  0.00     0.022 A 
HETATM    3  C   UNL     1       5.092  26.561  54.196  1.00  0.00     0.002 A 
HETATM    4  C   UNL     1       5.035  27.496  53.166  1.00  0.00     0.076 A 
HETATM    5  O   UNL     1       4.707  27.124  51.894  1.00  0.00    -0.349 OA
HETATM    6  C   UNL     1       5.749  26.343  51.292  1.00  0.00     0.203 C 
HETATM    7  C   UNL     1       5.521  24.847  51.527  1.00  0.00     0.262 C 
HETATM    8  N   UNL     1       5.715  24.421  52.975  1.00  0.00    -0.061 N 
HETATM    9  H   UNL     1       5.426  23.433  53.003  1.00  0.00     0.280 HD
HETATM   10  C   UNL     1       4.773  25.116  53.928  1.00  0.00     0.276 C 
HETATM   11  C   UNL     1       5.279  28.842  53.408  1.00  0.00     0.038 A 
HETATM   12  C   UNL     1       5.630  29.272  54.692  1.00  0.00     0.013 A 
ENDROOT
BRANCH   1  13
HETATM   13  C   UNL     1       6.152  28.787  57.173  1.00  0.00     0.088 C 
HETATM   14  C   UNL     1       6.771  30.200  57.234  1.00  0.00     0.070 C 
HETATM   15  C   UNL     1       8.179  30.239  56.671  1.00  0.00     0.237 C 
HETATM   16  N   UNL     1       9.050  29.284  57.443  1.00  0.00    -0.075 N 
HETATM   17  C   UNL     1      10.490  29.365  56.998  1.00  0.00     0.269 C 
HETATM   18  H   UNL     1       9.051  29.587  58.429  1.00  0.00     0.279 HD
HETATM   19  C   UNL     1       8.531  27.871  57.400  1.00  0.00     0.237 C 
HETATM   20  C   UNL     1       7.100  27.828  57.922  1.00  0.00     0.070 C 
BRANCH  13  21
HETATM   21  O   UNL     1       4.938  28.854  57.932  1.00  0.00    -0.385 OA
HETATM   22  H   UNL     1       4.237  28.385  57.442  1.00  0.00     0.211 HD
ENDBRANCH  13  21
ENDBRANCH   1  13
BRANCH   8  23
HETATM   23  C   UNL     1       7.149  24.421  53.465  1.00  0.00     0.278 C 
BRANCH  23  24
HETATM   24  C   UNL     1       7.576  23.157  54.149  1.00  0.00     0.028 A 
HETATM   25  C   UNL     1       7.635  23.025  55.542  1.00  0.00     0.045 A 
HETATM   26 CL   UNL     1       7.145  24.321  56.575  1.00  0.00    -0.084 Cl
HETATM   27  C   UNL     1       8.071  21.836  56.132  1.00  0.00     0.024 A 
HETATM   28  C   UNL     1       8.454  20.759  55.331  1.00  0.00     0.005 A 
HETATM   29  C   UNL     1       8.395  20.870  53.945  1.00  0.00     0.043 A 
HETATM   30  C   UNL     1       7.959  22.060  53.371  1.00  0.00     0.126 A 
HETATM   31  F   UNL     1       7.887  22.150  52.036  1.00  0.00    -0.205 F 
ENDBRANCH  23  24
ENDBRANCH   8  23
TORSDOF 4
ENDMDL
MODEL 6
REMARK VINA RESULT:      -8.4      3.711      7.543
REMARK  4 active torsions:
REMARK  status: ('A' for Active; 'I' for Inactive)
REMARK    1  A    between atoms: C_6  and  O_7 
REMARK    2  A    between atoms: C_6  and  C_8 
REMARK    3  A    between atoms: N_15  and  C_17 
REMARK    4  A    between atoms: C_17  and  C_18 
ROOT
HETATM    1  C   UNL     1       7.305  24.451  55.369  1.00  0.00    -0.023 A 
HETATM    2  C   UNL     1       7.742  25.797  55.353  1.00  0.00     0.022 A 
HETATM    3  C   UNL     1       6.992  26.823  54.748  1.00  0.00     0.002 A 
HETATM    4  C   UNL     1       5.764  26.495  54.180  1.00  0.00     0.076 A 
HETATM    5  O   UNL     1       4.985  27.447  53.587  1.00  0.00    -0.349 OA
HETATM    6  C   UNL     1       4.434  28.349  54.557  1.00  0.00     0.203 C 
HETATM    7  C   UNL     1       5.343  29.566  54.755  1.00  0.00     0.262 C 
HETATM    8  N   UNL     1       6.653  29.240  55.457  1.00  0.00    -0.061 N 
HETATM    9  H   UNL     1       7.198  30.112  55.423  1.00  0.00     0.280 HD
HETATM   10  C   UNL     1       7.495  28.239  54.703  1.00  0.00     0.276 C 
HETATM   11  C   UNL     1       5.308  25.182  54.170  1.00  0.00     0.038 A 
HETATM   12  C   UNL     1       6.064  24.173  54.774  1.00  0.00     0.013 A 
ENDROOT
BRANCH   1  13
HETATM   13  C   UNL     1       8.136  23.386  56.098  1.00  0.00     0.088 C 
HETATM   14  C   UNL     1       9.528  23.152  55.472  1.00  0.00     0.070 C 
HETATM   15  C   UNL     1       9.455  22.356  54.183  1.00  0.00     0.237 C 
HETATM   16  N   UNL     1       8.804  21.026  54.455  1.00  0.00    -0.075 N 
HETATM   17  C   UNL     1       8.807  20.146  53.229  1.00  0.00     0.269 C 
HETATM   18  H   UNL     1       9.384  20.529  55.149  1.00  0.00     0.279 HD
HETATM   19  C   UNL     1       7.422  21.170  55.035  1.00  0.00     0.237 C 
HETATM   20  C   UNL     1       7.479  22.007  56.308  1.00  0.00     0.070 C 
BRANCH  13  21
HETATM   21  O   UNL     1       8.376  23.939  57.399  1.00  0.00    -0.385 OA
HETATM   22  H   UNL     1       9.336  23.922  57.574  1.00  0.00     0.211 HD
ENDBRANCH  13  21
ENDBRANCH   1  13
BRANCH   8  23
HETATM   23  C   UNL     1       6.535  28.913  56.932  1.00  0.00     0.278 C 
BRANCH  23  24
HETATM   24  C   UNL     1       7.249  29.866  57.843  1.00  0.00     0.028 A 
HETATM   25  C   UNL     1       6.623  30.970  58.435  1.00  0.00     0.045 A 
HETATM   26 CL   UNL     1       4.937  31.265  58.196  1.00  0.00    -0.084 Cl
HETATM   27  C   UNL     1       7.340  31.848  59.251  1.00  0.00     0.024 A 
HETATM   28  C   UNL     1       8.699  31.631  59.486  1.00  0.00     0.005 A 
HETATM   29  C   UNL     1       9.336  30.535  58.910  1.00  0.00     0.043 A 
HETATM   30  C   UNL     1       8.609  29.669  58.100  1.00  0.00     0.126 A 
HETATM   31  F   UNL     1       9.226  28.605  57.567  1.00  0.00    -0.205 F 
ENDBRANCH  23  24
ENDBRANCH   8  23
TORSDOF 4
ENDMDL
MODEL 7
REMARK VINA RESULT:      -8.1      5.993      9.105
REMARK  4 active torsions:
REMARK  status: ('A' for Active; 'I' for Inactive)
REMARK    1  A    between atoms: C_6  and  O_7 
REMARK    2  A    between atoms: C_6  and  C_8 
REMARK    3  A    between atoms: N_15  and  C_17 
REMARK    4  A    between atoms: C_17  and  C_18 
ROOT
HETATM    1  C   UNL     1       6.216  29.296  57.456  1.00  0.00    -0.023 A 
HETATM    2  C   UNL     1       6.556  30.511  58.098  1.00  0.00     0.022 A 
HETATM    3  C   UNL     1       5.617  31.538  58.308  1.00  0.00     0.002 A 
HETATM    4  C   UNL     1       4.303  31.324  57.897  1.00  0.00     0.076 A 
HETATM    5  O   UNL     1       3.343  32.277  58.082  1.00  0.00    -0.349 OA
HETATM    6  C   UNL     1       3.015  32.425  59.471  1.00  0.00     0.203 C 
HETATM    7  C   UNL     1       3.873  33.511  60.128  1.00  0.00     0.262 C 
HETATM    8  N   UNL     1       5.337  33.124  60.273  1.00  0.00    -0.061 N 
HETATM    9  H   UNL     1       5.804  33.974  60.620  1.00  0.00     0.280 HD
HETATM   10  C   UNL     1       6.008  32.839  58.951  1.00  0.00     0.276 C 
HETATM   11  C   UNL     1       3.937  30.147  57.257  1.00  0.00     0.038 A 
HETATM   12  C   UNL     1       4.881  29.136  57.054  1.00  0.00     0.013 A 
ENDROOT
BRANCH   1  13
HETATM   13  C   UNL     1       7.269  28.189  57.310  1.00  0.00     0.088 C 
HETATM   14  C   UNL     1       8.359  28.505  56.263  1.00  0.00     0.070 C 
HETATM   15  C   UNL     1       7.855  28.351  54.840  1.00  0.00     0.237 C 
HETATM   16  N   UNL     1       7.364  26.943  54.635  1.00  0.00    -0.075 N 
HETATM   17  C   UNL     1       6.955  26.702  53.203  1.00  0.00     0.269 C 
HETATM   18  H   UNL     1       8.159  26.307  54.803  1.00  0.00     0.279 HD
HETATM   19  C   UNL     1       6.269  26.569  55.599  1.00  0.00     0.237 C 
HETATM   20  C   UNL     1       6.751  26.762  57.032  1.00  0.00     0.070 C 
BRANCH  13  21
HETATM   21  O   UNL     1       7.938  28.152  58.578  1.00  0.00    -0.385 OA
HETATM   22  H   UNL     1       7.970  29.057  58.940  1.00  0.00     0.211 HD
ENDBRANCH  13  21
ENDBRANCH   1  13
BRANCH   8  23
HETATM   23  C   UNL     1       5.629  32.067  61.319  1.00  0.00     0.278 C 
BRANCH  23  24
HETATM   24  C   UNL     1       6.164  32.600  62.614  1.00  0.00     0.028 A 
HETATM   25  C   UNL     1       7.531  32.639  62.917  1.00  0.00     0.045 A 
HETATM   26 CL   UNL     1       8.708  32.124  61.761  1.00  0.00    -0.084 Cl
HETATM   27  C   UNL     1       7.978  33.115  64.152  1.00  0.00     0.024 A 
HETATM   28  C   UNL     1       7.058  33.561  65.103  1.00  0.00     0.005 A 
HETATM   29  C   UNL     1       5.697  33.534  64.816  1.00  0.00     0.043 A 
HETATM   30  C   UNL     1       5.266  33.058  63.583  1.00  0.00     0.126 A 
HETATM   31  F   UNL     1       3.954  33.057  63.308  1.00  0.00    -0.205 F 
ENDBRANCH  23  24
ENDBRANCH   8  23
TORSDOF 4
ENDMDL
MODEL 8
REMARK VINA RESULT:      -7.9      3.142      5.199
REMARK  4 active torsions:
REMARK  status: ('A' for Active; 'I' for Inactive)
REMARK    1  A    between atoms: C_6  and  O_7 
REMARK    2  A    between atoms: C_6  and  C_8 
REMARK    3  A    between atoms: N_15  and  C_17 
REMARK    4  A    between atoms: C_17  and  C_18 
ROOT
HETATM    1  C   UNL     1       5.255  28.021  51.970  1.00  0.00    -0.023 A 
HETATM    2  C   UNL     1       4.964  28.354  53.315  1.00  0.00     0.022 A 
HETATM    3  C   UNL     1       5.185  27.456  54.376  1.00  0.00     0.002 A 
HETATM    4  C   UNL     1       5.742  26.214  54.083  1.00  0.00     0.076 A 
HETATM    5  O   UNL     1       5.990  25.303  55.069  1.00  0.00    -0.349 OA
HETATM    6  C   UNL     1       7.072  25.726  55.912  1.00  0.00     0.203 C 
HETATM    7  C   UNL     1       6.555  26.522  57.114  1.00  0.00     0.262 C 
HETATM    8  N   UNL     1       5.996  27.889  56.745  1.00  0.00    -0.061 N 
HETATM    9  H   UNL     1       5.592  28.256  57.618  1.00  0.00     0.280 HD
HETATM   10  C   UNL     1       4.828  27.813  55.792  1.00  0.00     0.276 C 
HETATM   11  C   UNL     1       6.032  25.851  52.774  1.00  0.00     0.038 A 
HETATM   12  C   UNL     1       5.807  26.753  51.729  1.00  0.00     0.013 A 
ENDROOT
BRANCH   1  13
HETATM   13  C   UNL     1       5.050  29.064  50.863  1.00  0.00     0.088 C 
HETATM   14  C   UNL     1       3.731  29.855  50.995  1.00  0.00     0.070 C 
HETATM   15  C   UNL     1       2.522  29.035  50.583  1.00  0.00     0.237 C 
HETATM   16  N   UNL     1       2.689  28.582  49.157  1.00  0.00    -0.075 N 
HETATM   17  C   UNL     1       1.464  27.857  48.659  1.00  0.00     0.269 C 
HETATM   18  H   UNL     1       2.765  29.426  48.568  1.00  0.00     0.279 HD
HETATM   19  C   UNL     1       3.941  27.770  48.954  1.00  0.00     0.237 C 
HETATM   20  C   UNL     1       5.157  28.569  49.406  1.00  0.00     0.070 C 
BRANCH  13  21
HETATM   21  O   UNL     1       6.103  30.017  51.061  1.00  0.00    -0.385 OA
HETATM   22  H   UNL     1       5.711  30.907  51.129  1.00  0.00     0.211 HD
ENDBRANCH  13  21
ENDBRANCH   1  13
BRANCH   8  23
HETATM   23  C   UNL     1       7.026  28.920  56.330  1.00  0.00     0.278 C 
BRANCH  23  24
HETATM   24  C   UNL     1       7.499  29.812  57.437  1.00  0.00     0.028 A 
HETATM   25  C   UNL     1       6.706  30.823  57.995  1.00  0.00     0.045 A 
HETATM   26 CL   UNL     1       5.077  31.061  57.470  1.00  0.00    -0.084 Cl
HETATM   27  C   UNL     1       7.205  31.650  59.004  1.00  0.00     0.024 A 
HETATM   28  C   UNL     1       8.509  31.475  59.471  1.00  0.00     0.005 A 
HETATM   29  C   UNL     1       9.308  30.471  58.932  1.00  0.00     0.043 A 
HETATM   30  C   UNL     1       8.799  29.655  57.928  1.00  0.00     0.126 A 
HETATM   31  F   UNL     1       9.570  28.677  57.430  1.00  0.00    -0.205 F 
ENDBRANCH  23  24
ENDBRANCH   8  23
TORSDOF 4
ENDMDL
MODEL 9
REMARK VINA RESULT:      -7.5      9.917     12.521
REMARK  4 active torsions:
REMARK  status: ('A' for Active; 'I' for Inactive)
REMARK    1  A    between atoms: C_6  and  O_7 
REMARK    2  A    between atoms: C_6  and  C_8 
REMARK    3  A    between atoms: N_15  and  C_17 
REMARK    4  A    between atoms: C_17  and  C_18 
ROOT
HETATM    1  C   UNL     1       5.349  37.575  63.189  1.00  0.00    -0.023 A 
HETATM    2  C   UNL     1       6.083  36.404  63.496  1.00  0.00     0.022 A 
HETATM    3  C   UNL     1       5.471  35.141  63.599  1.00  0.00     0.002 A 
HETATM    4  C   UNL     1       4.103  35.048  63.353  1.00  0.00     0.076 A 
HETATM    5  O   UNL     1       3.454  33.849  63.426  1.00  0.00    -0.349 OA
HETATM    6  C   UNL     1       3.832  32.982  62.347  1.00  0.00     0.203 C 
HETATM    7  C   UNL     1       5.012  32.091  62.743  1.00  0.00     0.262 C 
HETATM    8  N   UNL     1       6.322  32.849  62.905  1.00  0.00    -0.061 N 
HETATM    9  H   UNL     1       6.987  32.156  63.274  1.00  0.00     0.280 HD
HETATM   10  C   UNL     1       6.260  33.916  63.971  1.00  0.00     0.276 C 
HETATM   11  C   UNL     1       3.352  36.178  63.056  1.00  0.00     0.038 A 
HETATM   12  C   UNL     1       3.972  37.427  62.959  1.00  0.00     0.013 A 
ENDROOT
BRANCH   1  13
HETATM   13  C   UNL     1       6.080  38.915  63.030  1.00  0.00     0.088 C 
HETATM   14  C   UNL     1       5.133  40.132  62.950  1.00  0.00     0.070 C 
HETATM   15  C   UNL     1       4.440  40.237  61.604  1.00  0.00     0.237 C 
HETATM   16  N   UNL     1       5.476  40.343  60.517  1.00  0.00    -0.075 N 
HETATM   17  C   UNL     1       4.841  40.562  59.166  1.00  0.00     0.269 C 
HETATM   18  H   UNL     1       6.034  41.192  60.698  1.00  0.00     0.279 HD
HETATM   19  C   UNL     1       6.420  39.170  60.506  1.00  0.00     0.237 C 
HETATM   20  C   UNL     1       7.089  39.029  61.868  1.00  0.00     0.070 C 
BRANCH  13  21
HETATM   21  O   UNL     1       6.822  39.072  64.246  1.00  0.00    -0.385 OA
HETATM   22  H   UNL     1       6.451  38.471  64.919  1.00  0.00     0.211 HD
ENDBRANCH  13  21
ENDBRANCH   1  13
BRANCH   8  23
HETATM   23  C   UNL     1       6.948  33.342  61.616  1.00  0.00     0.278 C 
BRANCH  23  24
HETATM   24  C   UNL     1       7.492  32.261  60.731  1.00  0.00     0.028 A 
HETATM   25  C   UNL     1       6.861  31.854  59.548  1.00  0.00     0.045 A 
HETATM   26 CL   UNL     1       5.424  32.639  58.997  1.00  0.00    -0.084 Cl
HETATM   27  C   UNL     1       7.390  30.819  58.774  1.00  0.00     0.024 A 
HETATM   28  C   UNL     1       8.562  30.175  59.175  1.00  0.00     0.005 A 
HETATM   29  C   UNL     1       9.205  30.572  60.344  1.00  0.00     0.043 A 
HETATM   30  C   UNL     1       8.667  31.604  61.105  1.00  0.00     0.126 A 
HETATM   31  F   UNL     1       9.305  31.991  62.219  1.00  0.00    -0.205 F 
ENDBRANCH  23  24
ENDBRANCH   8  23
TORSDOF 4
ENDMDL
MODEL 10
REMARK VINA RESULT:      -7.4      3.307      7.719
REMARK  4 active torsions:
REMARK  status: ('A' for Active; 'I' for Inactive)
REMARK    1  A    between atoms: C_6  and  O_7 
REMARK    2  A    between atoms: C_6  and  C_8 
REMARK    3  A    between atoms: N_15  and  C_17 
REMARK    4  A    between atoms: C_17  and  C_18 
ROOT
HETATM    1  C   UNL     1       5.831  26.081  55.008  1.00  0.00    -0.023 A 
HETATM    2  C   UNL     1       5.862  27.256  54.218  1.00  0.00     0.022 A 
HETATM    3  C   UNL     1       5.924  27.213  52.812  1.00  0.00     0.002 A 
HETATM    4  C   UNL     1       5.917  25.968  52.189  1.00  0.00     0.076 A 
HETATM    5  O   UNL     1       5.964  25.861  50.828  1.00  0.00    -0.349 OA
HETATM    6  C   UNL     1       4.740  26.306  50.226  1.00  0.00     0.203 C 
HETATM    7  C   UNL     1       4.811  27.793  49.868  1.00  0.00     0.262 C 
HETATM    8  N   UNL     1       4.824  28.713  51.080  1.00  0.00    -0.061 N 
HETATM    9  H   UNL     1       4.984  29.655  50.698  1.00  0.00     0.280 HD
HETATM   10  C   UNL     1       6.002  28.472  51.993  1.00  0.00     0.276 C 
HETATM   11  C   UNL     1       5.895  24.796  52.934  1.00  0.00     0.038 A 
HETATM   12  C   UNL     1       5.835  24.852  54.329  1.00  0.00     0.013 A 
ENDROOT
BRANCH   1  13
HETATM   13  C   UNL     1       5.702  26.190  56.533  1.00  0.00     0.088 C 
HETATM   14  C   UNL     1       5.249  27.584  57.018  1.00  0.00     0.070 C 
HETATM   15  C   UNL     1       6.362  28.613  56.938  1.00  0.00     0.237 C 
HETATM   16  N   UNL     1       7.527  28.152  57.773  1.00  0.00    -0.075 N 
HETATM   17  C   UNL     1       8.619  29.191  57.820  1.00  0.00     0.269 C 
HETATM   18  H   UNL     1       7.197  28.058  58.746  1.00  0.00     0.279 HD
HETATM   19  C   UNL     1       8.051  26.810  57.337  1.00  0.00     0.237 C 
HETATM   20  C   UNL     1       6.930  25.778  57.371  1.00  0.00     0.070 C 
BRANCH  13  21
HETATM   21  O   UNL     1       4.640  25.289  56.875  1.00  0.00    -0.385 OA
HETATM   22  H   UNL     1       4.017  25.242  56.126  1.00  0.00     0.211 HD
ENDBRANCH  13  21
ENDBRANCH   1  13
BRANCH   8  23
HETATM   23  C   UNL     1       3.511  28.814  51.830  1.00  0.00     0.278 C 
BRANCH  23  24
HETATM   24  C   UNL     1       3.187  30.187  52.339  1.00  0.00     0.028 A 
HETATM   25  C   UNL     1       2.758  31.228  51.506  1.00  0.00     0.045 A 
HETATM   26 CL   UNL     1       2.510  30.965  49.817  1.00  0.00    -0.084 Cl
HETATM   27  C   UNL     1       2.499  32.500  52.024  1.00  0.00     0.024 A 
HETATM   28  C   UNL     1       2.666  32.746  53.388  1.00  0.00     0.005 A 
HETATM   29  C   UNL     1       3.086  31.720  54.231  1.00  0.00     0.043 A 
HETATM   30  C   UNL     1       3.340  30.460  53.702  1.00  0.00     0.126 A 
HETATM   31  F   UNL     1       3.724  29.474  54.525  1.00  0.00    -0.205 F 
ENDBRANCH  23  24
ENDBRANCH   8  23
TORSDOF 4
ENDMDL
