MODEL 1
REMARK VINA RESULT:     -11.1      0.000      0.000
REMARK  6 active torsions:
REMARK  status: ('A' for Active; 'I' for Inactive)
REMARK    1  A    between atoms: C_2  and  C_3 
REMARK    2  A    between atoms: C_3  and  N_4 
REMARK    3  A    between atoms: C_10  and  S_11 
REMARK    4  A    between atoms: S_11  and  C_12 
REMARK    5  A    between atoms: C_12  and  C_13 
REMARK       I    between atoms: C_13  and  N_14 
REMARK    6  A    between atoms: N_14  and  C_15 
ROOT
HETATM    1  N   UNL     1       6.781  26.341  55.137  1.00  0.00    -0.063 N 
HETATM    2  H   UNL     1       7.339  25.765  55.777  1.00  0.00     0.280 HD
HETATM    3  C   UNL     1       7.706  27.452  54.654  1.00  0.00     0.281 C 
HETATM    4  C   UNL     1       8.035  28.410  55.745  1.00  0.00     0.060 A 
HETATM    5  C   UNL     1       7.380  28.487  56.913  1.00  0.00     0.052 A 
HETATM    6  N   UNL     1       7.765  29.300  57.948  1.00  0.00    -0.228 NA
HETATM    7  C   UNL     1       8.822  30.022  57.773  1.00  0.00     0.169 A 
HETATM    8  N   UNL     1       9.538  30.056  56.619  1.00  0.00    -0.302 N 
HETATM    9  C   UNL     1       9.201  29.290  55.547  1.00  0.00     0.257 A 
HETATM   10  O   UNL     1       9.806  29.293  54.484  1.00  0.00    -0.267 OA
HETATM   11  C   UNL     1       6.169  27.623  57.181  1.00  0.00     0.088 C 
HETATM   12  C   UNL     1       5.633  26.913  55.932  1.00  0.00     0.241 C 
HETATM   13  H   UNL     1      10.343  30.662  56.547  1.00  0.00     0.171 HD
ENDROOT
BRANCH   7  14
HETATM   14  S   UNL     1       9.483  31.037  59.016  1.00  0.00    -0.083 SA
BRANCH  14  15
HETATM   15  C   UNL     1       8.358  30.593  60.377  1.00  0.00     0.185 C 
BRANCH  15  16
HETATM   16  C   UNL     1       7.860  31.776  61.192  1.00  0.00     0.231 C 
HETATM   17  N   UNL     1       7.242  31.460  62.386  1.00  0.00    -0.326 N 
HETATM   18  H   UNL     1       7.088  30.470  62.553  1.00  0.00     0.169 HD
HETATM   19  O   UNL     1       8.079  32.914  60.781  1.00  0.00    -0.272 OA
BRANCH  17  20
HETATM   20  C   UNL     1       6.745  32.350  63.361  1.00  0.00     0.037 A 
HETATM   21  C   UNL     1       5.388  32.629  63.543  1.00  0.00     0.075 A 
HETATM   22  C   UNL     1       4.988  33.530  64.528  1.00  0.00     0.157 A 
HETATM   23  F   UNL     1       3.684  33.792  64.687  1.00  0.00    -0.203 F 
HETATM   24  C   UNL     1       5.926  34.156  65.337  1.00  0.00     0.155 A 
HETATM   25  F   UNL     1       5.537  35.022  66.282  1.00  0.00    -0.203 F 
HETATM   26  C   UNL     1       7.279  33.890  65.171  1.00  0.00     0.048 A 
HETATM   27  C   UNL     1       7.687  32.989  64.182  1.00  0.00     0.032 A 
ENDBRANCH  17  20
ENDBRANCH  15  16
ENDBRANCH  14  15
ENDBRANCH   7  14
BRANCH   1  28
HETATM   28  C   UNL     1       6.335  25.418  54.029  1.00  0.00     0.273 C 
BRANCH  28  29
HETATM   29  C   UNL     1       6.952  24.049  54.138  1.00  0.00    -0.030 A 
HETATM   30  C   UNL     1       7.310  23.328  52.973  1.00  0.00     0.012 A 
HETATM   31  C   UNL     1       7.931  22.078  53.065  1.00  0.00     0.040 A 
HETATM   32  C   UNL     1       8.187  21.574  54.321  1.00  0.00     0.105 A 
HETATM   33  C   UNL     1       7.835  22.260  55.456  1.00  0.00     0.105 A 
HETATM   34  O   UNL     1       8.794  20.391  54.598  1.00  0.00    -0.323 OA
HETATM   35  C   UNL     1       7.212  23.489  55.403  1.00  0.00     0.048 A 
HETATM   36  O   UNL     1       8.181  21.599  56.591  1.00  0.00    -0.323 OA
HETATM   37  C   UNL     1       8.785  20.405  56.041  1.00  0.00     0.352 A 
ENDBRANCH  28  29
ENDBRANCH   1  28
TORSDOF 6
ENDMDL
MODEL 2
REMARK VINA RESULT:     -10.7      1.652      1.863
REMARK  6 active torsions:
REMARK  status: ('A' for Active; 'I' for Inactive)
REMARK    1  A    between atoms: C_2  and  C_3 
REMARK    2  A    between atoms: C_3  and  N_4 
REMARK    3  A    between atoms: C_10  and  S_11 
REMARK    4  A    between atoms: S_11  and  C_12 
REMARK    5  A    between atoms: C_12  and  C_13 
REMARK       I    between atoms: C_13  and  N_14 
REMARK    6  A    between atoms: N_14  and  C_15 
ROOT
HETATM    1  N   UNL     1       6.527  26.455  55.720  1.00  0.00    -0.063 N 
HETATM    2  H   UNL     1       7.148  26.932  55.057  1.00  0.00     0.280 HD
HETATM    3  C   UNL     1       5.629  27.536  56.310  1.00  0.00     0.281 C 
HETATM    4  C   UNL     1       6.389  28.463  57.192  1.00  0.00     0.060 A 
HETATM    5  C   UNL     1       7.621  28.225  57.666  1.00  0.00     0.052 A 
HETATM    6  N   UNL     1       8.347  29.138  58.387  1.00  0.00    -0.228 NA
HETATM    7  C   UNL     1       7.802  30.287  58.610  1.00  0.00     0.169 A 
HETATM    8  N   UNL     1       6.545  30.623  58.216  1.00  0.00    -0.302 N 
HETATM    9  C   UNL     1       5.763  29.759  57.514  1.00  0.00     0.257 A 
HETATM   10  O   UNL     1       4.624  30.008  57.146  1.00  0.00    -0.267 OA
HETATM   11  C   UNL     1       8.319  26.914  57.385  1.00  0.00     0.088 C 
HETATM   12  C   UNL     1       7.397  25.843  56.790  1.00  0.00     0.241 C 
HETATM   13  H   UNL     1       6.175  31.534  58.444  1.00  0.00     0.171 HD
ENDROOT
BRANCH   7  14
HETATM   14  S   UNL     1       8.624  31.574  59.433  1.00  0.00    -0.083 SA
BRANCH  14  15
HETATM   15  C   UNL     1       9.202  30.656  60.895  1.00  0.00     0.185 C 
BRANCH  15  16
HETATM   16  C   UNL     1       8.465  30.995  62.182  1.00  0.00     0.231 C 
HETATM   17  N   UNL     1       7.852  32.232  62.208  1.00  0.00    -0.326 N 
HETATM   18  H   UNL     1       8.039  32.834  61.412  1.00  0.00     0.169 HD
HETATM   19  O   UNL     1       8.413  30.152  63.076  1.00  0.00    -0.272 OA
BRANCH  17  20
HETATM   20  C   UNL     1       7.057  32.777  63.238  1.00  0.00     0.037 A 
HETATM   21  C   UNL     1       5.673  32.952  63.147  1.00  0.00     0.075 A 
HETATM   22  C   UNL     1       4.970  33.506  64.214  1.00  0.00     0.157 A 
HETATM   23  F   UNL     1       3.644  33.673  64.110  1.00  0.00    -0.203 F 
HETATM   24  C   UNL     1       5.628  33.888  65.375  1.00  0.00     0.155 A 
HETATM   25  F   UNL     1       4.947  34.421  66.397  1.00  0.00    -0.203 F 
HETATM   26  C   UNL     1       7.003  33.721  65.483  1.00  0.00     0.048 A 
HETATM   27  C   UNL     1       7.716  33.168  64.415  1.00  0.00     0.032 A 
ENDBRANCH  17  20
ENDBRANCH  15  16
ENDBRANCH  14  15
ENDBRANCH   7  14
BRANCH   1  28
HETATM   28  C   UNL     1       5.768  25.429  54.913  1.00  0.00     0.273 C 
BRANCH  28  29
HETATM   29  C   UNL     1       6.641  24.283  54.474  1.00  0.00    -0.030 A 
HETATM   30  C   UNL     1       7.221  24.278  53.183  1.00  0.00     0.012 A 
HETATM   31  C   UNL     1       8.076  23.244  52.784  1.00  0.00     0.040 A 
HETATM   32  C   UNL     1       8.336  22.236  53.686  1.00  0.00     0.105 A 
HETATM   33  C   UNL     1       7.770  22.227  54.936  1.00  0.00     0.105 A 
HETATM   34  O   UNL     1       9.148  21.168  53.477  1.00  0.00    -0.323 OA
HETATM   35  C   UNL     1       6.916  23.223  55.359  1.00  0.00     0.048 A 
HETATM   36  O   UNL     1       8.159  21.155  55.675  1.00  0.00    -0.323 OA
HETATM   37  C   UNL     1       9.031  20.479  54.740  1.00  0.00     0.352 A 
ENDBRANCH  28  29
ENDBRANCH   1  28
TORSDOF 6
ENDMDL
MODEL 3
REMARK VINA RESULT:     -10.6      1.172      1.581
REMARK  6 active torsions:
REMARK  status: ('A' for Active; 'I' for Inactive)
REMARK    1  A    between atoms: C_2  and  C_3 
REMARK    2  A    between atoms: C_3  and  N_4 
REMARK    3  A    between atoms: C_10  and  S_11 
REMARK    4  A    between atoms: S_11  and  C_12 
REMARK    5  A    between atoms: C_12  and  C_13 
REMARK       I    between atoms: C_13  and  N_14 
REMARK    6  A    between atoms: N_14  and  C_15 
ROOT
HETATM    1  N   UNL     1       6.564  26.453  54.949  1.00  0.00    -0.063 N 
HETATM    2  H   UNL     1       6.851  25.899  55.765  1.00  0.00     0.280 HD
HETATM    3  C   UNL     1       7.623  27.535  54.780  1.00  0.00     0.281 C 
HETATM    4  C   UNL     1       7.573  28.535  55.881  1.00  0.00     0.060 A 
HETATM    5  C   UNL     1       6.554  28.667  56.743  1.00  0.00     0.052 A 
HETATM    6  N   UNL     1       6.573  29.519  57.817  1.00  0.00    -0.228 NA
HETATM    7  C   UNL     1       7.640  30.224  57.996  1.00  0.00     0.169 A 
HETATM    8  N   UNL     1       8.714  30.204  57.164  1.00  0.00    -0.302 N 
HETATM    9  C   UNL     1       8.754  29.397  56.071  1.00  0.00     0.257 A 
HETATM   10  O   UNL     1       9.691  29.349  55.286  1.00  0.00    -0.267 OA
HETATM   11  C   UNL     1       5.307  27.824  56.603  1.00  0.00     0.088 C 
HETATM   12  C   UNL     1       5.223  27.067  55.272  1.00  0.00     0.241 C 
HETATM   13  H   UNL     1       9.507  30.799  57.356  1.00  0.00     0.171 HD
ENDROOT
BRANCH   7  14
HETATM   14  S   UNL     1       7.849  31.285  59.353  1.00  0.00    -0.083 SA
BRANCH  14  15
HETATM   15  C   UNL     1       6.137  31.884  59.515  1.00  0.00     0.185 C 
BRANCH  15  16
HETATM   16  C   UNL     1       5.879  32.720  60.759  1.00  0.00     0.231 C 
HETATM   17  N   UNL     1       6.310  32.166  61.949  1.00  0.00    -0.326 N 
HETATM   18  H   UNL     1       6.661  31.215  61.891  1.00  0.00     0.169 HD
HETATM   19  O   UNL     1       5.367  33.831  60.632  1.00  0.00    -0.272 OA
BRANCH  17  20
HETATM   20  C   UNL     1       6.257  32.742  63.235  1.00  0.00     0.037 A 
HETATM   21  C   UNL     1       5.076  32.929  63.959  1.00  0.00     0.075 A 
HETATM   22  C   UNL     1       5.118  33.514  65.223  1.00  0.00     0.157 A 
HETATM   23  F   UNL     1       3.977  33.691  65.902  1.00  0.00    -0.203 F 
HETATM   24  C   UNL     1       6.326  33.915  65.777  1.00  0.00     0.155 A 
HETATM   25  F   UNL     1       6.361  34.477  66.992  1.00  0.00    -0.203 F 
HETATM   26  C   UNL     1       7.510  33.736  65.073  1.00  0.00     0.048 A 
HETATM   27  C   UNL     1       7.474  33.152  63.803  1.00  0.00     0.032 A 
ENDBRANCH  17  20
ENDBRANCH  15  16
ENDBRANCH  14  15
ENDBRANCH   7  14
BRANCH   1  28
HETATM   28  C   UNL     1       6.511  25.488  53.789  1.00  0.00     0.273 C 
BRANCH  28  29
HETATM   29  C   UNL     1       7.183  24.177  54.102  1.00  0.00    -0.030 A 
HETATM   30  C   UNL     1       7.611  23.886  55.419  1.00  0.00     0.012 A 
HETATM   31  C   UNL     1       8.190  22.651  55.731  1.00  0.00     0.040 A 
HETATM   32  C   UNL     1       8.326  21.728  54.717  1.00  0.00     0.105 A 
HETATM   33  C   UNL     1       7.924  22.004  53.435  1.00  0.00     0.105 A 
HETATM   34  O   UNL     1       8.848  20.480  54.840  1.00  0.00    -0.323 OA
HETATM   35  C   UNL     1       7.360  23.214  53.090  1.00  0.00     0.048 A 
HETATM   36  O   UNL     1       8.137  20.963  52.588  1.00  0.00    -0.323 OA
HETATM   37  C   UNL     1       8.732  19.997  53.485  1.00  0.00     0.352 A 
ENDBRANCH  28  29
ENDBRANCH   1  28
TORSDOF 6
ENDMDL
MODEL 4
REMARK VINA RESULT:     -10.5      5.276     11.876
REMARK  6 active torsions:
REMARK  status: ('A' for Active; 'I' for Inactive)
REMARK    1  A    between atoms: C_2  and  C_3 
REMARK    2  A    between atoms: C_3  and  N_4 
REMARK    3  A    between atoms: C_10  and  S_11 
REMARK    4  A    between atoms: S_11  and  C_12 
REMARK    5  A    between atoms: C_12  and  C_13 
REMARK       I    between atoms: C_13  and  N_14 
REMARK    6  A    between atoms: N_14  and  C_15 
ROOT
HETATM    1  N   UNL     1       8.006  31.433  59.633  1.00  0.00    -0.063 N 
HETATM    2  H   UNL     1       7.873  30.715  60.355  1.00  0.00     0.280 HD
HETATM    3  C   UNL     1       6.683  31.527  58.882  1.00  0.00     0.281 C 
HETATM    4  C   UNL     1       6.417  30.304  58.076  1.00  0.00     0.060 A 
HETATM    5  C   UNL     1       7.335  29.370  57.786  1.00  0.00     0.052 A 
HETATM    6  N   UNL     1       7.046  28.198  57.135  1.00  0.00    -0.228 NA
HETATM    7  C   UNL     1       5.817  27.996  56.794  1.00  0.00     0.169 A 
HETATM    8  N   UNL     1       4.814  28.889  56.999  1.00  0.00    -0.302 N 
HETATM    9  C   UNL     1       5.033  30.079  57.620  1.00  0.00     0.257 A 
HETATM   10  O   UNL     1       4.168  30.920  57.819  1.00  0.00    -0.267 OA
HETATM   11  C   UNL     1       8.775  29.540  58.212  1.00  0.00     0.088 C 
HETATM   12  C   UNL     1       9.104  30.949  58.717  1.00  0.00     0.241 C 
HETATM   13  H   UNL     1       3.878  28.672  56.686  1.00  0.00     0.171 HD
ENDROOT
BRANCH   7  14
HETATM   14  S   UNL     1       5.279  26.528  56.040  1.00  0.00    -0.083 SA
BRANCH  14  15
HETATM   15  C   UNL     1       6.172  26.674  54.460  1.00  0.00     0.185 C 
BRANCH  15  16
HETATM   16  C   UNL     1       7.046  25.477  54.120  1.00  0.00     0.231 C 
HETATM   17  N   UNL     1       6.800  24.332  54.852  1.00  0.00    -0.326 N 
HETATM   18  H   UNL     1       6.135  24.431  55.613  1.00  0.00     0.169 HD
HETATM   19  O   UNL     1       7.859  25.578  53.203  1.00  0.00    -0.272 OA
BRANCH  17  20
HETATM   20  C   UNL     1       7.412  23.070  54.707  1.00  0.00     0.037 A 
HETATM   21  C   UNL     1       7.565  22.412  53.484  1.00  0.00     0.075 A 
HETATM   22  C   UNL     1       8.177  21.161  53.438  1.00  0.00     0.157 A 
HETATM   23  F   UNL     1       8.312  20.539  52.258  1.00  0.00    -0.203 F 
HETATM   24  C   UNL     1       8.640  20.556  54.598  1.00  0.00     0.155 A 
HETATM   25  F   UNL     1       9.227  19.353  54.548  1.00  0.00    -0.203 F 
HETATM   26  C   UNL     1       8.497  21.195  55.823  1.00  0.00     0.048 A 
HETATM   27  C   UNL     1       7.881  22.450  55.877  1.00  0.00     0.032 A 
ENDBRANCH  17  20
ENDBRANCH  15  16
ENDBRANCH  14  15
ENDBRANCH   7  14
BRANCH   1  28
HETATM   28  C   UNL     1       8.362  32.702  60.368  1.00  0.00     0.273 C 
BRANCH  28  29
HETATM   29  C   UNL     1       7.612  32.844  61.666  1.00  0.00    -0.030 A 
HETATM   30  C   UNL     1       8.224  32.484  62.891  1.00  0.00     0.012 A 
HETATM   31  C   UNL     1       7.554  32.660  64.107  1.00  0.00     0.040 A 
HETATM   32  C   UNL     1       6.286  33.196  64.075  1.00  0.00     0.105 A 
HETATM   33  C   UNL     1       5.681  33.538  62.893  1.00  0.00     0.105 A 
HETATM   34  O   UNL     1       5.500  33.450  65.152  1.00  0.00    -0.323 OA
HETATM   35  C   UNL     1       6.306  33.368  61.675  1.00  0.00     0.048 A 
HETATM   36  O   UNL     1       4.438  34.056  63.076  1.00  0.00    -0.323 OA
HETATM   37  C   UNL     1       4.323  33.991  64.516  1.00  0.00     0.352 A 
ENDBRANCH  28  29
ENDBRANCH   1  28
TORSDOF 6
ENDMDL
MODEL 5
REMARK VINA RESULT:     -10.0      3.147      3.960
REMARK  6 active torsions:
REMARK  status: ('A' for Active; 'I' for Inactive)
REMARK    1  A    between atoms: C_2  and  C_3 
REMARK    2  A    between atoms: C_3  and  N_4 
REMARK    3  A    between atoms: C_10  and  S_11 
REMARK    4  A    between atoms: S_11  and  C_12 
REMARK    5  A    between atoms: C_12  and  C_13 
REMARK       I    between atoms: C_13  and  N_14 
REMARK    6  A    between atoms: N_14  and  C_15 
ROOT
HETATM    1  N   UNL     1       7.235  25.603  57.206  1.00  0.00    -0.063 N 
HETATM    2  H   UNL     1       7.086  25.930  58.168  1.00  0.00     0.280 HD
HETATM    3  C   UNL     1       7.749  26.807  56.426  1.00  0.00     0.281 C 
HETATM    4  C   UNL     1       6.696  27.844  56.254  1.00  0.00     0.060 A 
HETATM    5  C   UNL     1       5.388  27.644  56.471  1.00  0.00     0.052 A 
HETATM    6  N   UNL     1       4.447  28.641  56.413  1.00  0.00    -0.228 NA
HETATM    7  C   UNL     1       4.861  29.832  56.136  1.00  0.00     0.169 A 
HETATM    8  N   UNL     1       6.154  30.143  55.857  1.00  0.00    -0.302 N 
HETATM    9  C   UNL     1       7.135  29.201  55.878  1.00  0.00     0.257 A 
HETATM   10  O   UNL     1       8.310  29.427  55.624  1.00  0.00    -0.267 OA
HETATM   11  C   UNL     1       4.866  26.277  56.849  1.00  0.00     0.088 C 
HETATM   12  C   UNL     1       5.896  25.155  56.672  1.00  0.00     0.241 C 
HETATM   13  H   UNL     1       6.402  31.095  55.628  1.00  0.00     0.171 HD
ENDROOT
BRANCH   7  14
HETATM   14  S   UNL     1       3.808  31.210  56.108  1.00  0.00    -0.083 SA
BRANCH  14  15
HETATM   15  C   UNL     1       3.818  31.614  57.884  1.00  0.00     0.185 C 
BRANCH  15  16
HETATM   16  C   UNL     1       5.137  32.172  58.394  1.00  0.00     0.231 C 
HETATM   17  N   UNL     1       5.872  31.323  59.198  1.00  0.00    -0.326 N 
HETATM   18  H   UNL     1       5.414  30.453  59.454  1.00  0.00     0.169 HD
HETATM   19  O   UNL     1       5.490  33.292  58.028  1.00  0.00    -0.272 OA
BRANCH  17  20
HETATM   20  C   UNL     1       7.147  31.553  59.754  1.00  0.00     0.037 A 
HETATM   21  C   UNL     1       8.330  31.586  59.010  1.00  0.00     0.075 A 
HETATM   22  C   UNL     1       9.548  31.813  59.647  1.00  0.00     0.157 A 
HETATM   23  F   UNL     1      10.674  31.837  58.920  1.00  0.00    -0.203 F 
HETATM   24  C   UNL     1       9.603  32.009  61.020  1.00  0.00     0.155 A 
HETATM   25  F   UNL     1      10.777  32.226  61.627  1.00  0.00    -0.203 F 
HETATM   26  C   UNL     1       8.438  31.980  61.776  1.00  0.00     0.048 A 
HETATM   27  C   UNL     1       7.212  31.750  61.143  1.00  0.00     0.032 A 
ENDBRANCH  17  20
ENDBRANCH  15  16
ENDBRANCH  14  15
ENDBRANCH   7  14
BRANCH   1  28
HETATM   28  C   UNL     1       8.242  24.482  57.299  1.00  0.00     0.273 C 
BRANCH  28  29
HETATM   29  C   UNL     1       8.252  23.616  56.067  1.00  0.00    -0.030 A 
HETATM   30  C   UNL     1       8.111  24.193  54.783  1.00  0.00     0.012 A 
HETATM   31  C   UNL     1       8.170  23.403  53.630  1.00  0.00     0.040 A 
HETATM   32  C   UNL     1       8.373  22.049  53.784  1.00  0.00     0.105 A 
HETATM   33  C   UNL     1       8.500  21.478  55.024  1.00  0.00     0.105 A 
HETATM   34  O   UNL     1       8.473  21.138  52.782  1.00  0.00    -0.323 OA
HETATM   35  C   UNL     1       8.435  22.224  56.183  1.00  0.00     0.048 A 
HETATM   36  O   UNL     1       8.701  20.136  54.961  1.00  0.00    -0.323 OA
HETATM   37  C   UNL     1       8.676  19.922  53.531  1.00  0.00     0.352 A 
ENDBRANCH  28  29
ENDBRANCH   1  28
TORSDOF 6
ENDMDL
MODEL 6
REMARK VINA RESULT:      -9.7      3.087      3.982
REMARK  6 active torsions:
REMARK  status: ('A' for Active; 'I' for Inactive)
REMARK    1  A    between atoms: C_2  and  C_3 
REMARK    2  A    between atoms: C_3  and  N_4 
REMARK    3  A    between atoms: C_10  and  S_11 
REMARK    4  A    between atoms: S_11  and  C_12 
REMARK    5  A    between atoms: C_12  and  C_13 
REMARK       I    between atoms: C_13  and  N_14 
REMARK    6  A    between atoms: N_14  and  C_15 
ROOT
HETATM    1  N   UNL     1       7.052  25.871  53.854  1.00  0.00    -0.063 N 
HETATM    2  H   UNL     1       7.765  26.369  54.400  1.00  0.00     0.280 HD
HETATM    3  C   UNL     1       6.261  26.943  53.115  1.00  0.00     0.281 C 
HETATM    4  C   UNL     1       5.438  27.762  54.046  1.00  0.00     0.060 A 
HETATM    5  C   UNL     1       5.170  27.430  55.317  1.00  0.00     0.052 A 
HETATM    6  N   UNL     1       4.501  28.249  56.191  1.00  0.00    -0.228 NA
HETATM    7  C   UNL     1       4.120  29.401  55.751  1.00  0.00     0.169 A 
HETATM    8  N   UNL     1       4.299  29.825  54.473  1.00  0.00    -0.302 N 
HETATM    9  C   UNL     1       4.937  29.057  53.549  1.00  0.00     0.257 A 
HETATM   10  O   UNL     1       5.114  29.388  52.385  1.00  0.00    -0.267 OA
HETATM   11  C   UNL     1       5.642  26.114  55.890  1.00  0.00     0.088 C 
HETATM   12  C   UNL     1       6.168  25.137  54.833  1.00  0.00     0.241 C 
HETATM   13  H   UNL     1       3.956  30.733  54.193  1.00  0.00     0.171 HD
ENDROOT
BRANCH   7  14
HETATM   14  S   UNL     1       3.339  30.580  56.756  1.00  0.00    -0.083 SA
BRANCH  14  15
HETATM   15  C   UNL     1       4.333  32.040  56.310  1.00  0.00     0.185 C 
BRANCH  15  16
HETATM   16  C   UNL     1       5.273  32.519  57.406  1.00  0.00     0.231 C 
HETATM   17  N   UNL     1       6.028  31.535  58.015  1.00  0.00    -0.326 N 
HETATM   18  H   UNL     1       5.808  30.581  57.746  1.00  0.00     0.169 HD
HETATM   19  O   UNL     1       5.345  33.723  57.642  1.00  0.00    -0.272 OA
BRANCH  17  20
HETATM   20  C   UNL     1       7.015  31.699  59.009  1.00  0.00     0.037 A 
HETATM   21  C   UNL     1       6.773  32.263  60.264  1.00  0.00     0.075 A 
HETATM   22  C   UNL     1       7.813  32.392  61.182  1.00  0.00     0.157 A 
HETATM   23  F   UNL     1       7.566  32.940  62.380  1.00  0.00    -0.203 F 
HETATM   24  C   UNL     1       9.095  31.964  60.865  1.00  0.00     0.155 A 
HETATM   25  F   UNL     1      10.091  32.092  61.751  1.00  0.00    -0.203 F 
HETATM   26  C   UNL     1       9.354  31.401  59.622  1.00  0.00     0.048 A 
HETATM   27  C   UNL     1       8.315  31.271  58.695  1.00  0.00     0.032 A 
ENDBRANCH  17  20
ENDBRANCH  15  16
ENDBRANCH  14  15
ENDBRANCH   7  14
BRANCH   1  28
HETATM   28  C   UNL     1       7.808  24.948  52.929  1.00  0.00     0.273 C 
BRANCH  28  29
HETATM   29  C   UNL     1       7.957  23.561  53.497  1.00  0.00    -0.030 A 
HETATM   30  C   UNL     1       7.710  22.425  52.691  1.00  0.00     0.012 A 
HETATM   31  C   UNL     1       7.896  21.132  53.195  1.00  0.00     0.040 A 
HETATM   32  C   UNL     1       8.329  21.002  54.496  1.00  0.00     0.105 A 
HETATM   33  C   UNL     1       8.561  22.097  55.289  1.00  0.00     0.105 A 
HETATM   34  O   UNL     1       8.576  19.833  55.141  1.00  0.00    -0.323 OA
HETATM   35  C   UNL     1       8.378  23.385  54.829  1.00  0.00     0.048 A 
HETATM   36  O   UNL     1       8.990  21.757  56.532  1.00  0.00    -0.323 OA
HETATM   37  C   UNL     1       8.991  20.314  56.437  1.00  0.00     0.352 A 
ENDBRANCH  28  29
ENDBRANCH   1  28
TORSDOF 6
ENDMDL
MODEL 7
REMARK VINA RESULT:      -9.2      3.002      3.562
REMARK  6 active torsions:
REMARK  status: ('A' for Active; 'I' for Inactive)
REMARK    1  A    between atoms: C_2  and  C_3 
REMARK    2  A    between atoms: C_3  and  N_4 
REMARK    3  A    between atoms: C_10  and  S_11 
REMARK    4  A    between atoms: S_11  and  C_12 
REMARK    5  A    between atoms: C_12  and  C_13 
REMARK       I    between atoms: C_13  and  N_14 
REMARK    6  A    between atoms: N_14  and  C_15 
ROOT
HETATM    1  N   UNL     1       4.687  26.851  53.612  1.00  0.00    -0.063 N 
HETATM    2  H   UNL     1       3.993  26.704  54.355  1.00  0.00     0.280 HD
HETATM    3  C   UNL     1       5.909  27.458  54.291  1.00  0.00     0.281 C 
HETATM    4  C   UNL     1       5.646  28.845  54.764  1.00  0.00     0.060 A 
HETATM    5  C   UNL     1       4.598  29.591  54.387  1.00  0.00     0.052 A 
HETATM    6  N   UNL     1       4.314  30.824  54.916  1.00  0.00    -0.228 NA
HETATM    7  C   UNL     1       5.107  31.274  55.830  1.00  0.00     0.169 A 
HETATM    8  N   UNL     1       6.221  30.625  56.259  1.00  0.00    -0.302 N 
HETATM    9  C   UNL     1       6.572  29.408  55.763  1.00  0.00     0.257 A 
HETATM   10  O   UNL     1       7.569  28.788  56.108  1.00  0.00    -0.267 OA
HETATM   11  C   UNL     1       3.614  29.082  53.358  1.00  0.00     0.088 C 
HETATM   12  C   UNL     1       4.089  27.823  52.624  1.00  0.00     0.241 C 
HETATM   13  H   UNL     1       6.807  31.048  56.964  1.00  0.00     0.171 HD
ENDROOT
BRANCH   7  14
HETATM   14  S   UNL     1       4.835  32.777  56.654  1.00  0.00    -0.083 SA
BRANCH  14  15
HETATM   15  C   UNL     1       3.628  32.209  57.894  1.00  0.00     0.185 C 
BRANCH  15  16
HETATM   16  C   UNL     1       4.165  32.158  59.316  1.00  0.00     0.231 C 
HETATM   17  N   UNL     1       5.501  32.478  59.460  1.00  0.00    -0.326 N 
HETATM   18  H   UNL     1       6.017  32.614  58.596  1.00  0.00     0.169 HD
HETATM   19  O   UNL     1       3.391  31.896  60.234  1.00  0.00    -0.272 OA
BRANCH  17  20
HETATM   20  C   UNL     1       6.240  32.570  60.657  1.00  0.00     0.037 A 
HETATM   21  C   UNL     1       7.321  31.743  60.974  1.00  0.00     0.075 A 
HETATM   22  C   UNL     1       7.988  31.903  62.187  1.00  0.00     0.157 A 
HETATM   23  F   UNL     1       9.019  31.098  62.480  1.00  0.00    -0.203 F 
HETATM   24  C   UNL     1       7.593  32.880  63.090  1.00  0.00     0.155 A 
HETATM   25  F   UNL     1       8.237  33.028  64.254  1.00  0.00    -0.203 F 
HETATM   26  C   UNL     1       6.521  33.712  62.791  1.00  0.00     0.048 A 
HETATM   27  C   UNL     1       5.845  33.555  61.577  1.00  0.00     0.032 A 
ENDBRANCH  17  20
ENDBRANCH  15  16
ENDBRANCH  14  15
ENDBRANCH   7  14
BRANCH   1  28
HETATM   28  C   UNL     1       4.954  25.489  53.018  1.00  0.00     0.273 C 
BRANCH  28  29
HETATM   29  C   UNL     1       5.987  24.716  53.795  1.00  0.00    -0.030 A 
HETATM   30  C   UNL     1       6.003  24.760  55.209  1.00  0.00     0.012 A 
HETATM   31  C   UNL     1       6.925  24.005  55.942  1.00  0.00     0.040 A 
HETATM   32  C   UNL     1       7.813  23.216  55.244  1.00  0.00     0.105 A 
HETATM   33  C   UNL     1       7.813  23.174  53.873  1.00  0.00     0.105 A 
HETATM   34  O   UNL     1       8.761  22.410  55.787  1.00  0.00    -0.323 OA
HETATM   35  C   UNL     1       6.926  23.913  53.119  1.00  0.00     0.048 A 
HETATM   36  O   UNL     1       8.757  22.331  53.378  1.00  0.00    -0.323 OA
HETATM   37  C   UNL     1       9.364  21.852  54.601  1.00  0.00     0.352 A 
ENDBRANCH  28  29
ENDBRANCH   1  28
TORSDOF 6
ENDMDL
MODEL 8
REMARK VINA RESULT:      -9.1      3.347      4.607
REMARK  6 active torsions:
REMARK  status: ('A' for Active; 'I' for Inactive)
REMARK    1  A    between atoms: C_2  and  C_3 
REMARK    2  A    between atoms: C_3  and  N_4 
REMARK    3  A    between atoms: C_10  and  S_11 
REMARK    4  A    between atoms: S_11  and  C_12 
REMARK    5  A    between atoms: C_12  and  C_13 
REMARK       I    between atoms: C_13  and  N_14 
REMARK    6  A    between atoms: N_14  and  C_15 
ROOT
HETATM    1  N   UNL     1       7.475  28.881  57.453  1.00  0.00    -0.063 N 
HETATM    2  H   UNL     1       7.829  29.357  56.614  1.00  0.00     0.280 HD
HETATM    3  C   UNL     1       5.961  29.049  57.425  1.00  0.00     0.281 C 
HETATM    4  C   UNL     1       5.557  30.462  57.662  1.00  0.00     0.060 A 
HETATM    5  C   UNL     1       6.369  31.415  58.142  1.00  0.00     0.052 A 
HETATM    6  N   UNL     1       6.011  32.735  58.250  1.00  0.00    -0.228 NA
HETATM    7  C   UNL     1       4.824  33.061  57.860  1.00  0.00     0.169 A 
HETATM    8  N   UNL     1       3.904  32.175  57.398  1.00  0.00    -0.302 N 
HETATM    9  C   UNL     1       4.186  30.849  57.282  1.00  0.00     0.257 A 
HETATM   10  O   UNL     1       3.390  30.010  56.883  1.00  0.00    -0.267 OA
HETATM   11  C   UNL     1       7.784  31.088  58.561  1.00  0.00     0.088 C 
HETATM   12  C   UNL     1       8.067  29.584  58.651  1.00  0.00     0.241 C 
HETATM   13  H   UNL     1       2.986  32.499  57.129  1.00  0.00     0.171 HD
ENDROOT
BRANCH   7  14
HETATM   14  S   UNL     1       4.253  34.700  57.856  1.00  0.00    -0.083 SA
BRANCH  14  15
HETATM   15  C   UNL     1       3.068  34.593  59.234  1.00  0.00     0.185 C 
BRANCH  15  16
HETATM   16  C   UNL     1       3.650  34.028  60.521  1.00  0.00     0.231 C 
HETATM   17  N   UNL     1       4.829  34.607  60.946  1.00  0.00    -0.326 N 
HETATM   18  H   UNL     1       5.246  35.278  60.307  1.00  0.00     0.169 HD
HETATM   19  O   UNL     1       3.027  33.153  61.120  1.00  0.00    -0.272 OA
BRANCH  17  20
HETATM   20  C   UNL     1       5.550  34.326  62.125  1.00  0.00     0.037 A 
HETATM   21  C   UNL     1       6.616  33.425  62.192  1.00  0.00     0.075 A 
HETATM   22  C   UNL     1       7.267  33.204  63.405  1.00  0.00     0.157 A 
HETATM   23  F   UNL     1       8.284  32.333  63.454  1.00  0.00    -0.203 F 
HETATM   24  C   UNL     1       6.868  33.873  64.554  1.00  0.00     0.155 A 
HETATM   25  F   UNL     1       7.496  33.656  65.717  1.00  0.00    -0.203 F 
HETATM   26  C   UNL     1       5.811  34.772  64.506  1.00  0.00     0.048 A 
HETATM   27  C   UNL     1       5.152  34.996  63.293  1.00  0.00     0.032 A 
ENDBRANCH  17  20
ENDBRANCH  15  16
ENDBRANCH  14  15
ENDBRANCH   7  14
BRANCH   1  28
HETATM   28  C   UNL     1       7.915  27.442  57.332  1.00  0.00     0.273 C 
BRANCH  28  29
HETATM   29  C   UNL     1       7.228  26.725  56.201  1.00  0.00    -0.030 A 
HETATM   30  C   UNL     1       6.429  25.584  56.454  1.00  0.00     0.012 A 
HETATM   31  C   UNL     1       5.745  24.941  55.417  1.00  0.00     0.040 A 
HETATM   32  C   UNL     1       5.870  25.454  54.145  1.00  0.00     0.105 A 
HETATM   33  C   UNL     1       6.650  26.553  53.887  1.00  0.00     0.105 A 
HETATM   34  O   UNL     1       5.269  24.972  53.027  1.00  0.00    -0.323 OA
HETATM   35  C   UNL     1       7.347  27.205  54.883  1.00  0.00     0.048 A 
HETATM   36  O   UNL     1       6.634  26.905  52.575  1.00  0.00    -0.323 OA
HETATM   37  C   UNL     1       5.759  25.891  52.029  1.00  0.00     0.352 A 
ENDBRANCH  28  29
ENDBRANCH   1  28
TORSDOF 6
ENDMDL
MODEL 9
REMARK VINA RESULT:      -9.0      6.160      8.427
REMARK  6 active torsions:
REMARK  status: ('A' for Active; 'I' for Inactive)
REMARK    1  A    between atoms: C_2  and  C_3 
REMARK    2  A    between atoms: C_3  and  N_4 
REMARK    3  A    between atoms: C_10  and  S_11 
REMARK    4  A    between atoms: S_11  and  C_12 
REMARK    5  A    between atoms: C_12  and  C_13 
REMARK       I    between atoms: C_13  and  N_14 
REMARK    6  A    between atoms: N_14  and  C_15 
ROOT
HETATM    1  N   UNL     1       7.311  25.599  57.300  1.00  0.00    -0.063 N 
HETATM    2  H   UNL     1       7.140  25.921  58.260  1.00  0.00     0.280 HD
HETATM    3  C   UNL     1       7.857  26.802  56.541  1.00  0.00     0.281 C 
HETATM    4  C   UNL     1       6.819  27.851  56.349  1.00  0.00     0.060 A 
HETATM    5  C   UNL     1       5.504  27.663  56.531  1.00  0.00     0.052 A 
HETATM    6  N   UNL     1       4.575  28.669  56.455  1.00  0.00    -0.228 NA
HETATM    7  C   UNL     1       5.008  29.858  56.197  1.00  0.00     0.169 A 
HETATM    8  N   UNL     1       6.310  30.158  55.954  1.00  0.00    -0.302 N 
HETATM    9  C   UNL     1       7.281  29.206  55.994  1.00  0.00     0.257 A 
HETATM   10  O   UNL     1       8.464  29.422  55.772  1.00  0.00    -0.267 OA
HETATM   11  C   UNL     1       4.958  26.298  56.886  1.00  0.00     0.088 C 
HETATM   12  C   UNL     1       5.981  25.168  56.728  1.00  0.00     0.241 C 
HETATM   13  H   UNL     1       6.574  31.109  55.738  1.00  0.00     0.171 HD
ENDROOT
BRANCH   7  14
HETATM   14  S   UNL     1       3.969  31.247  56.151  1.00  0.00    -0.083 SA
BRANCH  14  15
HETATM   15  C   UNL     1       4.302  31.797  54.447  1.00  0.00     0.185 C 
BRANCH  15  16
HETATM   16  C   UNL     1       3.967  30.768  53.378  1.00  0.00     0.231 C 
HETATM   17  N   UNL     1       5.051  30.152  52.785  1.00  0.00    -0.326 N 
HETATM   18  H   UNL     1       5.962  30.518  53.044  1.00  0.00     0.169 HD
HETATM   19  O   UNL     1       2.786  30.513  53.150  1.00  0.00    -0.272 OA
BRANCH  17  20
HETATM   20  C   UNL     1       5.034  29.126  51.818  1.00  0.00     0.037 A 
HETATM   21  C   UNL     1       5.023  27.763  52.125  1.00  0.00     0.075 A 
HETATM   22  C   UNL     1       5.015  26.818  51.101  1.00  0.00     0.157 A 
HETATM   23  F   UNL     1       5.009  25.514  51.412  1.00  0.00    -0.203 F 
HETATM   24  C   UNL     1       5.015  27.215  49.771  1.00  0.00     0.155 A 
HETATM   25  F   UNL     1       5.008  26.302  48.791  1.00  0.00    -0.203 F 
HETATM   26  C   UNL     1       5.026  28.565  49.447  1.00  0.00     0.048 A 
HETATM   27  C   UNL     1       5.038  29.519  50.469  1.00  0.00     0.032 A 
ENDBRANCH  17  20
ENDBRANCH  15  16
ENDBRANCH  14  15
ENDBRANCH   7  14
BRANCH   1  28
HETATM   28  C   UNL     1       8.304  24.467  57.411  1.00  0.00     0.273 C 
BRANCH  28  29
HETATM   29  C   UNL     1       8.307  23.584  56.191  1.00  0.00    -0.030 A 
HETATM   30  C   UNL     1       8.139  24.142  54.901  1.00  0.00     0.012 A 
HETATM   31  C   UNL     1       8.192  23.338  53.758  1.00  0.00     0.040 A 
HETATM   32  C   UNL     1       8.417  21.989  53.926  1.00  0.00     0.105 A 
HETATM   33  C   UNL     1       8.570  21.437  55.172  1.00  0.00     0.105 A 
HETATM   34  O   UNL     1       8.514  21.066  52.935  1.00  0.00    -0.323 OA
HETATM   35  C   UNL     1       8.513  22.197  56.321  1.00  0.00     0.048 A 
HETATM   36  O   UNL     1       8.790  20.097  55.124  1.00  0.00    -0.323 OA
HETATM   37  C   UNL     1       8.746  19.863  53.697  1.00  0.00     0.352 A 
ENDBRANCH  28  29
ENDBRANCH   1  28
TORSDOF 6
ENDMDL
MODEL 10
REMARK VINA RESULT:      -9.0      5.102     12.048
REMARK  6 active torsions:
REMARK  status: ('A' for Active; 'I' for Inactive)
REMARK    1  A    between atoms: C_2  and  C_3 
REMARK    2  A    between atoms: C_3  and  N_4 
REMARK    3  A    between atoms: C_10  and  S_11 
REMARK    4  A    between atoms: S_11  and  C_12 
REMARK    5  A    between atoms: C_12  and  C_13 
REMARK       I    between atoms: C_13  and  N_14 
REMARK    6  A    between atoms: N_14  and  C_15 
ROOT
HETATM    1  N   UNL     1       5.322  33.679  61.374  1.00  0.00    -0.063 N 
HETATM    2  H   UNL     1       5.981  34.398  61.054  1.00  0.00     0.280 HD
HETATM    3  C   UNL     1       6.174  32.527  61.894  1.00  0.00     0.281 C 
HETATM    4  C   UNL     1       6.897  31.834  60.793  1.00  0.00     0.060 A 
HETATM    5  C   UNL     1       6.617  31.980  59.489  1.00  0.00     0.052 A 
HETATM    6  N   UNL     1       7.364  31.418  58.484  1.00  0.00    -0.228 NA
HETATM    7  C   UNL     1       8.391  30.717  58.830  1.00  0.00     0.169 A 
HETATM    8  N   UNL     1       8.744  30.468  60.118  1.00  0.00    -0.302 N 
HETATM    9  C   UNL     1       8.038  30.977  61.163  1.00  0.00     0.257 A 
HETATM   10  O   UNL     1       8.307  30.774  62.339  1.00  0.00    -0.267 OA
HETATM   11  C   UNL     1       5.455  32.835  59.036  1.00  0.00     0.088 C 
HETATM   12  C   UNL     1       4.514  33.244  60.175  1.00  0.00     0.241 C 
HETATM   13  H   UNL     1       9.551  29.892  60.315  1.00  0.00     0.171 HD
ENDROOT
BRANCH   7  14
HETATM   14  S   UNL     1       9.480  30.013  57.677  1.00  0.00    -0.083 SA
BRANCH  14  15
HETATM   15  C   UNL     1       8.647  28.412  57.437  1.00  0.00     0.185 C 
BRANCH  15  16
HETATM   16  C   UNL     1       8.109  28.188  56.032  1.00  0.00     0.231 C 
HETATM   17  N   UNL     1       7.593  26.931  55.785  1.00  0.00    -0.326 N 
HETATM   18  H   UNL     1       7.717  26.250  56.528  1.00  0.00     0.169 HD
HETATM   19  O   UNL     1       8.114  29.127  55.238  1.00  0.00    -0.272 OA
BRANCH  17  20
HETATM   20  C   UNL     1       6.979  26.470  54.602  1.00  0.00     0.037 A 
HETATM   21  C   UNL     1       7.664  25.834  53.563  1.00  0.00     0.075 A 
HETATM   22  C   UNL     1       6.974  25.418  52.426  1.00  0.00     0.157 A 
HETATM   23  F   UNL     1       7.646  24.815  51.435  1.00  0.00    -0.203 F 
HETATM   24  C   UNL     1       5.607  25.626  52.312  1.00  0.00     0.155 A 
HETATM   25  F   UNL     1       4.949  25.225  51.216  1.00  0.00    -0.203 F 
HETATM   26  C   UNL     1       4.909  26.256  53.335  1.00  0.00     0.048 A 
HETATM   27  C   UNL     1       5.596  26.679  54.478  1.00  0.00     0.032 A 
ENDBRANCH  17  20
ENDBRANCH  15  16
ENDBRANCH  14  15
ENDBRANCH   7  14
BRANCH   1  28
HETATM   28  C   UNL     1       4.485  34.330  62.449  1.00  0.00     0.273 C 
BRANCH  28  29
HETATM   29  C   UNL     1       5.116  34.222  63.812  1.00  0.00    -0.030 A 
HETATM   30  C   UNL     1       6.523  34.262  63.956  1.00  0.00     0.012 A 
HETATM   31  C   UNL     1       7.117  34.215  65.223  1.00  0.00     0.040 A 
HETATM   32  C   UNL     1       6.291  34.131  66.321  1.00  0.00     0.105 A 
HETATM   33  C   UNL     1       4.926  34.080  66.191  1.00  0.00     0.105 A 
HETATM   34  O   UNL     1       6.689  34.091  67.618  1.00  0.00    -0.323 OA
HETATM   35  C   UNL     1       4.307  34.114  64.959  1.00  0.00     0.048 A 
HETATM   36  O   UNL     1       4.291  34.008  67.391  1.00  0.00    -0.323 OA
HETATM   37  C   UNL     1       5.418  34.008  68.297  1.00  0.00     0.352 A 
ENDBRANCH  28  29
ENDBRANCH   1  28
TORSDOF 6
ENDMDL
