MODEL 1
REMARK VINA RESULT:      -8.8      0.000      0.000
REMARK  3 active torsions:
REMARK  status: ('A' for Active; 'I' for Inactive)
REMARK    1  A    between atoms: C_2  and  N_3 
REMARK       I    between atoms: N_3  and  C_4 
REMARK    2  A    between atoms: C_4  and  C_5 
REMARK    3  A    between atoms: C_5  and  C_6 
ROOT
HETATM    1  C   UNL     1       7.005  25.126  55.993  1.00  0.00     0.286 C 
HETATM    2  N   UNL     1       7.445  24.310  54.769  1.00  0.00    -0.056 N 
HETATM    3  H   UNL     1       6.818  24.515  53.972  1.00  0.00     0.278 HD
HETATM    4  H   UNL     1       8.372  24.639  54.459  1.00  0.00     0.278 HD
HETATM    5  C   UNL     1       7.481  22.847  55.094  1.00  0.00     0.209 C 
HETATM    6  C   UNL     1       8.549  22.640  56.191  1.00  0.00     0.115 C 
HETATM    7  N   UNL     1       8.291  23.483  57.357  1.00  0.00    -0.353 N 
HETATM    8  C   UNL     1       7.826  24.778  57.256  1.00  0.00     0.249 C 
HETATM    9  O   UNL     1       7.990  25.568  58.179  1.00  0.00    -0.271 OA
HETATM   10  C   UNL     1       7.786  22.032  53.847  1.00  0.00     0.035 C 
HETATM   11  C   UNL     1       7.876  20.550  54.211  1.00  0.00     0.002 C 
HETATM   12  C   UNL     1       8.900  20.297  55.318  1.00  0.00     0.002 C 
HETATM   13  C   UNL     1       8.651  21.160  56.558  1.00  0.00     0.027 C 
HETATM   14  H   UNL     1       8.854  23.332  58.194  1.00  0.00     0.163 HD
ENDROOT
BRANCH   1  15
HETATM   15  C   UNL     1       7.075  26.612  55.669  1.00  0.00     0.146 C 
BRANCH  15  16
HETATM   16  C   UNL     1       5.680  27.156  55.748  1.00  0.00     0.224 C 
HETATM   17  N   UNL     1       4.833  27.271  54.697  1.00  0.00    -0.327 N 
HETATM   18  H   UNL     1       4.011  27.812  54.958  1.00  0.00     0.169 HD
HETATM   19  O   UNL     1       5.374  27.747  56.795  1.00  0.00    -0.273 OA
BRANCH  17  20
HETATM   20  C   UNL     1       4.878  26.892  53.345  1.00  0.00     0.034 A 
HETATM   21  C   UNL     1       4.857  25.584  52.860  1.00  0.00     0.032 A 
HETATM   22  C   UNL     1       4.931  25.338  51.483  1.00  0.00     0.044 A 
HETATM   23  C   UNL     1       5.013  26.397  50.591  1.00  0.00     0.116 A 
HETATM   24  C   UNL     1       5.005  27.705  51.047  1.00  0.00     0.044 A 
HETATM   25  F   UNL     1       5.090  26.153  49.277  1.00  0.00    -0.206 F 
HETATM   26  C   UNL     1       4.924  27.950  52.419  1.00  0.00     0.032 A 
ENDBRANCH  17  20
ENDBRANCH  15  16
ENDBRANCH   1  15
TORSDOF 3
ENDMDL
MODEL 2
REMARK VINA RESULT:      -8.6      1.824      5.905
REMARK  3 active torsions:
REMARK  status: ('A' for Active; 'I' for Inactive)
REMARK    1  A    between atoms: C_2  and  N_3 
REMARK       I    between atoms: N_3  and  C_4 
REMARK    2  A    between atoms: C_4  and  C_5 
REMARK    3  A    between atoms: C_5  and  C_6 
ROOT
HETATM    1  C   UNL     1       6.215  26.153  55.508  1.00  0.00     0.286 C 
HETATM    2  N   UNL     1       5.735  25.470  54.219  1.00  0.00    -0.056 N 
HETATM    3  H   UNL     1       6.359  24.675  53.995  1.00  0.00     0.278 HD
HETATM    4  H   UNL     1       4.815  25.036  54.389  1.00  0.00     0.278 HD
HETATM    5  C   UNL     1       5.658  26.457  53.094  1.00  0.00     0.209 C 
HETATM    6  C   UNL     1       4.599  27.514  53.475  1.00  0.00     0.115 C 
HETATM    7  N   UNL     1       4.896  28.133  54.765  1.00  0.00    -0.353 N 
HETATM    8  C   UNL     1       5.399  27.424  55.836  1.00  0.00     0.249 C 
HETATM    9  O   UNL     1       5.271  27.853  56.977  1.00  0.00    -0.271 OA
HETATM   10  C   UNL     1       5.313  25.754  51.791  1.00  0.00     0.035 C 
HETATM   11  C   UNL     1       5.182  26.785  50.669  1.00  0.00     0.002 C 
HETATM   12  C   UNL     1       4.164  27.874  51.013  1.00  0.00     0.002 C 
HETATM   13  C   UNL     1       4.455  28.547  52.357  1.00  0.00     0.027 C 
HETATM   14  H   UNL     1       4.339  28.938  55.053  1.00  0.00     0.163 HD
ENDROOT
BRANCH   1  15
HETATM   15  C   UNL     1       6.187  25.154  56.657  1.00  0.00     0.146 C 
BRANCH  15  16
HETATM   16  C   UNL     1       7.604  24.927  57.090  1.00  0.00     0.224 C 
HETATM   17  N   UNL     1       8.390  23.911  56.661  1.00  0.00    -0.327 N 
HETATM   18  H   UNL     1       9.248  23.866  57.210  1.00  0.00     0.169 HD
HETATM   19  O   UNL     1       7.995  25.575  58.072  1.00  0.00    -0.273 OA
BRANCH  17  20
HETATM   20  C   UNL     1       8.251  22.883  55.712  1.00  0.00     0.034 A 
HETATM   21  C   UNL     1       7.963  21.547  55.990  1.00  0.00     0.032 A 
HETATM   22  C   UNL     1       7.873  20.612  54.952  1.00  0.00     0.044 A 
HETATM   23  C   UNL     1       8.058  21.012  53.636  1.00  0.00     0.116 A 
HETATM   24  C   UNL     1       8.315  22.340  53.334  1.00  0.00     0.044 A 
HETATM   25  F   UNL     1       7.976  20.112  52.650  1.00  0.00    -0.206 F 
HETATM   26  C   UNL     1       8.398  23.273  54.369  1.00  0.00     0.032 A 
ENDBRANCH  17  20
ENDBRANCH  15  16
ENDBRANCH   1  15
TORSDOF 3
ENDMDL
MODEL 3
REMARK VINA RESULT:      -8.5      3.838      5.181
REMARK  3 active torsions:
REMARK  status: ('A' for Active; 'I' for Inactive)
REMARK    1  A    between atoms: C_2  and  N_3 
REMARK       I    between atoms: N_3  and  C_4 
REMARK    2  A    between atoms: C_4  and  C_5 
REMARK    3  A    between atoms: C_5  and  C_6 
ROOT
HETATM    1  C   UNL     1       6.625  25.885  55.719  1.00  0.00     0.286 C 
HETATM    2  N   UNL     1       6.885  25.293  54.326  1.00  0.00    -0.056 N 
HETATM    3  H   UNL     1       6.050  25.431  53.730  1.00  0.00     0.278 HD
HETATM    4  H   UNL     1       7.628  25.836  53.861  1.00  0.00     0.278 HD
HETATM    5  C   UNL     1       7.267  23.847  54.429  1.00  0.00     0.209 C 
HETATM    6  C   UNL     1       8.595  23.772  55.213  1.00  0.00     0.115 C 
HETATM    7  N   UNL     1       8.490  24.434  56.513  1.00  0.00    -0.353 N 
HETATM    8  C   UNL     1       7.786  25.607  56.700  1.00  0.00     0.249 C 
HETATM    9  O   UNL     1       8.030  26.327  57.661  1.00  0.00    -0.271 OA
HETATM   10  C   UNL     1       7.392  23.230  53.045  1.00  0.00     0.035 C 
HETATM   11  C   UNL     1       7.839  21.773  53.170  1.00  0.00     0.002 C 
HETATM   12  C   UNL     1       9.137  21.643  53.969  1.00  0.00     0.002 C 
HETATM   13  C   UNL     1       9.055  22.320  55.340  1.00  0.00     0.027 C 
HETATM   14  H   UNL     1       9.263  24.331  57.170  1.00  0.00     0.163 HD
ENDROOT
BRANCH   1  15
HETATM   15  C   UNL     1       6.339  27.376  55.595  1.00  0.00     0.146 C 
BRANCH  15  16
HETATM   16  C   UNL     1       7.304  27.937  54.594  1.00  0.00     0.224 C 
HETATM   17  N   UNL     1       8.298  28.812  54.883  1.00  0.00    -0.327 N 
HETATM   18  H   UNL     1       8.715  29.174  54.027  1.00  0.00     0.169 HD
HETATM   19  O   UNL     1       7.026  27.766  53.398  1.00  0.00    -0.273 OA
BRANCH  17  20
HETATM   20  C   UNL     1       8.806  29.376  56.065  1.00  0.00     0.034 A 
HETATM   21  C   UNL     1      10.153  29.601  56.351  1.00  0.00     0.032 A 
HETATM   22  C   UNL     1      10.534  30.151  57.581  1.00  0.00     0.044 A 
HETATM   23  C   UNL     1       9.570  30.489  58.520  1.00  0.00     0.116 A 
HETATM   24  C   UNL     1       8.225  30.303  58.247  1.00  0.00     0.044 A 
HETATM   25  F   UNL     1       9.942  31.009  59.696  1.00  0.00    -0.206 F 
HETATM   26  C   UNL     1       7.845  29.761  57.017  1.00  0.00     0.032 A 
ENDBRANCH  17  20
ENDBRANCH  15  16
ENDBRANCH   1  15
TORSDOF 3
ENDMDL
MODEL 4
REMARK VINA RESULT:      -8.2      3.140      6.469
REMARK  3 active torsions:
REMARK  status: ('A' for Active; 'I' for Inactive)
REMARK    1  A    between atoms: C_2  and  N_3 
REMARK       I    between atoms: N_3  and  C_4 
REMARK    2  A    between atoms: C_4  and  C_5 
REMARK    3  A    between atoms: C_5  and  C_6 
ROOT
HETATM    1  C   UNL     1       5.485  25.883  54.330  1.00  0.00     0.286 C 
HETATM    2  N   UNL     1       6.832  26.065  55.045  1.00  0.00    -0.056 N 
HETATM    3  H   UNL     1       7.115  25.171  55.484  1.00  0.00     0.278 HD
HETATM    4  H   UNL     1       7.565  26.251  54.344  1.00  0.00     0.278 HD
HETATM    5  C   UNL     1       6.755  27.180  56.043  1.00  0.00     0.209 C 
HETATM    6  C   UNL     1       6.471  28.483  55.264  1.00  0.00     0.115 C 
HETATM    7  N   UNL     1       5.270  28.364  54.438  1.00  0.00    -0.353 N 
HETATM    8  C   UNL     1       4.944  27.211  53.754  1.00  0.00     0.249 C 
HETATM    9  O   UNL     1       4.184  27.256  52.793  1.00  0.00    -0.271 OA
HETATM   10  C   UNL     1       8.045  27.270  56.843  1.00  0.00     0.035 C 
HETATM   11  C   UNL     1       7.969  28.449  57.812  1.00  0.00     0.002 C 
HETATM   12  C   UNL     1       7.657  29.761  57.090  1.00  0.00     0.002 C 
HETATM   13  C   UNL     1       6.397  29.670  56.224  1.00  0.00     0.027 C 
HETATM   14  H   UNL     1       4.912  29.205  53.985  1.00  0.00     0.163 HD
ENDROOT
BRANCH   1  15
HETATM   15  C   UNL     1       5.619  24.815  53.253  1.00  0.00     0.146 C 
BRANCH  15  16
HETATM   16  C   UNL     1       7.003  24.919  52.686  1.00  0.00     0.224 C 
HETATM   17  N   UNL     1       8.006  24.042  52.930  1.00  0.00    -0.327 N 
HETATM   18  H   UNL     1       8.890  24.402  52.573  1.00  0.00     0.169 HD
HETATM   19  O   UNL     1       7.304  25.996  52.151  1.00  0.00    -0.273 OA
BRANCH  17  20
HETATM   20  C   UNL     1       8.109  22.822  53.620  1.00  0.00     0.034 A 
HETATM   21  C   UNL     1       7.946  21.553  53.066  1.00  0.00     0.032 A 
HETATM   22  C   UNL     1       8.051  20.411  53.870  1.00  0.00     0.044 A 
HETATM   23  C   UNL     1       8.330  20.535  55.223  1.00  0.00     0.116 A 
HETATM   24  C   UNL     1       8.526  21.785  55.789  1.00  0.00     0.044 A 
HETATM   25  F   UNL     1       8.423  19.440  55.986  1.00  0.00    -0.206 F 
HETATM   26  C   UNL     1       8.428  22.923  54.986  1.00  0.00     0.032 A 
ENDBRANCH  17  20
ENDBRANCH  15  16
ENDBRANCH   1  15
TORSDOF 3
ENDMDL
MODEL 5
REMARK VINA RESULT:      -8.1      3.381      4.917
REMARK  3 active torsions:
REMARK  status: ('A' for Active; 'I' for Inactive)
REMARK    1  A    between atoms: C_2  and  N_3 
REMARK       I    between atoms: N_3  and  C_4 
REMARK    2  A    between atoms: C_4  and  C_5 
REMARK    3  A    between atoms: C_5  and  C_6 
ROOT
HETATM    1  C   UNL     1       7.169  25.137  54.835  1.00  0.00     0.286 C 
HETATM    2  N   UNL     1       6.802  23.790  55.474  1.00  0.00    -0.056 N 
HETATM    3  H   UNL     1       6.667  23.915  56.492  1.00  0.00     0.278 HD
HETATM    4  H   UNL     1       5.879  23.490  55.125  1.00  0.00     0.278 HD
HETATM    5  C   UNL     1       7.846  22.758  55.170  1.00  0.00     0.209 C 
HETATM    6  C   UNL     1       7.863  22.550  53.640  1.00  0.00     0.115 C 
HETATM    7  N   UNL     1       8.073  23.810  52.928  1.00  0.00    -0.353 N 
HETATM    8  C   UNL     1       7.504  25.000  53.332  1.00  0.00     0.249 C 
HETATM    9  O   UNL     1       7.370  25.923  52.536  1.00  0.00    -0.271 OA
HETATM   10  C   UNL     1       7.551  21.466  55.914  1.00  0.00     0.035 C 
HETATM   11  C   UNL     1       8.593  20.410  55.545  1.00  0.00     0.002 C 
HETATM   12  C   UNL     1       8.670  20.190  54.033  1.00  0.00     0.002 C 
HETATM   13  C   UNL     1       8.898  21.492  53.260  1.00  0.00     0.027 C 
HETATM   14  H   UNL     1       8.235  23.773  51.921  1.00  0.00     0.163 HD
ENDROOT
BRANCH   1  15
HETATM   15  C   UNL     1       6.045  26.137  55.071  1.00  0.00     0.146 C 
BRANCH  15  16
HETATM   16  C   UNL     1       5.732  26.123  56.537  1.00  0.00     0.224 C 
HETATM   17  N   UNL     1       6.374  26.862  57.473  1.00  0.00    -0.327 N 
HETATM   18  H   UNL     1       6.102  26.569  58.409  1.00  0.00     0.169 HD
HETATM   19  O   UNL     1       4.997  25.209  56.939  1.00  0.00    -0.273 OA
BRANCH  17  20
HETATM   20  C   UNL     1       7.367  27.857  57.439  1.00  0.00     0.034 A 
HETATM   21  C   UNL     1       8.694  27.675  57.049  1.00  0.00     0.032 A 
HETATM   22  C   UNL     1       9.595  28.746  57.082  1.00  0.00     0.044 A 
HETATM   23  C   UNL     1       9.168  30.001  57.492  1.00  0.00     0.116 A 
HETATM   24  C   UNL     1       7.848  30.213  57.854  1.00  0.00     0.044 A 
HETATM   25  F   UNL     1      10.037  31.019  57.526  1.00  0.00    -0.206 F 
HETATM   26  C   UNL     1       6.948  29.146  57.814  1.00  0.00     0.032 A 
ENDBRANCH  17  20
ENDBRANCH  15  16
ENDBRANCH   1  15
TORSDOF 3
ENDMDL
MODEL 6
REMARK VINA RESULT:      -8.0      5.814      7.709
REMARK  3 active torsions:
REMARK  status: ('A' for Active; 'I' for Inactive)
REMARK    1  A    between atoms: C_2  and  N_3 
REMARK       I    between atoms: N_3  and  C_4 
REMARK    2  A    between atoms: C_4  and  C_5 
REMARK    3  A    between atoms: C_5  and  C_6 
ROOT
HETATM    1  C   UNL     1       7.950  27.950  56.929  1.00  0.00     0.286 C 
HETATM    2  N   UNL     1       8.267  26.584  57.557  1.00  0.00    -0.056 N 
HETATM    3  H   UNL     1       9.170  26.635  58.059  1.00  0.00     0.278 HD
HETATM    4  H   UNL     1       7.573  26.381  58.292  1.00  0.00     0.278 HD
HETATM    5  C   UNL     1       8.265  25.509  56.513  1.00  0.00     0.209 C 
HETATM    6  C   UNL     1       6.836  25.426  55.933  1.00  0.00     0.115 C 
HETATM    7  N   UNL     1       6.386  26.722  55.426  1.00  0.00    -0.353 N 
HETATM    8  C   UNL     1       6.672  27.913  56.061  1.00  0.00     0.249 C 
HETATM    9  O   UNL     1       5.982  28.905  55.854  1.00  0.00    -0.271 OA
HETATM   10  C   UNL     1       8.710  24.184  57.112  1.00  0.00     0.035 C 
HETATM   11  C   UNL     1       8.644  23.090  56.046  1.00  0.00     0.002 C 
HETATM   12  C   UNL     1       7.253  22.989  55.418  1.00  0.00     0.002 C 
HETATM   13  C   UNL     1       6.758  24.331  54.870  1.00  0.00     0.027 C 
HETATM   14  H   UNL     1       5.512  26.756  54.901  1.00  0.00     0.163 HD
ENDROOT
BRANCH   1  15
HETATM   15  C   UNL     1       7.857  29.005  58.022  1.00  0.00     0.146 C 
BRANCH  15  16
HETATM   16  C   UNL     1       9.071  29.879  57.908  1.00  0.00     0.224 C 
HETATM   17  N   UNL     1       9.413  30.846  58.792  1.00  0.00    -0.327 N 
HETATM   18  H   UNL     1      10.178  31.411  58.425  1.00  0.00     0.169 HD
HETATM   19  O   UNL     1       9.663  29.865  56.819  1.00  0.00    -0.273 OA
BRANCH  17  20
HETATM   20  C   UNL     1       8.906  31.283  60.028  1.00  0.00     0.034 A 
HETATM   21  C   UNL     1       8.087  32.393  60.230  1.00  0.00     0.032 A 
HETATM   22  C   UNL     1       7.666  32.738  61.520  1.00  0.00     0.044 A 
HETATM   23  C   UNL     1       8.052  31.967  62.607  1.00  0.00     0.116 A 
HETATM   24  C   UNL     1       8.841  30.842  62.428  1.00  0.00     0.044 A 
HETATM   25  F   UNL     1       7.651  32.306  63.838  1.00  0.00    -0.206 F 
HETATM   26  C   UNL     1       9.255  30.495  61.140  1.00  0.00     0.032 A 
ENDBRANCH  17  20
ENDBRANCH  15  16
ENDBRANCH   1  15
TORSDOF 3
ENDMDL
MODEL 7
REMARK VINA RESULT:      -8.0      1.851      2.626
REMARK  3 active torsions:
REMARK  status: ('A' for Active; 'I' for Inactive)
REMARK    1  A    between atoms: C_2  and  N_3 
REMARK       I    between atoms: N_3  and  C_4 
REMARK    2  A    between atoms: C_4  and  C_5 
REMARK    3  A    between atoms: C_5  and  C_6 
ROOT
HETATM    1  C   UNL     1       8.016  25.082  54.557  1.00  0.00     0.286 C 
HETATM    2  N   UNL     1       7.614  23.980  55.548  1.00  0.00    -0.056 N 
HETATM    3  H   UNL     1       7.724  24.328  56.516  1.00  0.00     0.278 HD
HETATM    4  H   UNL     1       6.605  23.792  55.454  1.00  0.00     0.278 HD
HETATM    5  C   UNL     1       8.411  22.734  55.306  1.00  0.00     0.209 C 
HETATM    6  C   UNL     1       8.062  22.227  53.889  1.00  0.00     0.115 C 
HETATM    7  N   UNL     1       8.285  23.259  52.878  1.00  0.00    -0.353 N 
HETATM    8  C   UNL     1       7.992  24.590  53.092  1.00  0.00     0.249 C 
HETATM    9  O   UNL     1       7.817  25.345  52.142  1.00  0.00    -0.271 OA
HETATM   10  C   UNL     1       8.108  21.692  56.371  1.00  0.00     0.035 C 
HETATM   11  C   UNL     1       8.885  20.410  56.072  1.00  0.00     0.002 C 
HETATM   12  C   UNL     1       8.597  19.884  54.665  1.00  0.00     0.002 C 
HETATM   13  C   UNL     1       8.830  20.941  53.582  1.00  0.00     0.027 C 
HETATM   14  H   UNL     1       8.216  22.994  51.896  1.00  0.00     0.163 HD
ENDROOT
BRANCH   1  15
HETATM   15  C   UNL     1       7.124  26.299  54.756  1.00  0.00     0.146 C 
BRANCH  15  16
HETATM   16  C   UNL     1       5.701  25.827  54.707  1.00  0.00     0.224 C 
HETATM   17  N   UNL     1       4.839  26.074  53.692  1.00  0.00    -0.327 N 
HETATM   18  H   UNL     1       3.894  25.797  53.950  1.00  0.00     0.169 HD
HETATM   19  O   UNL     1       5.227  25.382  55.763  1.00  0.00    -0.273 OA
BRANCH  17  20
HETATM   20  C   UNL     1       4.943  26.689  52.432  1.00  0.00     0.034 A 
HETATM   21  C   UNL     1       5.178  28.044  52.200  1.00  0.00     0.032 A 
HETATM   22  C   UNL     1       5.237  28.540  50.892  1.00  0.00     0.044 A 
HETATM   23  C   UNL     1       5.073  27.680  49.815  1.00  0.00     0.116 A 
HETATM   24  C   UNL     1       4.868  26.325  50.020  1.00  0.00     0.044 A 
HETATM   25  F   UNL     1       5.124  28.161  48.567  1.00  0.00    -0.206 F 
HETATM   26  C   UNL     1       4.817  25.831  51.325  1.00  0.00     0.032 A 
ENDBRANCH  17  20
ENDBRANCH  15  16
ENDBRANCH   1  15
TORSDOF 3
ENDMDL
MODEL 8
REMARK VINA RESULT:      -8.0      2.996      4.066
REMARK  3 active torsions:
REMARK  status: ('A' for Active; 'I' for Inactive)
REMARK    1  A    between atoms: C_2  and  N_3 
REMARK       I    between atoms: N_3  and  C_4 
REMARK    2  A    between atoms: C_4  and  C_5 
REMARK    3  A    between atoms: C_5  and  C_6 
ROOT
HETATM    1  C   UNL     1       7.590  25.400  56.055  1.00  0.00     0.286 C 
HETATM    2  N   UNL     1       7.302  23.931  56.398  1.00  0.00    -0.056 N 
HETATM    3  H   UNL     1       7.628  23.729  57.359  1.00  0.00     0.278 HD
HETATM    4  H   UNL     1       6.282  23.786  56.435  1.00  0.00     0.278 HD
HETATM    5  C   UNL     1       7.932  23.019  55.389  1.00  0.00     0.209 C 
HETATM    6  C   UNL     1       7.271  23.309  54.023  1.00  0.00     0.115 C 
HETATM    7  N   UNL     1       7.374  24.723  53.666  1.00  0.00    -0.353 N 
HETATM    8  C   UNL     1       7.238  25.739  54.589  1.00  0.00     0.249 C 
HETATM    9  O   UNL     1       6.942  26.871  54.223  1.00  0.00    -0.271 OA
HETATM   10  C   UNL     1       7.760  21.566  55.803  1.00  0.00     0.035 C 
HETATM   11  C   UNL     1       8.356  20.652  54.733  1.00  0.00     0.002 C 
HETATM   12  C   UNL     1       7.755  20.923  53.353  1.00  0.00     0.002 C 
HETATM   13  C   UNL     1       7.856  22.396  52.946  1.00  0.00     0.027 C 
HETATM   14  H   UNL     1       7.092  25.004  52.726  1.00  0.00     0.163 HD
ENDROOT
BRANCH   1  15
HETATM   15  C   UNL     1       6.856  26.307  57.034  1.00  0.00     0.146 C 
BRANCH  15  16
HETATM   16  C   UNL     1       5.386  26.106  56.817  1.00  0.00     0.224 C 
HETATM   17  N   UNL     1       4.508  27.090  56.509  1.00  0.00    -0.327 N 
HETATM   18  H   UNL     1       3.550  26.746  56.571  1.00  0.00     0.169 HD
HETATM   19  O   UNL     1       4.918  25.012  57.169  1.00  0.00    -0.273 OA
BRANCH  17  20
HETATM   20  C   UNL     1       4.619  28.460  56.216  1.00  0.00     0.034 A 
HETATM   21  C   UNL     1       4.440  29.045  54.963  1.00  0.00     0.032 A 
HETATM   22  C   UNL     1       4.602  30.426  54.797  1.00  0.00     0.044 A 
HETATM   23  C   UNL     1       4.931  31.223  55.883  1.00  0.00     0.116 A 
HETATM   24  C   UNL     1       5.085  30.668  57.143  1.00  0.00     0.044 A 
HETATM   25  F   UNL     1       5.091  32.542  55.715  1.00  0.00    -0.206 F 
HETATM   26  C   UNL     1       4.915  29.293  57.310  1.00  0.00     0.032 A 
ENDBRANCH  17  20
ENDBRANCH  15  16
ENDBRANCH   1  15
TORSDOF 3
ENDMDL
MODEL 9
REMARK VINA RESULT:      -7.9      2.812      3.500
REMARK  3 active torsions:
REMARK  status: ('A' for Active; 'I' for Inactive)
REMARK    1  A    between atoms: C_2  and  N_3 
REMARK       I    between atoms: N_3  and  C_4 
REMARK    2  A    between atoms: C_4  and  C_5 
REMARK    3  A    between atoms: C_5  and  C_6 
ROOT
HETATM    1  C   UNL     1       6.463  24.781  55.024  1.00  0.00     0.286 C 
HETATM    2  N   UNL     1       7.318  23.837  54.166  1.00  0.00    -0.056 N 
HETATM    3  H   UNL     1       6.895  23.745  53.226  1.00  0.00     0.278 HD
HETATM    4  H   UNL     1       8.236  24.274  53.994  1.00  0.00     0.278 HD
HETATM    5  C   UNL     1       7.480  22.508  54.841  1.00  0.00     0.209 C 
HETATM    6  C   UNL     1       8.245  22.748  56.160  1.00  0.00     0.115 C 
HETATM    7  N   UNL     1       7.576  23.742  56.998  1.00  0.00    -0.353 N 
HETATM    8  C   UNL     1       6.971  24.869  56.481  1.00  0.00     0.249 C 
HETATM    9  O   UNL     1       6.774  25.847  57.194  1.00  0.00    -0.271 OA
HETATM   10  C   UNL     1       8.211  21.534  53.931  1.00  0.00     0.035 C 
HETATM   11  C   UNL     1       8.418  20.206  54.659  1.00  0.00     0.002 C 
HETATM   12  C   UNL     1       9.146  20.394  55.991  1.00  0.00     0.002 C 
HETATM   13  C   UNL     1       8.463  21.425  56.895  1.00  0.00     0.027 C 
HETATM   14  H   UNL     1       7.919  23.880  57.949  1.00  0.00     0.163 HD
ENDROOT
BRANCH   1  15
HETATM   15  C   UNL     1       6.399  26.152  54.367  1.00  0.00     0.146 C 
BRANCH  15  16
HETATM   16  C   UNL     1       5.113  26.223  53.598  1.00  0.00     0.224 C 
HETATM   17  N   UNL     1       4.174  27.187  53.750  1.00  0.00    -0.327 N 
HETATM   18  H   UNL     1       3.324  26.940  53.245  1.00  0.00     0.169 HD
HETATM   19  O   UNL     1       4.795  25.212  52.955  1.00  0.00    -0.273 OA
BRANCH  17  20
HETATM   20  C   UNL     1       4.085  28.374  54.497  1.00  0.00     0.034 A 
HETATM   21  C   UNL     1       4.185  28.477  55.884  1.00  0.00     0.032 A 
HETATM   22  C   UNL     1       4.055  29.721  56.514  1.00  0.00     0.044 A 
HETATM   23  C   UNL     1       3.837  30.864  55.757  1.00  0.00     0.116 A 
HETATM   24  C   UNL     1       3.764  30.790  54.376  1.00  0.00     0.044 A 
HETATM   25  F   UNL     1       3.708  32.048  56.366  1.00  0.00    -0.206 F 
HETATM   26  C   UNL     1       3.901  29.550  53.748  1.00  0.00     0.032 A 
ENDBRANCH  17  20
ENDBRANCH  15  16
ENDBRANCH   1  15
TORSDOF 3
ENDMDL
MODEL 10
REMARK VINA RESULT:      -7.8      3.671      5.334
REMARK  3 active torsions:
REMARK  status: ('A' for Active; 'I' for Inactive)
REMARK    1  A    between atoms: C_2  and  N_3 
REMARK       I    between atoms: N_3  and  C_4 
REMARK    2  A    between atoms: C_4  and  C_5 
REMARK    3  A    between atoms: C_5  and  C_6 
ROOT
HETATM    1  C   UNL     1       6.334  26.264  54.303  1.00  0.00     0.286 C 
HETATM    2  N   UNL     1       6.990  25.337  55.336  1.00  0.00    -0.056 N 
HETATM    3  H   UNL     1       7.510  25.903  56.029  1.00  0.00     0.278 HD
HETATM    4  H   UNL     1       6.255  24.868  55.886  1.00  0.00     0.278 HD
HETATM    5  C   UNL     1       7.872  24.330  54.660  1.00  0.00     0.209 C 
HETATM    6  C   UNL     1       6.971  23.453  53.763  1.00  0.00     0.115 C 
HETATM    7  N   UNL     1       6.195  24.261  52.825  1.00  0.00    -0.353 N 
HETATM    8  C   UNL     1       5.640  25.478  53.168  1.00  0.00     0.249 C 
HETATM    9  O   UNL     1       4.701  25.932  52.524  1.00  0.00    -0.271 OA
HETATM   10  C   UNL     1       8.623  23.503  55.690  1.00  0.00     0.035 C 
HETATM   11  C   UNL     1       9.469  22.445  54.982  1.00  0.00     0.002 C 
HETATM   12  C   UNL     1       8.626  21.567  54.055  1.00  0.00     0.002 C 
HETATM   13  C   UNL     1       7.807  22.387  53.054  1.00  0.00     0.027 C 
HETATM   14  H   UNL     1       5.668  23.780  52.096  1.00  0.00     0.163 HD
ENDROOT
BRANCH   1  15
HETATM   15  C   UNL     1       5.368  27.208  55.005  1.00  0.00     0.146 C 
BRANCH  15  16
HETATM   16  C   UNL     1       5.591  28.580  54.441  1.00  0.00     0.224 C 
HETATM   17  N   UNL     1       6.292  29.563  55.054  1.00  0.00    -0.327 N 
HETATM   18  H   UNL     1       6.172  30.448  54.563  1.00  0.00     0.169 HD
HETATM   19  O   UNL     1       4.896  28.898  53.464  1.00  0.00    -0.273 OA
BRANCH  17  20
HETATM   20  C   UNL     1       7.055  29.649  56.231  1.00  0.00     0.034 A 
HETATM   21  C   UNL     1       8.322  29.097  56.426  1.00  0.00     0.032 A 
HETATM   22  C   UNL     1       8.971  29.233  57.659  1.00  0.00     0.044 A 
HETATM   23  C   UNL     1       8.362  29.929  58.693  1.00  0.00     0.116 A 
HETATM   24  C   UNL     1       7.118  30.512  58.513  1.00  0.00     0.044 A 
HETATM   25  F   UNL     1       8.986  30.050  59.871  1.00  0.00    -0.206 F 
HETATM   26  C   UNL     1       6.474  30.382  57.281  1.00  0.00     0.032 A 
ENDBRANCH  17  20
ENDBRANCH  15  16
ENDBRANCH   1  15
TORSDOF 3
ENDMDL
