MODEL 1
REMARK VINA RESULT:     -10.8      0.000      0.000
REMARK  7 active torsions:
REMARK  status: ('A' for Active; 'I' for Inactive)
REMARK    1  A    between atoms: C_2  and  C_3 
REMARK    2  A    between atoms: C_3  and  N_4 
REMARK       I    between atoms: N_4  and  C_5 
REMARK    3  A    between atoms: C_5  and  C_6 
REMARK    4  A    between atoms: C_6  and  C_7 
REMARK    5  A    between atoms: C_7  and  C_8 
REMARK       I    between atoms: C_8  and  N_9 
REMARK    6  A    between atoms: N_9  and  N_10 
REMARK       I    between atoms: N_10  and  C_11 
REMARK    7  A    between atoms: C_11  and  C_12 
ROOT
HETATM    1  C   UNL     1       9.441  29.780  57.502  1.00  0.00     0.236 C 
HETATM    2  N   UNL     1       8.503  28.807  57.752  1.00  0.00    -0.267 N 
HETATM    3  O   UNL     1      10.192  29.755  56.527  1.00  0.00    -0.272 OA
HETATM    4  H   UNL     1       8.003  28.713  58.636  1.00  0.00     0.190 HD
ENDROOT
BRANCH   1   5
HETATM    5  C   UNL     1       9.557  30.849  58.561  1.00  0.00     0.114 C 
BRANCH   5   6
HETATM    6  C   UNL     1       8.707  30.468  59.763  1.00  0.00     0.112 C 
BRANCH   6   7
HETATM    7  C   UNL     1       7.633  31.486  60.103  1.00  0.00     0.218 C 
HETATM    8  N   UNL     1       6.976  31.283  61.290  1.00  0.00    -0.357 N 
HETATM    9  H   UNL     1       7.410  30.717  62.018  1.00  0.00     0.162 HD
HETATM   10  O   UNL     1       7.328  32.378  59.315  1.00  0.00    -0.274 OA
BRANCH   8  11
HETATM   11  C   UNL     1       5.901  32.159  61.700  1.00  0.00     0.161 C 
BRANCH  11  12
HETATM   12  C   UNL     1       6.114  32.762  63.069  1.00  0.00    -0.038 A 
HETATM   13  C   UNL     1       7.409  33.003  63.588  1.00  0.00     0.012 A 
HETATM   14  C   UNL     1       7.593  33.530  64.871  1.00  0.00     0.040 A 
HETATM   15  C   UNL     1       6.470  33.785  65.624  1.00  0.00     0.105 A 
HETATM   16  C   UNL     1       5.207  33.535  65.145  1.00  0.00     0.105 A 
HETATM   17  O   UNL     1       6.457  34.282  66.890  1.00  0.00    -0.323 OA
HETATM   18  C   UNL     1       4.996  33.024  63.880  1.00  0.00     0.048 A 
HETATM   19  O   UNL     1       4.239  33.837  66.051  1.00  0.00    -0.323 OA
HETATM   20  C   UNL     1       5.040  34.298  67.159  1.00  0.00     0.352 A 
ENDBRANCH  11  12
ENDBRANCH   8  11
ENDBRANCH   6   7
ENDBRANCH   5   6
ENDBRANCH   1   5
BRANCH   2  21
HETATM   21  N   UNL     1       8.471  27.700  56.897  1.00  0.00    -0.262 N 
HETATM   22  C   UNL     1       8.050  26.483  57.387  1.00  0.00     0.286 C 
HETATM   23  O   UNL     1       7.686  26.346  58.554  1.00  0.00    -0.264 OA
HETATM   24  H   UNL     1       8.813  27.839  55.950  1.00  0.00     0.190 HD
BRANCH  22  25
HETATM   25  C   UNL     1       8.058  25.392  56.438  1.00  0.00     0.103 A 
HETATM   26  N   UNL     1       7.652  25.572  55.133  1.00  0.00    -0.351 N 
HETATM   27  H   UNL     1       7.324  26.456  54.765  1.00  0.00     0.166 HD
HETATM   28  C   UNL     1       7.774  24.409  54.411  1.00  0.00     0.043 A 
HETATM   29  C   UNL     1       8.256  23.437  55.285  1.00  0.00    -0.005 A 
HETATM   30  C   UNL     1       7.498  24.148  53.065  1.00  0.00     0.032 A 
HETATM   31  C   UNL     1       8.425  24.061  56.553  1.00  0.00     0.049 A 
HETATM   32  C   UNL     1       8.475  22.133  54.801  1.00  0.00     0.037 A 
HETATM   33  C   UNL     1       8.205  21.859  53.457  1.00  0.00     0.035 A 
HETATM   34  C   UNL     1       7.725  22.848  52.600  1.00  0.00     0.026 A 
HETATM   35 CL   UNL     1       8.475  20.269  52.849  1.00  0.00    -0.084 Cl
ENDBRANCH  22  25
ENDBRANCH   2  21
TORSDOF 7
ENDMDL
MODEL 2
REMARK VINA RESULT:     -10.8      4.392     12.310
REMARK  7 active torsions:
REMARK  status: ('A' for Active; 'I' for Inactive)
REMARK    1  A    between atoms: C_2  and  C_3 
REMARK    2  A    between atoms: C_3  and  N_4 
REMARK       I    between atoms: N_4  and  C_5 
REMARK    3  A    between atoms: C_5  and  C_6 
REMARK    4  A    between atoms: C_6  and  C_7 
REMARK    5  A    between atoms: C_7  and  C_8 
REMARK       I    between atoms: C_8  and  N_9 
REMARK    6  A    between atoms: N_9  and  N_10 
REMARK       I    between atoms: N_10  and  C_11 
REMARK    7  A    between atoms: C_11  and  C_12 
ROOT
HETATM    1  C   UNL     1       7.551  30.012  57.822  1.00  0.00     0.236 C 
HETATM    2  N   UNL     1       8.375  29.972  58.921  1.00  0.00    -0.267 N 
HETATM    3  O   UNL     1       6.460  30.583  57.820  1.00  0.00    -0.272 OA
HETATM    4  H   UNL     1       9.187  29.360  59.001  1.00  0.00     0.190 HD
ENDROOT
BRANCH   1   5
HETATM    5  C   UNL     1       8.034  29.226  56.628  1.00  0.00     0.114 C 
BRANCH   5   6
HETATM    6  C   UNL     1       8.795  27.998  57.101  1.00  0.00     0.112 C 
BRANCH   6   7
HETATM    7  C   UNL     1       7.989  26.713  57.034  1.00  0.00     0.218 C 
HETATM    8  N   UNL     1       7.196  26.566  55.924  1.00  0.00    -0.357 N 
HETATM    9  H   UNL     1       7.402  27.100  55.081  1.00  0.00     0.162 HD
HETATM   10  O   UNL     1       7.997  25.907  57.962  1.00  0.00    -0.274 OA
BRANCH   8  11
HETATM   11  C   UNL     1       6.347  25.405  55.771  1.00  0.00     0.161 C 
BRANCH  11  12
HETATM   12  C   UNL     1       7.007  24.283  55.004  1.00  0.00    -0.038 A 
HETATM   13  C   UNL     1       7.290  24.387  53.620  1.00  0.00     0.012 A 
HETATM   14  C   UNL     1       7.870  23.328  52.914  1.00  0.00     0.040 A 
HETATM   15  C   UNL     1       8.134  22.167  53.605  1.00  0.00     0.105 A 
HETATM   16  C   UNL     1       7.843  22.041  54.942  1.00  0.00     0.105 A 
HETATM   17  O   UNL     1       8.680  21.036  53.083  1.00  0.00    -0.323 OA
HETATM   18  C   UNL     1       7.280  23.073  55.665  1.00  0.00     0.048 A 
HETATM   19  O   UNL     1       8.163  20.812  55.429  1.00  0.00    -0.323 OA
HETATM   20  C   UNL     1       8.680  20.177  54.241  1.00  0.00     0.352 A 
ENDBRANCH  11  12
ENDBRANCH   8  11
ENDBRANCH   6   7
ENDBRANCH   5   6
ENDBRANCH   1   5
BRANCH   2  21
HETATM   21  N   UNL     1       7.900  30.534  60.111  1.00  0.00    -0.262 N 
HETATM   22  C   UNL     1       8.211  31.843  60.409  1.00  0.00     0.286 C 
HETATM   23  O   UNL     1       8.884  32.538  59.648  1.00  0.00    -0.264 OA
HETATM   24  H   UNL     1       7.380  29.922  60.734  1.00  0.00     0.190 HD
BRANCH  22  25
HETATM   25  C   UNL     1       7.689  32.339  61.663  1.00  0.00     0.103 A 
HETATM   26  N   UNL     1       6.345  32.598  61.828  1.00  0.00    -0.351 N 
HETATM   27  H   UNL     1       5.655  32.467  61.099  1.00  0.00     0.166 HD
HETATM   28  C   UNL     1       6.077  33.030  63.105  1.00  0.00     0.043 A 
HETATM   29  C   UNL     1       7.293  33.071  63.784  1.00  0.00    -0.005 A 
HETATM   30  C   UNL     1       4.862  33.382  63.704  1.00  0.00     0.032 A 
HETATM   31  C   UNL     1       8.297  32.642  62.870  1.00  0.00     0.049 A 
HETATM   32  C   UNL     1       7.309  33.486  65.129  1.00  0.00     0.037 A 
HETATM   33  C   UNL     1       6.102  33.838  65.740  1.00  0.00     0.035 A 
HETATM   34  C   UNL     1       4.898  33.787  65.043  1.00  0.00     0.026 A 
HETATM   35 CL   UNL     1       6.107  34.341  67.389  1.00  0.00    -0.084 Cl
ENDBRANCH  22  25
ENDBRANCH   2  21
TORSDOF 7
ENDMDL
MODEL 3
REMARK VINA RESULT:     -10.8      4.449     12.005
REMARK  7 active torsions:
REMARK  status: ('A' for Active; 'I' for Inactive)
REMARK    1  A    between atoms: C_2  and  C_3 
REMARK    2  A    between atoms: C_3  and  N_4 
REMARK       I    between atoms: N_4  and  C_5 
REMARK    3  A    between atoms: C_5  and  C_6 
REMARK    4  A    between atoms: C_6  and  C_7 
REMARK    5  A    between atoms: C_7  and  C_8 
REMARK       I    between atoms: C_8  and  N_9 
REMARK    6  A    between atoms: N_9  and  N_10 
REMARK       I    between atoms: N_10  and  C_11 
REMARK    7  A    between atoms: C_11  and  C_12 
ROOT
HETATM    1  C   UNL     1       7.594  29.278  56.622  1.00  0.00     0.236 C 
HETATM    2  N   UNL     1       8.267  28.993  57.785  1.00  0.00    -0.267 N 
HETATM    3  O   UNL     1       6.718  30.140  56.547  1.00  0.00    -0.272 OA
HETATM    4  H   UNL     1       8.859  28.171  57.913  1.00  0.00     0.190 HD
ENDROOT
BRANCH   1   5
HETATM    5  C   UNL     1       7.936  28.396  55.448  1.00  0.00     0.114 C 
BRANCH   5   6
HETATM    6  C   UNL     1       6.729  27.548  55.079  1.00  0.00     0.112 C 
BRANCH   6   7
HETATM    7  C   UNL     1       6.510  26.358  55.996  1.00  0.00     0.218 C 
HETATM    8  N   UNL     1       7.609  25.565  56.211  1.00  0.00    -0.357 N 
HETATM    9  H   UNL     1       8.543  25.940  56.053  1.00  0.00     0.162 HD
HETATM   10  O   UNL     1       5.396  26.092  56.440  1.00  0.00    -0.274 OA
BRANCH   8  11
HETATM   11  C   UNL     1       7.514  24.376  57.029  1.00  0.00     0.161 C 
BRANCH  11  12
HETATM   12  C   UNL     1       7.822  23.106  56.272  1.00  0.00    -0.038 A 
HETATM   13  C   UNL     1       8.333  21.954  56.918  1.00  0.00     0.012 A 
HETATM   14  C   UNL     1       8.647  20.795  56.200  1.00  0.00     0.040 A 
HETATM   15  C   UNL     1       8.465  20.819  54.836  1.00  0.00     0.105 A 
HETATM   16  C   UNL     1       7.993  21.936  54.190  1.00  0.00     0.105 A 
HETATM   17  O   UNL     1       8.728  19.796  53.979  1.00  0.00    -0.323 OA
HETATM   18  C   UNL     1       7.666  23.089  54.875  1.00  0.00     0.048 A 
HETATM   19  O   UNL     1       7.905  21.760  52.845  1.00  0.00    -0.323 OA
HETATM   20  C   UNL     1       8.385  20.405  52.718  1.00  0.00     0.352 A 
ENDBRANCH  11  12
ENDBRANCH   8  11
ENDBRANCH   6   7
ENDBRANCH   5   6
ENDBRANCH   1   5
BRANCH   2  21
HETATM   21  N   UNL     1       7.868  29.660  58.949  1.00  0.00    -0.262 N 
HETATM   22  C   UNL     1       8.679  30.641  59.476  1.00  0.00     0.286 C 
HETATM   23  O   UNL     1       9.741  30.959  58.940  1.00  0.00    -0.264 OA
HETATM   24  H   UNL     1       7.005  29.347  59.386  1.00  0.00     0.190 HD
BRANCH  22  25
HETATM   25  C   UNL     1       8.195  31.269  60.684  1.00  0.00     0.103 A 
HETATM   26  N   UNL     1       6.846  31.409  60.930  1.00  0.00    -0.351 N 
HETATM   27  H   UNL     1       6.125  31.093  60.293  1.00  0.00     0.166 HD
HETATM   28  C   UNL     1       6.622  32.005  62.148  1.00  0.00     0.043 A 
HETATM   29  C   UNL     1       7.872  32.279  62.701  1.00  0.00    -0.005 A 
HETATM   30  C   UNL     1       5.422  32.316  62.796  1.00  0.00     0.032 A 
HETATM   31  C   UNL     1       8.850  31.820  61.773  1.00  0.00     0.049 A 
HETATM   32  C   UNL     1       7.937  32.899  63.962  1.00  0.00     0.037 A 
HETATM   33  C   UNL     1       6.745  33.214  64.622  1.00  0.00     0.035 A 
HETATM   34  C   UNL     1       5.507  32.928  64.051  1.00  0.00     0.026 A 
HETATM   35 CL   UNL     1       6.811  33.967  66.171  1.00  0.00    -0.084 Cl
ENDBRANCH  22  25
ENDBRANCH   2  21
TORSDOF 7
ENDMDL
MODEL 4
REMARK VINA RESULT:     -10.8      4.493     11.864
REMARK  7 active torsions:
REMARK  status: ('A' for Active; 'I' for Inactive)
REMARK    1  A    between atoms: C_2  and  C_3 
REMARK    2  A    between atoms: C_3  and  N_4 
REMARK       I    between atoms: N_4  and  C_5 
REMARK    3  A    between atoms: C_5  and  C_6 
REMARK    4  A    between atoms: C_6  and  C_7 
REMARK    5  A    between atoms: C_7  and  C_8 
REMARK       I    between atoms: C_8  and  N_9 
REMARK    6  A    between atoms: N_9  and  N_10 
REMARK       I    between atoms: N_10  and  C_11 
REMARK    7  A    between atoms: C_11  and  C_12 
ROOT
HETATM    1  C   UNL     1       7.385  29.148  56.554  1.00  0.00     0.236 C 
HETATM    2  N   UNL     1       8.014  28.794  57.723  1.00  0.00    -0.267 N 
HETATM    3  O   UNL     1       6.602  30.094  56.472  1.00  0.00    -0.272 OA
HETATM    4  H   UNL     1       8.518  27.916  57.854  1.00  0.00     0.190 HD
ENDROOT
BRANCH   1   5
HETATM    5  C   UNL     1       7.648  28.237  55.380  1.00  0.00     0.114 C 
BRANCH   5   6
HETATM    6  C   UNL     1       6.341  27.937  54.665  1.00  0.00     0.112 C 
BRANCH   6   7
HETATM    7  C   UNL     1       6.400  26.716  53.764  1.00  0.00     0.218 C 
HETATM    8  N   UNL     1       7.652  26.200  53.544  1.00  0.00    -0.357 N 
HETATM    9  H   UNL     1       8.406  26.406  54.197  1.00  0.00     0.162 HD
HETATM   10  O   UNL     1       5.392  26.282  53.211  1.00  0.00    -0.274 OA
BRANCH   8  11
HETATM   11  C   UNL     1       7.841  25.067  52.666  1.00  0.00     0.161 C 
BRANCH  11  12
HETATM   12  C   UNL     1       7.966  23.755  53.407  1.00  0.00    -0.038 A 
HETATM   13  C   UNL     1       7.851  22.508  52.746  1.00  0.00     0.012 A 
HETATM   14  C   UNL     1       7.934  21.302  53.449  1.00  0.00     0.040 A 
HETATM   15  C   UNL     1       8.106  21.367  54.813  1.00  0.00     0.105 A 
HETATM   16  C   UNL     1       8.195  22.568  55.473  1.00  0.00     0.105 A 
HETATM   17  O   UNL     1       8.194  20.303  55.656  1.00  0.00    -0.323 OA
HETATM   18  C   UNL     1       8.127  23.773  54.804  1.00  0.00     0.048 A 
HETATM   19  O   UNL     1       8.344  22.413  56.816  1.00  0.00    -0.323 OA
HETATM   20  C   UNL     1       8.329  20.975  56.925  1.00  0.00     0.352 A 
ENDBRANCH  11  12
ENDBRANCH   8  11
ENDBRANCH   6   7
ENDBRANCH   5   6
ENDBRANCH   1   5
BRANCH   2  21
HETATM   21  N   UNL     1       7.673  29.495  58.884  1.00  0.00    -0.262 N 
HETATM   22  C   UNL     1       8.533  30.456  59.368  1.00  0.00     0.286 C 
HETATM   23  O   UNL     1       9.589  30.726  58.797  1.00  0.00    -0.264 OA
HETATM   24  H   UNL     1       6.812  29.221  59.351  1.00  0.00     0.190 HD
BRANCH  22  25
HETATM   25  C   UNL     1       8.106  31.123  60.578  1.00  0.00     0.103 A 
HETATM   26  N   UNL     1       6.771  31.343  60.844  1.00  0.00    -0.351 N 
HETATM   27  H   UNL     1       6.023  31.064  60.222  1.00  0.00     0.166 HD
HETATM   28  C   UNL     1       6.603  31.964  62.059  1.00  0.00     0.043 A 
HETATM   29  C   UNL     1       7.875  32.170  62.589  1.00  0.00    -0.005 A 
HETATM   30  C   UNL     1       5.434  32.350  62.722  1.00  0.00     0.032 A 
HETATM   31  C   UNL     1       8.810  31.646  61.651  1.00  0.00     0.049 A 
HETATM   32  C   UNL     1       7.998  32.797  63.842  1.00  0.00     0.037 A 
HETATM   33  C   UNL     1       6.837  33.187  64.517  1.00  0.00     0.035 A 
HETATM   34  C   UNL     1       5.575  32.969  63.969  1.00  0.00     0.026 A 
HETATM   35 CL   UNL     1       6.973  33.951  66.057  1.00  0.00    -0.084 Cl
ENDBRANCH  22  25
ENDBRANCH   2  21
TORSDOF 7
ENDMDL
MODEL 5
REMARK VINA RESULT:     -10.6      1.332      1.959
REMARK  7 active torsions:
REMARK  status: ('A' for Active; 'I' for Inactive)
REMARK    1  A    between atoms: C_2  and  C_3 
REMARK    2  A    between atoms: C_3  and  N_4 
REMARK       I    between atoms: N_4  and  C_5 
REMARK    3  A    between atoms: C_5  and  C_6 
REMARK    4  A    between atoms: C_6  and  C_7 
REMARK    5  A    between atoms: C_7  and  C_8 
REMARK       I    between atoms: C_8  and  N_9 
REMARK    6  A    between atoms: N_9  and  N_10 
REMARK       I    between atoms: N_10  and  C_11 
REMARK    7  A    between atoms: C_11  and  C_12 
ROOT
HETATM    1  C   UNL     1       9.268  29.427  57.227  1.00  0.00     0.236 C 
HETATM    2  N   UNL     1       8.212  28.564  57.397  1.00  0.00    -0.267 N 
HETATM    3  O   UNL     1      10.194  29.211  56.446  1.00  0.00    -0.272 OA
HETATM    4  H   UNL     1       7.538  28.634  58.160  1.00  0.00     0.190 HD
ENDROOT
BRANCH   1   5
HETATM    5  C   UNL     1       9.266  30.632  58.135  1.00  0.00     0.114 C 
BRANCH   5   6
HETATM    6  C   UNL     1       8.275  30.415  59.268  1.00  0.00     0.112 C 
BRANCH   6   7
HETATM    7  C   UNL     1       8.713  31.018  60.591  1.00  0.00     0.218 C 
HETATM    8  N   UNL     1       7.933  30.701  61.675  1.00  0.00    -0.357 N 
HETATM    9  H   UNL     1       7.341  29.872  61.647  1.00  0.00     0.162 HD
HETATM   10  O   UNL     1       9.656  31.802  60.653  1.00  0.00    -0.274 OA
BRANCH   8  11
HETATM   11  C   UNL     1       8.223  31.252  62.980  1.00  0.00     0.161 C 
BRANCH  11  12
HETATM   12  C   UNL     1       7.208  32.275  63.433  1.00  0.00    -0.038 A 
HETATM   13  C   UNL     1       7.531  33.286  64.370  1.00  0.00     0.012 A 
HETATM   14  C   UNL     1       6.572  34.206  64.807  1.00  0.00     0.040 A 
HETATM   15  C   UNL     1       5.292  34.080  64.315  1.00  0.00     0.105 A 
HETATM   16  C   UNL     1       4.957  33.089  63.424  1.00  0.00     0.105 A 
HETATM   17  O   UNL     1       4.234  34.871  64.636  1.00  0.00    -0.323 OA
HETATM   18  C   UNL     1       5.885  32.175  62.968  1.00  0.00     0.048 A 
HETATM   19  O   UNL     1       3.643  33.127  63.076  1.00  0.00    -0.323 OA
HETATM   20  C   UNL     1       3.189  34.251  63.859  1.00  0.00     0.352 A 
ENDBRANCH  11  12
ENDBRANCH   8  11
ENDBRANCH   6   7
ENDBRANCH   5   6
ENDBRANCH   1   5
BRANCH   2  21
HETATM   21  N   UNL     1       8.250  27.346  56.710  1.00  0.00    -0.262 N 
HETATM   22  C   UNL     1       7.972  26.180  57.388  1.00  0.00     0.286 C 
HETATM   23  O   UNL     1       7.675  26.181  58.582  1.00  0.00    -0.264 OA
HETATM   24  H   UNL     1       8.534  27.377  55.734  1.00  0.00     0.190 HD
BRANCH  22  25
HETATM   25  C   UNL     1       8.044  24.969  56.602  1.00  0.00     0.103 A 
HETATM   26  N   UNL     1       8.180  23.733  57.199  1.00  0.00    -0.351 N 
HETATM   27  H   UNL     1       8.244  23.598  58.200  1.00  0.00     0.166 HD
HETATM   28  C   UNL     1       8.196  22.729  56.261  1.00  0.00     0.043 A 
HETATM   29  C   UNL     1       8.086  23.337  55.012  1.00  0.00    -0.005 A 
HETATM   30  C   UNL     1       8.296  21.343  56.422  1.00  0.00     0.032 A 
HETATM   31  C   UNL     1       7.997  24.741  55.237  1.00  0.00     0.049 A 
HETATM   32  C   UNL     1       8.077  22.530  53.859  1.00  0.00     0.037 A 
HETATM   33  C   UNL     1       8.174  21.143  54.006  1.00  0.00     0.035 A 
HETATM   34  C   UNL     1       8.281  20.556  55.265  1.00  0.00     0.026 A 
HETATM   35 CL   UNL     1       8.159  20.143  52.602  1.00  0.00    -0.084 Cl
ENDBRANCH  22  25
ENDBRANCH   2  21
TORSDOF 7
ENDMDL
MODEL 6
REMARK VINA RESULT:     -10.5      1.968      2.527
REMARK  7 active torsions:
REMARK  status: ('A' for Active; 'I' for Inactive)
REMARK    1  A    between atoms: C_2  and  C_3 
REMARK    2  A    between atoms: C_3  and  N_4 
REMARK       I    between atoms: N_4  and  C_5 
REMARK    3  A    between atoms: C_5  and  C_6 
REMARK    4  A    between atoms: C_6  and  C_7 
REMARK    5  A    between atoms: C_7  and  C_8 
REMARK       I    between atoms: C_8  and  N_9 
REMARK    6  A    between atoms: N_9  and  N_10 
REMARK       I    between atoms: N_10  and  C_11 
REMARK    7  A    between atoms: C_11  and  C_12 
ROOT
HETATM    1  C   UNL     1       5.740  29.939  56.746  1.00  0.00     0.236 C 
HETATM    2  N   UNL     1       6.637  29.589  55.766  1.00  0.00    -0.267 N 
HETATM    3  O   UNL     1       5.198  29.117  57.486  1.00  0.00    -0.272 OA
HETATM    4  H   UNL     1       6.955  30.224  55.033  1.00  0.00     0.190 HD
ENDROOT
BRANCH   1   5
HETATM    5  C   UNL     1       5.386  31.405  56.800  1.00  0.00     0.114 C 
BRANCH   5   6
HETATM    6  C   UNL     1       5.126  31.813  58.242  1.00  0.00     0.112 C 
BRANCH   6   7
HETATM    7  C   UNL     1       6.375  31.847  59.105  1.00  0.00     0.218 C 
HETATM    8  N   UNL     1       6.186  31.563  60.434  1.00  0.00    -0.357 N 
HETATM    9  H   UNL     1       5.360  31.045  60.728  1.00  0.00     0.162 HD
HETATM   10  O   UNL     1       7.460  32.190  58.642  1.00  0.00    -0.274 OA
BRANCH   8  11
HETATM   11  C   UNL     1       7.292  31.610  61.364  1.00  0.00     0.161 C 
BRANCH  11  12
HETATM   12  C   UNL     1       6.959  32.329  62.650  1.00  0.00    -0.038 A 
HETATM   13  C   UNL     1       7.965  32.796  63.529  1.00  0.00     0.012 A 
HETATM   14  C   UNL     1       7.643  33.430  64.734  1.00  0.00     0.040 A 
HETATM   15  C   UNL     1       6.310  33.564  65.050  1.00  0.00     0.105 A 
HETATM   16  C   UNL     1       5.321  33.095  64.219  1.00  0.00     0.105 A 
HETATM   17  O   UNL     1       5.812  34.137  66.178  1.00  0.00    -0.323 OA
HETATM   18  C   UNL     1       5.610  32.474  63.021  1.00  0.00     0.048 A 
HETATM   19  O   UNL     1       4.076  33.308  64.722  1.00  0.00    -0.323 OA
HETATM   20  C   UNL     1       4.397  33.958  65.970  1.00  0.00     0.352 A 
ENDBRANCH  11  12
ENDBRANCH   8  11
ENDBRANCH   6   7
ENDBRANCH   5   6
ENDBRANCH   1   5
BRANCH   2  21
HETATM   21  N   UNL     1       6.871  28.226  55.553  1.00  0.00    -0.262 N 
HETATM   22  C   UNL     1       7.179  27.785  54.285  1.00  0.00     0.286 C 
HETATM   23  O   UNL     1       7.270  28.561  53.335  1.00  0.00    -0.264 OA
HETATM   24  H   UNL     1       6.751  27.609  56.352  1.00  0.00     0.190 HD
BRANCH  22  25
HETATM   25  C   UNL     1       7.394  26.361  54.155  1.00  0.00     0.103 A 
HETATM   26  N   UNL     1       7.513  25.549  55.262  1.00  0.00    -0.351 N 
HETATM   27  H   UNL     1       7.465  25.889  56.214  1.00  0.00     0.166 HD
HETATM   28  C   UNL     1       7.681  24.234  54.897  1.00  0.00     0.043 A 
HETATM   29  C   UNL     1       7.692  24.198  53.504  1.00  0.00    -0.005 A 
HETATM   30  C   UNL     1       7.821  23.088  55.686  1.00  0.00     0.032 A 
HETATM   31  C   UNL     1       7.517  25.536  53.049  1.00  0.00     0.049 A 
HETATM   32  C   UNL     1       7.853  22.959  52.856  1.00  0.00     0.037 A 
HETATM   33  C   UNL     1       7.992  21.805  53.632  1.00  0.00     0.035 A 
HETATM   34  C   UNL     1       7.976  21.865  55.024  1.00  0.00     0.026 A 
HETATM   35 CL   UNL     1       8.183  20.280  52.851  1.00  0.00    -0.084 Cl
ENDBRANCH  22  25
ENDBRANCH   2  21
TORSDOF 7
ENDMDL
MODEL 7
REMARK VINA RESULT:     -10.2      4.502     12.617
REMARK  7 active torsions:
REMARK  status: ('A' for Active; 'I' for Inactive)
REMARK    1  A    between atoms: C_2  and  C_3 
REMARK    2  A    between atoms: C_3  and  N_4 
REMARK       I    between atoms: N_4  and  C_5 
REMARK    3  A    between atoms: C_5  and  C_6 
REMARK    4  A    between atoms: C_6  and  C_7 
REMARK    5  A    between atoms: C_7  and  C_8 
REMARK       I    between atoms: C_8  and  N_9 
REMARK    6  A    between atoms: N_9  and  N_10 
REMARK       I    between atoms: N_10  and  C_11 
REMARK    7  A    between atoms: C_11  and  C_12 
ROOT
HETATM    1  C   UNL     1       7.469  30.448  58.473  1.00  0.00     0.236 C 
HETATM    2  N   UNL     1       8.084  30.176  59.671  1.00  0.00    -0.267 N 
HETATM    3  O   UNL     1       6.537  31.245  58.362  1.00  0.00    -0.272 OA
HETATM    4  H   UNL     1       8.726  29.396  59.817  1.00  0.00     0.190 HD
ENDROOT
BRANCH   1   5
HETATM    5  C   UNL     1       7.954  29.631  57.301  1.00  0.00     0.114 C 
BRANCH   5   6
HETATM    6  C   UNL     1       7.141  28.350  57.202  1.00  0.00     0.112 C 
BRANCH   6   7
HETATM    7  C   UNL     1       7.181  27.702  55.829  1.00  0.00     0.218 C 
HETATM    8  N   UNL     1       6.603  26.460  55.742  1.00  0.00    -0.357 N 
HETATM    9  H   UNL     1       5.918  26.171  56.438  1.00  0.00     0.162 HD
HETATM   10  O   UNL     1       7.769  28.233  54.891  1.00  0.00    -0.274 OA
BRANCH   8  11
HETATM   11  C   UNL     1       6.619  25.724  54.497  1.00  0.00     0.161 C 
BRANCH  11  12
HETATM   12  C   UNL     1       7.123  24.308  54.651  1.00  0.00    -0.038 A 
HETATM   13  C   UNL     1       7.500  23.779  55.909  1.00  0.00     0.012 A 
HETATM   14  C   UNL     1       7.998  22.478  56.032  1.00  0.00     0.040 A 
HETATM   15  C   UNL     1       8.133  21.733  54.882  1.00  0.00     0.105 A 
HETATM   16  C   UNL     1       7.796  22.239  53.651  1.00  0.00     0.105 A 
HETATM   17  O   UNL     1       8.610  20.461  54.809  1.00  0.00    -0.323 OA
HETATM   18  C   UNL     1       7.293  23.516  53.501  1.00  0.00     0.048 A 
HETATM   19  O   UNL     1       8.023  21.353  52.645  1.00  0.00    -0.323 OA
HETATM   20  C   UNL     1       8.551  20.233  53.386  1.00  0.00     0.352 A 
ENDBRANCH  11  12
ENDBRANCH   8  11
ENDBRANCH   6   7
ENDBRANCH   5   6
ENDBRANCH   1   5
BRANCH   2  21
HETATM   21  N   UNL     1       7.560  30.774  60.823  1.00  0.00    -0.262 N 
HETATM   22  C   UNL     1       8.133  31.931  61.302  1.00  0.00     0.286 C 
HETATM   23  O   UNL     1       9.087  32.464  60.735  1.00  0.00    -0.264 OA
HETATM   24  H   UNL     1       6.797  30.288  61.287  1.00  0.00     0.190 HD
BRANCH  22  25
HETATM   25  C   UNL     1       7.535  32.474  62.501  1.00  0.00     0.103 A 
HETATM   26  N   UNL     1       6.175  32.676  62.597  1.00  0.00    -0.351 N 
HETATM   27  H   UNL     1       5.524  32.469  61.850  1.00  0.00     0.166 HD
HETATM   28  C   UNL     1       5.832  33.169  63.833  1.00  0.00     0.043 A 
HETATM   29  C   UNL     1       7.015  33.310  64.556  1.00  0.00    -0.005 A 
HETATM   30  C   UNL     1       4.579  33.495  64.361  1.00  0.00     0.032 A 
HETATM   31  C   UNL     1       8.077  32.878  63.710  1.00  0.00     0.049 A 
HETATM   32  C   UNL     1       6.955  33.804  65.872  1.00  0.00     0.037 A 
HETATM   33  C   UNL     1       5.708  34.132  66.413  1.00  0.00     0.035 A 
HETATM   34  C   UNL     1       4.538  33.981  65.672  1.00  0.00     0.026 A 
HETATM   35 CL   UNL     1       5.619  34.732  68.026  1.00  0.00    -0.084 Cl
ENDBRANCH  22  25
ENDBRANCH   2  21
TORSDOF 7
ENDMDL
MODEL 8
REMARK VINA RESULT:      -9.5      4.648     12.120
REMARK  7 active torsions:
REMARK  status: ('A' for Active; 'I' for Inactive)
REMARK    1  A    between atoms: C_2  and  C_3 
REMARK    2  A    between atoms: C_3  and  N_4 
REMARK       I    between atoms: N_4  and  C_5 
REMARK    3  A    between atoms: C_5  and  C_6 
REMARK    4  A    between atoms: C_6  and  C_7 
REMARK    5  A    between atoms: C_7  and  C_8 
REMARK       I    between atoms: C_8  and  N_9 
REMARK    6  A    between atoms: N_9  and  N_10 
REMARK       I    between atoms: N_10  and  C_11 
REMARK    7  A    between atoms: C_11  and  C_12 
ROOT
HETATM    1  C   UNL     1       5.628  31.926  57.605  1.00  0.00     0.236 C 
HETATM    2  N   UNL     1       5.808  31.066  58.661  1.00  0.00    -0.267 N 
HETATM    3  O   UNL     1       5.499  33.143  57.743  1.00  0.00    -0.272 OA
HETATM    4  H   UNL     1       5.735  30.051  58.586  1.00  0.00     0.190 HD
ENDROOT
BRANCH   1   5
HETATM    5  C   UNL     1       5.504  31.268  56.253  1.00  0.00     0.114 C 
BRANCH   5   6
HETATM    6  C   UNL     1       6.233  29.933  56.268  1.00  0.00     0.112 C 
BRANCH   6   7
HETATM    7  C   UNL     1       5.886  29.032  55.096  1.00  0.00     0.218 C 
HETATM    8  N   UNL     1       6.955  28.497  54.422  1.00  0.00    -0.357 N 
HETATM    9  H   UNL     1       7.863  28.434  54.881  1.00  0.00     0.162 HD
HETATM   10  O   UNL     1       4.722  28.871  54.738  1.00  0.00    -0.274 OA
BRANCH   8  11
HETATM   11  C   UNL     1       6.753  27.660  53.260  1.00  0.00     0.161 C 
BRANCH  11  12
HETATM   12  C   UNL     1       7.262  26.250  53.446  1.00  0.00    -0.038 A 
HETATM   13  C   UNL     1       7.515  25.394  52.347  1.00  0.00     0.012 A 
HETATM   14  C   UNL     1       7.954  24.079  52.535  1.00  0.00     0.040 A 
HETATM   15  C   UNL     1       8.108  23.634  53.828  1.00  0.00     0.105 A 
HETATM   16  C   UNL     1       7.844  24.444  54.906  1.00  0.00     0.105 A 
HETATM   17  O   UNL     1       8.510  22.389  54.199  1.00  0.00    -0.323 OA
HETATM   18  C   UNL     1       7.420  25.748  54.750  1.00  0.00     0.048 A 
HETATM   19  O   UNL     1       8.041  23.809  56.093  1.00  0.00    -0.323 OA
HETATM   20  C   UNL     1       8.450  22.503  55.635  1.00  0.00     0.352 A 
ENDBRANCH  11  12
ENDBRANCH   8  11
ENDBRANCH   6   7
ENDBRANCH   5   6
ENDBRANCH   1   5
BRANCH   2  21
HETATM   21  N   UNL     1       5.755  31.601  59.953  1.00  0.00    -0.262 N 
HETATM   22  C   UNL     1       6.924  31.766  60.663  1.00  0.00     0.286 C 
HETATM   23  O   UNL     1       8.019  31.471  60.184  1.00  0.00    -0.264 OA
HETATM   24  H   UNL     1       4.832  31.799  60.331  1.00  0.00     0.190 HD
BRANCH  22  25
HETATM   25  C   UNL     1       6.775  32.315  61.992  1.00  0.00     0.103 A 
HETATM   26  N   UNL     1       5.533  32.613  62.510  1.00  0.00    -0.351 N 
HETATM   27  H   UNL     1       4.667  32.476  62.004  1.00  0.00     0.166 HD
HETATM   28  C   UNL     1       5.634  33.092  63.795  1.00  0.00     0.043 A 
HETATM   29  C   UNL     1       6.990  33.124  64.111  1.00  0.00    -0.005 A 
HETATM   30  C   UNL     1       4.637  33.493  64.691  1.00  0.00     0.032 A 
HETATM   31  C   UNL     1       7.697  32.641  62.973  1.00  0.00     0.049 A 
HETATM   32  C   UNL     1       7.383  33.581  65.383  1.00  0.00     0.037 A 
HETATM   33  C   UNL     1       6.397  33.983  66.289  1.00  0.00     0.035 A 
HETATM   34  C   UNL     1       5.046  33.940  65.952  1.00  0.00     0.026 A 
HETATM   35 CL   UNL     1       6.864  34.538  67.853  1.00  0.00    -0.084 Cl
ENDBRANCH  22  25
ENDBRANCH   2  21
TORSDOF 7
ENDMDL
MODEL 9
REMARK VINA RESULT:      -9.5      4.786     11.650
REMARK  7 active torsions:
REMARK  status: ('A' for Active; 'I' for Inactive)
REMARK    1  A    between atoms: C_2  and  C_3 
REMARK    2  A    between atoms: C_3  and  N_4 
REMARK       I    between atoms: N_4  and  C_5 
REMARK    3  A    between atoms: C_5  and  C_6 
REMARK    4  A    between atoms: C_6  and  C_7 
REMARK    5  A    between atoms: C_7  and  C_8 
REMARK       I    between atoms: C_8  and  N_9 
REMARK    6  A    between atoms: N_9  and  N_10 
REMARK       I    between atoms: N_10  and  C_11 
REMARK    7  A    between atoms: C_11  and  C_12 
ROOT
HETATM    1  C   UNL     1       4.925  29.334  54.522  1.00  0.00     0.236 C 
HETATM    2  N   UNL     1       6.154  29.362  55.135  1.00  0.00    -0.267 N 
HETATM    3  O   UNL     1       3.937  29.919  54.968  1.00  0.00    -0.272 OA
HETATM    4  H   UNL     1       6.928  28.746  54.885  1.00  0.00     0.190 HD
ENDROOT
BRANCH   1   5
HETATM    5  C   UNL     1       4.836  28.456  53.298  1.00  0.00     0.114 C 
BRANCH   5   6
HETATM    6  C   UNL     1       6.232  28.018  52.883  1.00  0.00     0.112 C 
BRANCH   6   7
HETATM    7  C   UNL     1       6.328  26.550  52.506  1.00  0.00     0.218 C 
HETATM    8  N   UNL     1       7.578  25.992  52.605  1.00  0.00    -0.357 N 
HETATM    9  H   UNL     1       8.280  26.427  53.201  1.00  0.00     0.162 HD
HETATM   10  O   UNL     1       5.357  25.941  52.065  1.00  0.00    -0.274 OA
BRANCH   8  11
HETATM   11  C   UNL     1       7.803  24.614  52.229  1.00  0.00     0.161 C 
BRANCH  11  12
HETATM   12  C   UNL     1       7.909  23.684  53.415  1.00  0.00    -0.038 A 
HETATM   13  C   UNL     1       7.988  24.169  54.743  1.00  0.00     0.012 A 
HETATM   14  C   UNL     1       8.120  23.298  55.829  1.00  0.00     0.040 A 
HETATM   15  C   UNL     1       8.196  21.950  55.563  1.00  0.00     0.105 A 
HETATM   16  C   UNL     1       8.146  21.464  54.279  1.00  0.00     0.105 A 
HETATM   17  O   UNL     1       8.339  20.962  56.487  1.00  0.00    -0.323 OA
HETATM   18  C   UNL     1       8.006  22.299  53.189  1.00  0.00     0.048 A 
HETATM   19  O   UNL     1       8.256  20.109  54.231  1.00  0.00    -0.323 OA
HETATM   20  C   UNL     1       8.392  19.800  55.634  1.00  0.00     0.352 A 
ENDBRANCH  11  12
ENDBRANCH   8  11
ENDBRANCH   6   7
ENDBRANCH   5   6
ENDBRANCH   1   5
BRANCH   2  21
HETATM   21  N   UNL     1       6.252  30.017  56.367  1.00  0.00    -0.262 N 
HETATM   22  C   UNL     1       7.353  29.792  57.165  1.00  0.00     0.286 C 
HETATM   23  O   UNL     1       8.262  29.040  56.815  1.00  0.00    -0.264 OA
HETATM   24  H   UNL     1       5.467  30.602  56.642  1.00  0.00     0.190 HD
BRANCH  22  25
HETATM   25  C   UNL     1       7.367  30.501  58.424  1.00  0.00     0.103 A 
HETATM   26  N   UNL     1       6.411  31.447  58.727  1.00  0.00    -0.351 N 
HETATM   27  H   UNL     1       5.660  31.705  58.099  1.00  0.00     0.166 HD
HETATM   28  C   UNL     1       6.606  31.965  59.985  1.00  0.00     0.043 A 
HETATM   29  C   UNL     1       7.740  31.347  60.507  1.00  0.00    -0.005 A 
HETATM   30  C   UNL     1       5.871  32.922  60.692  1.00  0.00     0.032 A 
HETATM   31  C   UNL     1       8.213  30.436  59.520  1.00  0.00     0.049 A 
HETATM   32  C   UNL     1       8.173  31.697  61.799  1.00  0.00     0.037 A 
HETATM   33  C   UNL     1       7.447  32.651  62.518  1.00  0.00     0.035 A 
HETATM   34  C   UNL     1       6.314  33.254  61.977  1.00  0.00     0.026 A 
HETATM   35 CL   UNL     1       7.962  33.084  64.105  1.00  0.00    -0.084 Cl
ENDBRANCH  22  25
ENDBRANCH   2  21
TORSDOF 7
ENDMDL
MODEL 10
REMARK VINA RESULT:      -9.4      1.987      3.032
REMARK  7 active torsions:
REMARK  status: ('A' for Active; 'I' for Inactive)
REMARK    1  A    between atoms: C_2  and  C_3 
REMARK    2  A    between atoms: C_3  and  N_4 
REMARK       I    between atoms: N_4  and  C_5 
REMARK    3  A    between atoms: C_5  and  C_6 
REMARK    4  A    between atoms: C_6  and  C_7 
REMARK    5  A    between atoms: C_7  and  C_8 
REMARK       I    between atoms: C_8  and  N_9 
REMARK    6  A    between atoms: N_9  and  N_10 
REMARK       I    between atoms: N_10  and  C_11 
REMARK    7  A    between atoms: C_11  and  C_12 
ROOT
HETATM    1  C   UNL     1       8.366  30.830  60.553  1.00  0.00     0.236 C 
HETATM    2  N   UNL     1       7.493  30.501  59.545  1.00  0.00    -0.267 N 
HETATM    3  O   UNL     1       9.377  30.175  60.808  1.00  0.00    -0.272 OA
HETATM    4  H   UNL     1       6.568  30.918  59.435  1.00  0.00     0.190 HD
ENDROOT
BRANCH   1   5
HETATM    5  C   UNL     1       7.957  32.011  61.398  1.00  0.00     0.114 C 
BRANCH   5   6
HETATM    6  C   UNL     1       6.520  32.392  61.079  1.00  0.00     0.112 C 
BRANCH   6   7
HETATM    7  C   UNL     1       5.601  32.387  62.288  1.00  0.00     0.218 C 
HETATM    8  N   UNL     1       5.177  33.619  62.717  1.00  0.00    -0.357 N 
HETATM    9  H   UNL     1       5.196  34.412  62.077  1.00  0.00     0.162 HD
HETATM   10  O   UNL     1       5.333  31.344  62.880  1.00  0.00    -0.274 OA
BRANCH   8  11
HETATM   11  C   UNL     1       4.336  33.745  63.886  1.00  0.00     0.161 C 
BRANCH  11  12
HETATM   12  C   UNL     1       5.118  33.948  65.163  1.00  0.00    -0.038 A 
HETATM   13  C   UNL     1       6.533  33.992  65.175  1.00  0.00     0.012 A 
HETATM   14  C   UNL     1       7.246  34.146  66.369  1.00  0.00     0.040 A 
HETATM   15  C   UNL     1       6.526  34.228  67.539  1.00  0.00     0.105 A 
HETATM   16  C   UNL     1       5.154  34.162  67.547  1.00  0.00     0.105 A 
HETATM   17  O   UNL     1       7.048  34.365  68.787  1.00  0.00    -0.323 OA
HETATM   18  C   UNL     1       4.424  34.021  66.384  1.00  0.00     0.048 A 
HETATM   19  O   UNL     1       4.638  34.243  68.803  1.00  0.00    -0.323 OA
HETATM   20  C   UNL     1       5.846  34.358  69.584  1.00  0.00     0.352 A 
ENDBRANCH  11  12
ENDBRANCH   8  11
ENDBRANCH   6   7
ENDBRANCH   5   6
ENDBRANCH   1   5
BRANCH   2  21
HETATM   21  N   UNL     1       7.728  29.314  58.841  1.00  0.00    -0.262 N 
HETATM   22  C   UNL     1       6.968  29.028  57.729  1.00  0.00     0.286 C 
HETATM   23  O   UNL     1       6.094  29.796  57.327  1.00  0.00    -0.264 OA
HETATM   24  H   UNL     1       8.431  28.686  59.221  1.00  0.00     0.190 HD
BRANCH  22  25
HETATM   25  C   UNL     1       7.271  27.778  57.070  1.00  0.00     0.103 A 
HETATM   26  N   UNL     1       7.960  26.774  57.716  1.00  0.00    -0.351 N 
HETATM   27  H   UNL     1       8.295  26.848  58.669  1.00  0.00     0.166 HD
HETATM   28  C   UNL     1       8.106  25.672  56.908  1.00  0.00     0.043 A 
HETATM   29  C   UNL     1       7.509  25.982  55.688  1.00  0.00    -0.005 A 
HETATM   30  C   UNL     1       8.713  24.438  57.163  1.00  0.00     0.032 A 
HETATM   31  C   UNL     1       6.994  27.305  55.797  1.00  0.00     0.049 A 
HETATM   32  C   UNL     1       7.515  25.018  54.662  1.00  0.00     0.037 A 
HETATM   33  C   UNL     1       8.117  23.780  54.904  1.00  0.00     0.035 A 
HETATM   34  C   UNL     1       8.706  23.491  56.132  1.00  0.00     0.026 A 
HETATM   35 CL   UNL     1       8.126  22.588  53.658  1.00  0.00    -0.084 Cl
ENDBRANCH  22  25
ENDBRANCH   2  21
TORSDOF 7
ENDMDL
