MODEL 1
REMARK VINA RESULT:      -9.9      0.000      0.000
REMARK  7 active torsions:
REMARK  status: ('A' for Active; 'I' for Inactive)
REMARK    1  A    between atoms: C_2  and  O_3 
REMARK    2  A    between atoms: O_3  and  C_4 
REMARK    3  A    between atoms: C_4  and  C_5 
REMARK    4  A    between atoms: C_6  and  N_7 
REMARK    5  A    between atoms: N_7  and  C_8 
REMARK    6  A    between atoms: C_9  and  C_10 
REMARK    7  A    between atoms: C_13  and  C_14 
ROOT
HETATM    1  C   UNL     1       8.965  30.440  59.124  1.00  0.00     0.114 C 
HETATM    2  C   UNL     1       9.311  29.699  58.052  1.00  0.00     0.095 C 
HETATM    3  C   UNL     1      10.616  29.869  57.497  1.00  0.00     0.103 C 
HETATM    4  N   UNL     1      11.678  30.056  57.068  1.00  0.00    -0.191 NA
ENDROOT
BRANCH   2   5
HETATM    5  C   UNL     1       8.419  28.779  57.415  1.00  0.00     0.120 A 
HETATM    6  S   UNL     1       7.007  29.341  56.566  1.00  0.00    -0.078 SA
HETATM    7  C   UNL     1       6.657  27.748  56.062  1.00  0.00     0.084 A 
HETATM    8  C   UNL     1       7.627  26.881  56.517  1.00  0.00     0.075 A 
HETATM    9  N   UNL     1       8.615  27.476  57.290  1.00  0.00    -0.239 NA
BRANCH   8  10
HETATM   10  C   UNL     1       7.647  25.449  56.237  1.00  0.00    -0.007 A 
HETATM   11  C   UNL     1       8.243  24.530  57.117  1.00  0.00     0.017 A 
HETATM   12  C   UNL     1       8.244  23.163  56.822  1.00  0.00     0.043 A 
HETATM   13  C   UNL     1       7.646  22.712  55.653  1.00  0.00     0.116 A 
HETATM   14  F   UNL     1       7.649  21.403  55.373  1.00  0.00    -0.206 F 
HETATM   15  C   UNL     1       7.042  23.600  54.772  1.00  0.00     0.043 A 
HETATM   16  C   UNL     1       7.039  24.966  55.066  1.00  0.00     0.017 A 
ENDBRANCH   8  10
ENDBRANCH   2   5
BRANCH   1  17
HETATM   17  N   UNL     1       7.819  30.444  59.895  1.00  0.00    -0.358 N 
HETATM   18  H   UNL     1       7.021  29.979  59.448  1.00  0.00     0.166 HD
BRANCH  17  19
HETATM   19  C   UNL     1       7.495  31.306  60.912  1.00  0.00     0.091 A 
HETATM   20  C   UNL     1       6.550  32.332  60.838  1.00  0.00     0.080 A 
HETATM   21  C   UNL     1       6.516  33.113  62.060  1.00  0.00    -0.026 A 
HETATM   22  C   UNL     1       7.396  32.619  63.003  1.00  0.00    -0.008 A 
HETATM   23  C   UNL     1       5.658  34.315  62.355  1.00  0.00     0.041 C 
HETATM   24  S   UNL     1       8.241  31.258  62.461  1.00  0.00    -0.075 SA
HETATM   25  C   UNL     1       7.646  33.209  64.358  1.00  0.00     0.047 C 
HETATM   26  C   UNL     1       6.522  34.179  64.740  1.00  0.00     0.005 C 
HETATM   27  C   UNL     1       6.160  35.105  63.573  1.00  0.00     0.005 C 
BRANCH  20  28
HETATM   28  C   UNL     1       5.735  32.532  59.634  1.00  0.00     0.296 C 
HETATM   29  O   UNL     1       6.216  32.761  58.529  1.00  0.00    -0.259 OA
BRANCH  28  30
HETATM   30  O   UNL     1       4.397  32.403  59.868  1.00  0.00    -0.318 OA
BRANCH  30  31
HETATM   31  C   UNL     1       3.553  33.434  59.337  1.00  0.00     0.174 C 
HETATM   32  C   UNL     1       2.576  33.892  60.402  1.00  0.00     0.034 C 
ENDBRANCH  30  31
ENDBRANCH  28  30
ENDBRANCH  20  28
ENDBRANCH  17  19
ENDBRANCH   1  17
TORSDOF 7
ENDMDL
MODEL 2
REMARK VINA RESULT:      -9.9      4.245     10.168
REMARK  7 active torsions:
REMARK  status: ('A' for Active; 'I' for Inactive)
REMARK    1  A    between atoms: C_2  and  O_3 
REMARK    2  A    between atoms: O_3  and  C_4 
REMARK    3  A    between atoms: C_4  and  C_5 
REMARK    4  A    between atoms: C_6  and  N_7 
REMARK    5  A    between atoms: N_7  and  C_8 
REMARK    6  A    between atoms: C_9  and  C_10 
REMARK    7  A    between atoms: C_13  and  C_14 
ROOT
HETATM    1  C   UNL     1       6.617  26.689  55.998  1.00  0.00     0.114 C 
HETATM    2  C   UNL     1       6.325  27.916  56.475  1.00  0.00     0.095 C 
HETATM    3  C   UNL     1       5.009  28.432  56.272  1.00  0.00     0.103 C 
HETATM    4  N   UNL     1       3.934  28.819  56.065  1.00  0.00    -0.191 NA
ENDROOT
BRANCH   2   5
HETATM    5  C   UNL     1       7.283  28.746  57.140  1.00  0.00     0.120 A 
HETATM    6  S   UNL     1       8.733  29.268  56.328  1.00  0.00    -0.078 SA
HETATM    7  C   UNL     1       9.160  30.226  57.675  1.00  0.00     0.084 A 
HETATM    8  C   UNL     1       8.186  30.142  58.647  1.00  0.00     0.075 A 
HETATM    9  N   UNL     1       7.132  29.293  58.335  1.00  0.00    -0.239 NA
BRANCH   8  10
HETATM   10  C   UNL     1       8.224  30.863  59.916  1.00  0.00    -0.007 A 
HETATM   11  C   UNL     1       7.292  31.867  60.225  1.00  0.00     0.017 A 
HETATM   12  C   UNL     1       7.353  32.539  61.450  1.00  0.00     0.043 A 
HETATM   13  C   UNL     1       8.341  32.205  62.368  1.00  0.00     0.116 A 
HETATM   14  F   UNL     1       8.397  32.851  63.539  1.00  0.00    -0.206 F 
HETATM   15  C   UNL     1       9.268  31.209  62.088  1.00  0.00     0.043 A 
HETATM   16  C   UNL     1       9.207  30.536  60.865  1.00  0.00     0.017 A 
ENDBRANCH   8  10
ENDBRANCH   2   5
BRANCH   1  17
HETATM   17  N   UNL     1       7.762  25.923  56.098  1.00  0.00    -0.358 N 
HETATM   18  H   UNL     1       8.619  26.477  56.205  1.00  0.00     0.166 HD
BRANCH  17  19
HETATM   19  C   UNL     1       7.951  24.636  55.662  1.00  0.00     0.091 A 
HETATM   20  C   UNL     1       7.807  24.195  54.345  1.00  0.00     0.080 A 
HETATM   21  C   UNL     1       7.992  22.760  54.241  1.00  0.00    -0.026 A 
HETATM   22  C   UNL     1       8.305  22.199  55.464  1.00  0.00    -0.008 A 
HETATM   23  C   UNL     1       7.886  21.910  53.003  1.00  0.00     0.041 C 
HETATM   24  S   UNL     1       8.386  23.342  56.708  1.00  0.00    -0.075 SA
HETATM   25  C   UNL     1       8.520  20.739  55.726  1.00  0.00     0.047 C 
HETATM   26  C   UNL     1       8.756  19.984  54.412  1.00  0.00     0.005 C 
HETATM   27  C   UNL     1       7.759  20.415  53.330  1.00  0.00     0.005 C 
BRANCH  20  28
HETATM   28  C   UNL     1       7.501  25.132  53.257  1.00  0.00     0.296 C 
HETATM   29  O   UNL     1       8.186  26.119  53.010  1.00  0.00    -0.259 OA
BRANCH  28  30
HETATM   30  O   UNL     1       6.401  24.770  52.536  1.00  0.00    -0.318 OA
BRANCH  30  31
HETATM   31  C   UNL     1       5.130  24.948  53.178  1.00  0.00     0.174 C 
HETATM   32  C   UNL     1       4.647  26.369  52.966  1.00  0.00     0.034 C 
ENDBRANCH  30  31
ENDBRANCH  28  30
ENDBRANCH  20  28
ENDBRANCH  17  19
ENDBRANCH   1  17
TORSDOF 7
ENDMDL
MODEL 3
REMARK VINA RESULT:      -9.5      5.186      9.480
REMARK  7 active torsions:
REMARK  status: ('A' for Active; 'I' for Inactive)
REMARK    1  A    between atoms: C_2  and  O_3 
REMARK    2  A    between atoms: O_3  and  C_4 
REMARK    3  A    between atoms: C_4  and  C_5 
REMARK    4  A    between atoms: C_6  and  N_7 
REMARK    5  A    between atoms: N_7  and  C_8 
REMARK    6  A    between atoms: C_9  and  C_10 
REMARK    7  A    between atoms: C_13  and  C_14 
ROOT
HETATM    1  C   UNL     1       8.437  26.867  56.933  1.00  0.00     0.114 C 
HETATM    2  C   UNL     1       8.321  28.209  56.852  1.00  0.00     0.095 C 
HETATM    3  C   UNL     1       9.469  29.011  57.129  1.00  0.00     0.103 C 
HETATM    4  N   UNL     1      10.423  29.623  57.383  1.00  0.00    -0.191 NA
ENDROOT
BRANCH   2   5
HETATM    5  C   UNL     1       7.090  28.871  56.544  1.00  0.00     0.120 A 
HETATM    6  S   UNL     1       6.389  30.020  57.649  1.00  0.00    -0.078 SA
HETATM    7  C   UNL     1       5.155  30.372  56.523  1.00  0.00     0.084 A 
HETATM    8  C   UNL     1       5.346  29.647  55.365  1.00  0.00     0.075 A 
HETATM    9  N   UNL     1       6.441  28.794  55.393  1.00  0.00    -0.239 NA
BRANCH   8  10
HETATM   10  C   UNL     1       4.487  29.736  54.188  1.00  0.00    -0.007 A 
HETATM   11  C   UNL     1       4.100  30.972  53.645  1.00  0.00     0.017 A 
HETATM   12  C   UNL     1       3.279  31.025  52.514  1.00  0.00     0.043 A 
HETATM   13  C   UNL     1       2.848  29.844  51.923  1.00  0.00     0.116 A 
HETATM   14  F   UNL     1       2.061  29.897  50.841  1.00  0.00    -0.206 F 
HETATM   15  C   UNL     1       3.225  28.610  52.437  1.00  0.00     0.043 A 
HETATM   16  C   UNL     1       4.047  28.556  53.565  1.00  0.00     0.017 A 
ENDBRANCH   8  10
ENDBRANCH   2   5
BRANCH   1  17
HETATM   17  N   UNL     1       7.532  25.859  56.665  1.00  0.00    -0.358 N 
HETATM   18  H   UNL     1       6.691  25.894  57.252  1.00  0.00     0.166 HD
BRANCH  17  19
HETATM   19  C   UNL     1       7.780  24.646  56.074  1.00  0.00     0.091 A 
HETATM   20  C   UNL     1       7.643  24.361  54.714  1.00  0.00     0.080 A 
HETATM   21  C   UNL     1       7.898  22.961  54.434  1.00  0.00    -0.026 A 
HETATM   22  C   UNL     1       8.252  22.272  55.578  1.00  0.00    -0.008 A 
HETATM   23  C   UNL     1       7.820  22.264  53.102  1.00  0.00     0.041 C 
HETATM   24  S   UNL     1       8.290  23.257  56.952  1.00  0.00    -0.075 SA
HETATM   25  C   UNL     1       8.541  20.804  55.658  1.00  0.00     0.047 C 
HETATM   26  C   UNL     1       8.800  20.227  54.261  1.00  0.00     0.005 C 
HETATM   27  C   UNL     1       7.771  20.735  53.244  1.00  0.00     0.005 C 
BRANCH  20  28
HETATM   28  C   UNL     1       7.279  25.407  53.749  1.00  0.00     0.296 C 
HETATM   29  O   UNL     1       8.057  25.842  52.907  1.00  0.00    -0.259 OA
BRANCH  28  30
HETATM   30  O   UNL     1       5.982  25.814  53.870  1.00  0.00    -0.318 OA
BRANCH  30  31
HETATM   31  C   UNL     1       4.986  24.949  53.306  1.00  0.00     0.174 C 
HETATM   32  C   UNL     1       4.922  25.156  51.806  1.00  0.00     0.034 C 
ENDBRANCH  30  31
ENDBRANCH  28  30
ENDBRANCH  20  28
ENDBRANCH  17  19
ENDBRANCH   1  17
TORSDOF 7
ENDMDL
MODEL 4
REMARK VINA RESULT:      -9.4      2.671      4.689
REMARK  7 active torsions:
REMARK  status: ('A' for Active; 'I' for Inactive)
REMARK    1  A    between atoms: C_2  and  O_3 
REMARK    2  A    between atoms: O_3  and  C_4 
REMARK    3  A    between atoms: C_4  and  C_5 
REMARK    4  A    between atoms: C_6  and  N_7 
REMARK    5  A    between atoms: N_7  and  C_8 
REMARK    6  A    between atoms: C_9  and  C_10 
REMARK    7  A    between atoms: C_13  and  C_14 
ROOT
HETATM    1  C   UNL     1       5.490  29.635  55.356  1.00  0.00     0.114 C 
HETATM    2  C   UNL     1       5.070  28.453  54.858  1.00  0.00     0.095 C 
HETATM    3  C   UNL     1       4.067  28.459  53.842  1.00  0.00     0.103 C 
HETATM    4  N   UNL     1       3.236  28.513  53.033  1.00  0.00    -0.191 NA
ENDROOT
BRANCH   2   5
HETATM    5  C   UNL     1       5.549  27.190  55.329  1.00  0.00     0.120 A 
HETATM    6  S   UNL     1       5.238  26.664  56.960  1.00  0.00    -0.078 SA
HETATM    7  C   UNL     1       5.971  25.158  56.630  1.00  0.00     0.084 A 
HETATM    8  C   UNL     1       6.377  25.104  55.313  1.00  0.00     0.075 A 
HETATM    9  N   UNL     1       6.140  26.265  54.589  1.00  0.00    -0.239 NA
BRANCH   8  10
HETATM   10  C   UNL     1       7.012  23.945  54.695  1.00  0.00    -0.007 A 
HETATM   11  C   UNL     1       7.341  22.797  55.435  1.00  0.00     0.017 A 
HETATM   12  C   UNL     1       7.947  21.700  54.814  1.00  0.00     0.043 A 
HETATM   13  C   UNL     1       8.220  21.747  53.453  1.00  0.00     0.116 A 
HETATM   14  F   UNL     1       8.800  20.696  52.861  1.00  0.00    -0.206 F 
HETATM   15  C   UNL     1       7.895  22.867  52.698  1.00  0.00     0.043 A 
HETATM   16  C   UNL     1       7.289  23.963  53.318  1.00  0.00     0.017 A 
ENDBRANCH   8  10
ENDBRANCH   2   5
BRANCH   1  17
HETATM   17  N   UNL     1       6.472  29.934  56.280  1.00  0.00    -0.358 N 
HETATM   18  H   UNL     1       7.231  29.243  56.312  1.00  0.00     0.166 HD
BRANCH  17  19
HETATM   19  C   UNL     1       6.363  30.731  57.391  1.00  0.00     0.091 A 
HETATM   20  C   UNL     1       7.170  30.655  58.528  1.00  0.00     0.080 A 
HETATM   21  C   UNL     1       6.730  31.581  59.555  1.00  0.00    -0.026 A 
HETATM   22  C   UNL     1       5.651  32.332  59.133  1.00  0.00    -0.008 A 
HETATM   23  C   UNL     1       7.320  31.772  60.927  1.00  0.00     0.041 C 
HETATM   24  S   UNL     1       5.170  31.959  57.555  1.00  0.00    -0.075 SA
HETATM   25  C   UNL     1       4.922  33.351  59.955  1.00  0.00     0.047 C 
HETATM   26  C   UNL     1       5.758  33.761  61.174  1.00  0.00     0.005 C 
HETATM   27  C   UNL     1       6.376  32.541  61.866  1.00  0.00     0.005 C 
BRANCH  20  28
HETATM   28  C   UNL     1       8.302  29.723  58.598  1.00  0.00     0.296 C 
HETATM   29  O   UNL     1       8.189  28.515  58.412  1.00  0.00    -0.259 OA
BRANCH  28  30
HETATM   30  O   UNL     1       9.489  30.345  58.858  1.00  0.00    -0.318 OA
BRANCH  30  31
HETATM   31  C   UNL     1      10.190  30.878  57.726  1.00  0.00     0.174 C 
HETATM   32  C   UNL     1      11.032  29.790  57.090  1.00  0.00     0.034 C 
ENDBRANCH  30  31
ENDBRANCH  28  30
ENDBRANCH  20  28
ENDBRANCH  17  19
ENDBRANCH   1  17
TORSDOF 7
ENDMDL
MODEL 5
REMARK VINA RESULT:      -9.4      3.228      5.652
REMARK  7 active torsions:
REMARK  status: ('A' for Active; 'I' for Inactive)
REMARK    1  A    between atoms: C_2  and  O_3 
REMARK    2  A    between atoms: O_3  and  C_4 
REMARK    3  A    between atoms: C_4  and  C_5 
REMARK    4  A    between atoms: C_6  and  N_7 
REMARK    5  A    between atoms: N_7  and  C_8 
REMARK    6  A    between atoms: C_9  and  C_10 
REMARK    7  A    between atoms: C_13  and  C_14 
ROOT
HETATM    1  C   UNL     1       5.143  29.288  54.392  1.00  0.00     0.114 C 
HETATM    2  C   UNL     1       4.755  28.613  53.291  1.00  0.00     0.095 C 
HETATM    3  C   UNL     1       3.673  29.131  52.517  1.00  0.00     0.103 C 
HETATM    4  N   UNL     1       2.776  29.579  51.932  1.00  0.00    -0.191 NA
ENDROOT
BRANCH   2   5
HETATM    5  C   UNL     1       5.349  27.376  52.882  1.00  0.00     0.120 A 
HETATM    6  S   UNL     1       5.454  26.946  51.198  1.00  0.00    -0.078 SA
HETATM    7  C   UNL     1       6.334  25.539  51.597  1.00  0.00     0.084 A 
HETATM    8  C   UNL     1       6.540  25.476  52.959  1.00  0.00     0.075 A 
HETATM    9  N   UNL     1       5.969  26.519  53.676  1.00  0.00    -0.239 NA
BRANCH   8  10
HETATM   10  C   UNL     1       7.285  24.416  53.631  1.00  0.00    -0.007 A 
HETATM   11  C   UNL     1       7.879  23.361  52.918  1.00  0.00     0.017 A 
HETATM   12  C   UNL     1       8.590  22.361  53.589  1.00  0.00     0.043 A 
HETATM   13  C   UNL     1       8.712  22.417  54.972  1.00  0.00     0.116 A 
HETATM   14  F   UNL     1       9.392  21.458  55.612  1.00  0.00    -0.206 F 
HETATM   15  C   UNL     1       8.141  23.455  55.698  1.00  0.00     0.043 A 
HETATM   16  C   UNL     1       7.433  24.455  55.027  1.00  0.00     0.017 A 
ENDBRANCH   8  10
ENDBRANCH   2   5
BRANCH   1  17
HETATM   17  N   UNL     1       6.178  29.065  55.279  1.00  0.00    -0.358 N 
HETATM   18  H   UNL     1       6.543  28.106  55.252  1.00  0.00     0.166 HD
BRANCH  17  19
HETATM   19  C   UNL     1       6.470  29.767  56.421  1.00  0.00     0.091 A 
HETATM   20  C   UNL     1       7.538  29.507  57.283  1.00  0.00     0.080 A 
HETATM   21  C   UNL     1       7.508  30.379  58.443  1.00  0.00    -0.026 A 
HETATM   22  C   UNL     1       6.457  31.272  58.380  1.00  0.00    -0.008 A 
HETATM   23  C   UNL     1       8.463  30.386  59.607  1.00  0.00     0.041 C 
HETATM   24  S   UNL     1       5.527  31.092  56.979  1.00  0.00    -0.075 SA
HETATM   25  C   UNL     1       6.107  32.284  59.428  1.00  0.00     0.047 C 
HETATM   26  C   UNL     1       7.283  32.495  60.389  1.00  0.00     0.005 C 
HETATM   27  C   UNL     1       7.909  31.161  60.812  1.00  0.00     0.005 C 
BRANCH  20  28
HETATM   28  C   UNL     1       8.523  28.461  56.984  1.00  0.00     0.296 C 
HETATM   29  O   UNL     1       8.554  27.383  57.569  1.00  0.00    -0.259 OA
BRANCH  28  30
HETATM   30  O   UNL     1       9.370  28.801  55.970  1.00  0.00    -0.318 OA
BRANCH  30  31
HETATM   31  C   UNL     1      10.180  29.966  56.179  1.00  0.00     0.174 C 
HETATM   32  C   UNL     1      11.309  29.635  57.137  1.00  0.00     0.034 C 
ENDBRANCH  30  31
ENDBRANCH  28  30
ENDBRANCH  20  28
ENDBRANCH  17  19
ENDBRANCH   1  17
TORSDOF 7
ENDMDL
MODEL 6
REMARK VINA RESULT:      -9.2      6.153      9.742
REMARK  7 active torsions:
REMARK  status: ('A' for Active; 'I' for Inactive)
REMARK    1  A    between atoms: C_2  and  O_3 
REMARK    2  A    between atoms: O_3  and  C_4 
REMARK    3  A    between atoms: C_4  and  C_5 
REMARK    4  A    between atoms: C_6  and  N_7 
REMARK    5  A    between atoms: N_7  and  C_8 
REMARK    6  A    between atoms: C_9  and  C_10 
REMARK    7  A    between atoms: C_13  and  C_14 
ROOT
HETATM    1  C   UNL     1       5.362  28.613  53.534  1.00  0.00     0.114 C 
HETATM    2  C   UNL     1       5.323  28.162  54.805  1.00  0.00     0.095 C 
HETATM    3  C   UNL     1       4.528  28.869  55.757  1.00  0.00     0.103 C 
HETATM    4  N   UNL     1       3.885  29.488  56.499  1.00  0.00    -0.191 NA
ENDROOT
BRANCH   2   5
HETATM    5  C   UNL     1       6.075  27.031  55.257  1.00  0.00     0.120 A 
HETATM    6  S   UNL     1       6.604  26.910  56.912  1.00  0.00    -0.078 SA
HETATM    7  C   UNL     1       7.228  25.349  56.614  1.00  0.00     0.084 A 
HETATM    8  C   UNL     1       6.979  24.978  55.310  1.00  0.00     0.075 A 
HETATM    9  N   UNL     1       6.333  25.943  54.549  1.00  0.00    -0.239 NA
BRANCH   8  10
HETATM   10  C   UNL     1       7.353  23.689  54.735  1.00  0.00    -0.007 A 
HETATM   11  C   UNL     1       7.520  22.544  55.531  1.00  0.00     0.017 A 
HETATM   12  C   UNL     1       7.876  21.322  54.951  1.00  0.00     0.043 A 
HETATM   13  C   UNL     1       8.060  21.242  53.577  1.00  0.00     0.116 A 
HETATM   14  F   UNL     1       8.401  20.071  53.025  1.00  0.00    -0.206 F 
HETATM   15  C   UNL     1       7.891  22.359  52.768  1.00  0.00     0.043 A 
HETATM   16  C   UNL     1       7.534  23.579  53.347  1.00  0.00     0.017 A 
ENDBRANCH   8  10
ENDBRANCH   2   5
BRANCH   1  17
HETATM   17  N   UNL     1       5.981  28.107  52.408  1.00  0.00    -0.358 N 
HETATM   18  H   UNL     1       6.965  28.385  52.320  1.00  0.00     0.166 HD
BRANCH  17  19
HETATM   19  C   UNL     1       5.390  27.681  51.246  1.00  0.00     0.091 A 
HETATM   20  C   UNL     1       4.976  28.504  50.196  1.00  0.00     0.080 A 
HETATM   21  C   UNL     1       4.308  27.743  49.156  1.00  0.00    -0.026 A 
HETATM   22  C   UNL     1       4.288  26.394  49.448  1.00  0.00    -0.008 A 
HETATM   23  C   UNL     1       3.695  28.272  47.887  1.00  0.00     0.041 C 
HETATM   24  S   UNL     1       5.047  26.029  50.915  1.00  0.00    -0.075 SA
HETATM   25  C   UNL     1       3.643  25.329  48.613  1.00  0.00     0.047 C 
HETATM   26  C   UNL     1       3.362  25.849  47.198  1.00  0.00     0.005 C 
HETATM   27  C   UNL     1       2.751  27.255  47.227  1.00  0.00     0.005 C 
BRANCH  20  28
HETATM   28  C   UNL     1       5.220  29.951  50.220  1.00  0.00     0.296 C 
HETATM   29  O   UNL     1       6.345  30.441  50.248  1.00  0.00    -0.259 OA
BRANCH  28  30
HETATM   30  O   UNL     1       4.071  30.686  50.174  1.00  0.00    -0.318 OA
BRANCH  30  31
HETATM   31  C   UNL     1       3.036  30.310  51.093  1.00  0.00     0.174 C 
HETATM   32  C   UNL     1       1.702  30.284  50.372  1.00  0.00     0.034 C 
ENDBRANCH  30  31
ENDBRANCH  28  30
ENDBRANCH  20  28
ENDBRANCH  17  19
ENDBRANCH   1  17
TORSDOF 7
ENDMDL
MODEL 7
REMARK VINA RESULT:      -9.0      5.264      8.815
REMARK  7 active torsions:
REMARK  status: ('A' for Active; 'I' for Inactive)
REMARK    1  A    between atoms: C_2  and  O_3 
REMARK    2  A    between atoms: O_3  and  C_4 
REMARK    3  A    between atoms: C_4  and  C_5 
REMARK    4  A    between atoms: C_6  and  N_7 
REMARK    5  A    between atoms: N_7  and  C_8 
REMARK    6  A    between atoms: C_9  and  C_10 
REMARK    7  A    between atoms: C_13  and  C_14 
ROOT
HETATM    1  C   UNL     1       5.338  29.553  55.430  1.00  0.00     0.114 C 
HETATM    2  C   UNL     1       4.287  30.196  54.880  1.00  0.00     0.095 C 
HETATM    3  C   UNL     1       3.401  30.915  55.739  1.00  0.00     0.103 C 
HETATM    4  N   UNL     1       2.697  31.468  56.478  1.00  0.00    -0.191 NA
ENDROOT
BRANCH   2   5
HETATM    5  C   UNL     1       3.991  30.158  53.481  1.00  0.00     0.120 A 
HETATM    6  S   UNL     1       3.774  31.627  52.570  1.00  0.00    -0.078 SA
HETATM    7  C   UNL     1       3.618  30.726  51.128  1.00  0.00     0.084 A 
HETATM    8  C   UNL     1       3.773  29.381  51.387  1.00  0.00     0.075 A 
HETATM    9  N   UNL     1       3.975  29.072  52.725  1.00  0.00    -0.239 NA
BRANCH   8  10
HETATM   10  C   UNL     1       3.729  28.336  50.368  1.00  0.00    -0.007 A 
HETATM   11  C   UNL     1       2.746  28.322  49.364  1.00  0.00     0.017 A 
HETATM   12  C   UNL     1       2.731  27.308  48.400  1.00  0.00     0.043 A 
HETATM   13  C   UNL     1       3.700  26.314  48.435  1.00  0.00     0.116 A 
HETATM   14  F   UNL     1       3.683  25.345  47.512  1.00  0.00    -0.206 F 
HETATM   15  C   UNL     1       4.687  26.312  49.413  1.00  0.00     0.043 A 
HETATM   16  C   UNL     1       4.703  27.325  50.375  1.00  0.00     0.017 A 
ENDBRANCH   8  10
ENDBRANCH   2   5
BRANCH   1  17
HETATM   17  N   UNL     1       6.374  28.846  54.853  1.00  0.00    -0.358 N 
HETATM   18  H   UNL     1       6.736  29.274  53.993  1.00  0.00     0.166 HD
BRANCH  17  19
HETATM   19  C   UNL     1       6.671  27.516  55.010  1.00  0.00     0.091 A 
HETATM   20  C   UNL     1       7.523  26.983  55.980  1.00  0.00     0.080 A 
HETATM   21  C   UNL     1       7.689  25.551  55.814  1.00  0.00    -0.026 A 
HETATM   22  C   UNL     1       6.930  25.071  54.765  1.00  0.00    -0.008 A 
HETATM   23  C   UNL     1       8.548  24.628  56.636  1.00  0.00     0.041 C 
HETATM   24  S   UNL     1       6.034  26.282  53.996  1.00  0.00    -0.075 SA
HETATM   25  C   UNL     1       6.896  23.650  54.291  1.00  0.00     0.047 C 
HETATM   26  C   UNL     1       7.483  22.711  55.353  1.00  0.00     0.005 C 
HETATM   27  C   UNL     1       8.780  23.275  55.945  1.00  0.00     0.005 C 
BRANCH  20  28
HETATM   28  C   UNL     1       8.140  27.835  57.004  1.00  0.00     0.296 C 
HETATM   29  O   UNL     1       7.880  27.740  58.200  1.00  0.00    -0.259 OA
BRANCH  28  30
HETATM   30  O   UNL     1       9.049  28.713  56.491  1.00  0.00    -0.318 OA
BRANCH  30  31
HETATM   31  C   UNL     1       9.579  29.688  57.400  1.00  0.00     0.174 C 
HETATM   32  C   UNL     1      11.074  29.823  57.185  1.00  0.00     0.034 C 
ENDBRANCH  30  31
ENDBRANCH  28  30
ENDBRANCH  20  28
ENDBRANCH  17  19
ENDBRANCH   1  17
TORSDOF 7
ENDMDL
MODEL 8
REMARK VINA RESULT:      -9.0      1.820      3.307
REMARK  7 active torsions:
REMARK  status: ('A' for Active; 'I' for Inactive)
REMARK    1  A    between atoms: C_2  and  O_3 
REMARK    2  A    between atoms: O_3  and  C_4 
REMARK    3  A    between atoms: C_4  and  C_5 
REMARK    4  A    between atoms: C_6  and  N_7 
REMARK    5  A    between atoms: N_7  and  C_8 
REMARK    6  A    between atoms: C_9  and  C_10 
REMARK    7  A    between atoms: C_13  and  C_14 
ROOT
HETATM    1  C   UNL     1       7.986  31.372  59.616  1.00  0.00     0.114 C 
HETATM    2  C   UNL     1       8.471  30.620  58.607  1.00  0.00     0.095 C 
HETATM    3  C   UNL     1       9.767  30.923  58.090  1.00  0.00     0.103 C 
HETATM    4  N   UNL     1      10.815  31.220  57.690  1.00  0.00    -0.191 NA
ENDROOT
BRANCH   2   5
HETATM    5  C   UNL     1       7.731  29.557  57.997  1.00  0.00     0.120 A 
HETATM    6  S   UNL     1       6.244  29.873  57.147  1.00  0.00    -0.078 SA
HETATM    7  C   UNL     1       6.146  28.233  56.681  1.00  0.00     0.084 A 
HETATM    8  C   UNL     1       7.242  27.539  57.147  1.00  0.00     0.075 A 
HETATM    9  N   UNL     1       8.128  28.299  57.899  1.00  0.00    -0.239 NA
BRANCH   8  10
HETATM   10  C   UNL     1       7.484  26.121  56.899  1.00  0.00    -0.007 A 
HETATM   11  C   UNL     1       8.541  25.431  57.516  1.00  0.00     0.017 A 
HETATM   12  C   UNL     1       8.746  24.072  57.260  1.00  0.00     0.043 A 
HETATM   13  C   UNL     1       7.894  23.400  56.393  1.00  0.00     0.116 A 
HETATM   14  F   UNL     1       8.094  22.099  56.149  1.00  0.00    -0.206 F 
HETATM   15  C   UNL     1       6.837  24.059  55.778  1.00  0.00     0.043 A 
HETATM   16  C   UNL     1       6.630  25.417  56.034  1.00  0.00     0.017 A 
ENDBRANCH   8  10
ENDBRANCH   2   5
BRANCH   1  17
HETATM   17  N   UNL     1       6.816  31.274  60.343  1.00  0.00    -0.358 N 
HETATM   18  H   UNL     1       6.565  30.310  60.589  1.00  0.00     0.166 HD
BRANCH  17  19
HETATM   19  C   UNL     1       5.784  32.177  60.396  1.00  0.00     0.091 A 
HETATM   20  C   UNL     1       5.045  32.500  61.536  1.00  0.00     0.080 A 
HETATM   21  C   UNL     1       3.969  33.423  61.229  1.00  0.00    -0.026 A 
HETATM   22  C   UNL     1       3.973  33.781  59.895  1.00  0.00    -0.008 A 
HETATM   23  C   UNL     1       2.941  33.980  62.178  1.00  0.00     0.041 C 
HETATM   24  S   UNL     1       5.224  33.049  59.023  1.00  0.00    -0.075 SA
HETATM   25  C   UNL     1       2.978  34.683  59.230  1.00  0.00     0.047 C 
HETATM   26  C   UNL     1       2.196  35.489  60.274  1.00  0.00     0.005 C 
HETATM   27  C   UNL     1       1.745  34.604  61.443  1.00  0.00     0.005 C 
BRANCH  20  28
HETATM   28  C   UNL     1       5.379  31.930  62.847  1.00  0.00     0.296 C 
HETATM   29  O   UNL     1       4.678  31.096  63.413  1.00  0.00    -0.259 OA
BRANCH  28  30
HETATM   30  O   UNL     1       6.558  32.398  63.348  1.00  0.00    -0.318 OA
BRANCH  30  31
HETATM   31  C   UNL     1       6.536  33.722  63.899  1.00  0.00     0.174 C 
HETATM   32  C   UNL     1       7.167  33.710  65.278  1.00  0.00     0.034 C 
ENDBRANCH  30  31
ENDBRANCH  28  30
ENDBRANCH  20  28
ENDBRANCH  17  19
ENDBRANCH   1  17
TORSDOF 7
ENDMDL
MODEL 9
REMARK VINA RESULT:      -8.8      5.708      9.985
REMARK  7 active torsions:
REMARK  status: ('A' for Active; 'I' for Inactive)
REMARK    1  A    between atoms: C_2  and  O_3 
REMARK    2  A    between atoms: O_3  and  C_4 
REMARK    3  A    between atoms: C_4  and  C_5 
REMARK    4  A    between atoms: C_6  and  N_7 
REMARK    5  A    between atoms: N_7  and  C_8 
REMARK    6  A    between atoms: C_9  and  C_10 
REMARK    7  A    between atoms: C_13  and  C_14 
ROOT
HETATM    1  C   UNL     1       6.108  25.676  51.709  1.00  0.00     0.114 C 
HETATM    2  C   UNL     1       5.344  26.656  51.182  1.00  0.00     0.095 C 
HETATM    3  C   UNL     1       4.808  26.475  49.872  1.00  0.00     0.103 C 
HETATM    4  N   UNL     1       4.412  26.292  48.796  1.00  0.00    -0.191 NA
ENDROOT
BRANCH   2   5
HETATM    5  C   UNL     1       5.080  27.890  51.858  1.00  0.00     0.120 A 
HETATM    6  S   UNL     1       4.758  29.350  50.964  1.00  0.00    -0.078 SA
HETATM    7  C   UNL     1       4.448  30.188  52.419  1.00  0.00     0.084 A 
HETATM    8  C   UNL     1       4.561  29.334  53.495  1.00  0.00     0.075 A 
HETATM    9  N   UNL     1       4.928  28.036  53.164  1.00  0.00    -0.239 NA
BRANCH   8  10
HETATM   10  C   UNL     1       4.329  29.723  54.882  1.00  0.00    -0.007 A 
HETATM   11  C   UNL     1       3.412  30.730  55.226  1.00  0.00     0.017 A 
HETATM   12  C   UNL     1       3.209  31.079  56.565  1.00  0.00     0.043 A 
HETATM   13  C   UNL     1       3.917  30.419  57.561  1.00  0.00     0.116 A 
HETATM   14  F   UNL     1       3.721  30.755  58.842  1.00  0.00    -0.206 F 
HETATM   15  C   UNL     1       4.822  29.414  57.246  1.00  0.00     0.043 A 
HETATM   16  C   UNL     1       5.024  29.063  55.909  1.00  0.00     0.017 A 
ENDBRANCH   8  10
ENDBRANCH   2   5
BRANCH   1  17
HETATM   17  N   UNL     1       6.695  25.549  52.952  1.00  0.00    -0.358 N 
HETATM   18  H   UNL     1       7.186  26.395  53.263  1.00  0.00     0.166 HD
BRANCH  17  19
HETATM   19  C   UNL     1       7.065  24.392  53.591  1.00  0.00     0.091 A 
HETATM   20  C   UNL     1       7.063  24.191  54.972  1.00  0.00     0.080 A 
HETATM   21  C   UNL     1       7.596  22.887  55.320  1.00  0.00    -0.026 A 
HETATM   22  C   UNL     1       7.932  22.160  54.196  1.00  0.00    -0.008 A 
HETATM   23  C   UNL     1       7.786  22.314  56.700  1.00  0.00     0.041 C 
HETATM   24  S   UNL     1       7.619  22.993  52.758  1.00  0.00    -0.075 SA
HETATM   25  C   UNL     1       8.547  20.793  54.191  1.00  0.00     0.047 C 
HETATM   26  C   UNL     1       8.387  20.124  55.562  1.00  0.00     0.005 C 
HETATM   27  C   UNL     1       8.719  21.094  56.702  1.00  0.00     0.005 C 
BRANCH  20  28
HETATM   28  C   UNL     1       6.569  25.223  55.893  1.00  0.00     0.296 C 
HETATM   29  O   UNL     1       5.549  25.092  56.561  1.00  0.00    -0.259 OA
BRANCH  28  30
HETATM   30  O   UNL     1       7.380  26.319  55.948  1.00  0.00    -0.318 OA
BRANCH  30  31
HETATM   31  C   UNL     1       7.836  26.710  57.250  1.00  0.00     0.174 C 
HETATM   32  C   UNL     1       8.541  28.050  57.161  1.00  0.00     0.034 C 
ENDBRANCH  30  31
ENDBRANCH  28  30
ENDBRANCH  20  28
ENDBRANCH  17  19
ENDBRANCH   1  17
TORSDOF 7
ENDMDL
MODEL 10
REMARK VINA RESULT:      -8.6      3.730      8.939
REMARK  7 active torsions:
REMARK  status: ('A' for Active; 'I' for Inactive)
REMARK    1  A    between atoms: C_2  and  O_3 
REMARK    2  A    between atoms: O_3  and  C_4 
REMARK    3  A    between atoms: C_4  and  C_5 
REMARK    4  A    between atoms: C_6  and  N_7 
REMARK    5  A    between atoms: N_7  and  C_8 
REMARK    6  A    between atoms: C_9  and  C_10 
REMARK    7  A    between atoms: C_13  and  C_14 
ROOT
HETATM    1  C   UNL     1       5.280  29.831  54.781  1.00  0.00     0.114 C 
HETATM    2  C   UNL     1       4.549  30.920  55.094  1.00  0.00     0.095 C 
HETATM    3  C   UNL     1       3.476  31.294  54.230  1.00  0.00     0.103 C 
HETATM    4  N   UNL     1       2.628  31.571  53.487  1.00  0.00    -0.191 NA
ENDROOT
BRANCH   2   5
HETATM    5  C   UNL     1       4.822  31.746  56.231  1.00  0.00     0.120 A 
HETATM    6  S   UNL     1       3.868  33.165  56.558  1.00  0.00    -0.078 SA
HETATM    7  C   UNL     1       4.716  33.417  58.018  1.00  0.00     0.084 A 
HETATM    8  C   UNL     1       5.641  32.413  58.210  1.00  0.00     0.075 A 
HETATM    9  N   UNL     1       5.697  31.478  57.186  1.00  0.00    -0.239 NA
BRANCH   8  10
HETATM   10  C   UNL     1       6.512  32.310  59.377  1.00  0.00    -0.007 A 
HETATM   11  C   UNL     1       6.080  32.683  60.660  1.00  0.00     0.017 A 
HETATM   12  C   UNL     1       6.937  32.570  61.759  1.00  0.00     0.043 A 
HETATM   13  C   UNL     1       8.224  32.080  61.578  1.00  0.00     0.116 A 
HETATM   14  F   UNL     1       9.042  31.973  62.632  1.00  0.00    -0.206 F 
HETATM   15  C   UNL     1       8.671  31.696  60.321  1.00  0.00     0.043 A 
HETATM   16  C   UNL     1       7.815  31.807  59.222  1.00  0.00     0.017 A 
ENDBRANCH   8  10
ENDBRANCH   2   5
BRANCH   1  17
HETATM   17  N   UNL     1       6.316  29.207  55.449  1.00  0.00    -0.358 N 
HETATM   18  H   UNL     1       7.108  29.828  55.651  1.00  0.00     0.166 HD
BRANCH  17  19
HETATM   19  C   UNL     1       6.603  27.866  55.487  1.00  0.00     0.091 A 
HETATM   20  C   UNL     1       7.523  27.256  56.342  1.00  0.00     0.080 A 
HETATM   21  C   UNL     1       7.650  25.838  56.061  1.00  0.00    -0.026 A 
HETATM   22  C   UNL     1       6.799  25.443  55.049  1.00  0.00    -0.008 A 
HETATM   23  C   UNL     1       8.559  24.849  56.741  1.00  0.00     0.041 C 
HETATM   24  S   UNL     1       5.863  26.716  54.444  1.00  0.00    -0.075 SA
HETATM   25  C   UNL     1       6.702  24.060  54.479  1.00  0.00     0.047 C 
HETATM   26  C   UNL     1       7.359  23.042  55.419  1.00  0.00     0.005 C 
HETATM   27  C   UNL     1       8.710  23.547  55.939  1.00  0.00     0.005 C 
BRANCH  20  28
HETATM   28  C   UNL     1       8.236  28.026  57.369  1.00  0.00     0.296 C 
HETATM   29  O   UNL     1       7.720  28.368  58.428  1.00  0.00    -0.259 OA
BRANCH  28  30
HETATM   30  O   UNL     1       9.533  28.288  57.034  1.00  0.00    -0.318 OA
BRANCH  30  31
HETATM   31  C   UNL     1       9.824  29.627  56.611  1.00  0.00     0.174 C 
HETATM   32  C   UNL     1      11.058  30.131  57.334  1.00  0.00     0.034 C 
ENDBRANCH  30  31
ENDBRANCH  28  30
ENDBRANCH  20  28
ENDBRANCH  17  19
ENDBRANCH   1  17
TORSDOF 7
ENDMDL
