MODEL 1
REMARK VINA RESULT:     -10.5      0.000      0.000
REMARK  8 active torsions:
REMARK  status: ('A' for Active; 'I' for Inactive)
REMARK    1  A    between atoms: C_5  and  C_6 
REMARK       I    between atoms: C_6  and  N_7 
REMARK    2  A    between atoms: N_7  and  N_8 
REMARK       I    between atoms: N_8  and  C_9 
REMARK    3  A    between atoms: C_9  and  C_10 
REMARK    4  A    between atoms: C_10  and  S_11 
REMARK    5  A    between atoms: S_11  and  C_12 
REMARK    6  A    between atoms: C_14  and  C_15 
REMARK    7  A    between atoms: C_15  and  N_16 
REMARK    8  A    between atoms: N_16  and  C_17 
ROOT
HETATM    1  S   UNL     1       7.451  29.583  56.965  1.00  0.00    -0.081 SA
ENDROOT
BRANCH   1   2
HETATM    2  C   UNL     1       8.933  30.100  57.879  1.00  0.00     0.187 C 
BRANCH   2   3
HETATM    3  C   UNL     1       8.625  31.105  58.978  1.00  0.00     0.245 C 
HETATM    4  N   UNL     1       7.811  30.590  59.972  1.00  0.00    -0.267 N 
HETATM    5  H   UNL     1       7.253  29.746  59.832  1.00  0.00     0.190 HD
HETATM    6  O   UNL     1       9.036  32.266  59.011  1.00  0.00    -0.271 OA
BRANCH   4   7
HETATM    7  N   UNL     1       7.270  31.501  60.898  1.00  0.00    -0.263 N 
HETATM    8  C   UNL     1       7.736  31.420  62.197  1.00  0.00     0.270 C 
HETATM    9  O   UNL     1       8.675  30.686  62.501  1.00  0.00    -0.266 OA
HETATM   10  H   UNL     1       6.349  31.870  60.668  1.00  0.00     0.190 HD
BRANCH   8  11
HETATM   11  C   UNL     1       7.027  32.232  63.227  1.00  0.00     0.033 A 
HETATM   12  C   UNL     1       5.630  32.300  63.307  1.00  0.00     0.017 A 
HETATM   13  C   UNL     1       5.020  33.082  64.295  1.00  0.00     0.007 A 
HETATM   14  C   UNL     1       5.793  33.803  65.211  1.00  0.00    -0.062 A 
HETATM   15  C   UNL     1       5.142  34.669  66.249  1.00  0.00     0.048 C 
HETATM   16  C   UNL     1       7.188  33.754  65.113  1.00  0.00     0.007 A 
HETATM   17  C   UNL     1       7.800  32.973  64.129  1.00  0.00     0.017 A 
ENDBRANCH   8  11
ENDBRANCH   4   7
ENDBRANCH   2   3
ENDBRANCH   1   2
BRANCH   1  18
HETATM   18  C   UNL     1       7.562  27.874  57.136  1.00  0.00     0.185 A 
HETATM   19  N   UNL     1       8.642  27.152  57.275  1.00  0.00    -0.204 NA
HETATM   20  C   UNL     1       8.137  25.873  57.390  1.00  0.00     0.166 A 
HETATM   21  N   UNL     1       6.796  25.793  57.345  1.00  0.00    -0.155 NA
HETATM   22  N   UNL     1       6.458  27.081  57.160  1.00  0.00    -0.254 N 
HETATM   23  H   UNL     1       5.482  27.364  57.129  1.00  0.00     0.191 HD
BRANCH  20  24
HETATM   24  C   UNL     1       9.030  24.664  57.522  1.00  0.00     0.202 C 
BRANCH  24  25
HETATM   25  N   UNL     1       8.345  23.380  57.714  1.00  0.00    -0.383 N 
HETATM   26  H   UNL     1       7.502  23.486  58.273  1.00  0.00     0.160 HD
BRANCH  25  27
HETATM   27  C   UNL     1       8.187  22.489  56.653  1.00  0.00     0.028 A 
HETATM   28  C   UNL     1       8.030  22.888  55.319  1.00  0.00     0.036 A 
HETATM   29  C   UNL     1       7.949  21.951  54.274  1.00  0.00    -0.060 A 
HETATM   30  C   UNL     1       7.773  22.396  52.853  1.00  0.00     0.048 C 
HETATM   31  C   UNL     1       8.069  20.590  54.567  1.00  0.00     0.007 A 
HETATM   32  C   UNL     1       8.270  20.175  55.881  1.00  0.00     0.003 A 
HETATM   33  C   UNL     1       8.339  21.120  56.907  1.00  0.00     0.029 A 
ENDBRANCH  25  27
ENDBRANCH  24  25
ENDBRANCH  20  24
ENDBRANCH   1  18
TORSDOF 8
ENDMDL
MODEL 2
REMARK VINA RESULT:     -10.2      2.628     11.082
REMARK  8 active torsions:
REMARK  status: ('A' for Active; 'I' for Inactive)
REMARK    1  A    between atoms: C_5  and  C_6 
REMARK       I    between atoms: C_6  and  N_7 
REMARK    2  A    between atoms: N_7  and  N_8 
REMARK       I    between atoms: N_8  and  C_9 
REMARK    3  A    between atoms: C_9  and  C_10 
REMARK    4  A    between atoms: C_10  and  S_11 
REMARK    5  A    between atoms: S_11  and  C_12 
REMARK    6  A    between atoms: C_14  and  C_15 
REMARK    7  A    between atoms: C_15  and  N_16 
REMARK    8  A    between atoms: N_16  and  C_17 
ROOT
HETATM    1  S   UNL     1       5.655  30.334  55.976  1.00  0.00    -0.081 SA
ENDROOT
BRANCH   1   2
HETATM    2  C   UNL     1       4.374  29.117  56.399  1.00  0.00     0.187 C 
BRANCH   2   3
HETATM    3  C   UNL     1       4.571  27.786  55.689  1.00  0.00     0.245 C 
HETATM    4  N   UNL     1       4.700  26.719  56.560  1.00  0.00    -0.267 N 
HETATM    5  H   UNL     1       4.930  26.851  57.547  1.00  0.00     0.190 HD
HETATM    6  O   UNL     1       4.619  27.637  54.466  1.00  0.00    -0.271 OA
BRANCH   4   7
HETATM    7  N   UNL     1       5.128  25.493  56.018  1.00  0.00    -0.263 N 
HETATM    8  C   UNL     1       6.492  25.274  55.973  1.00  0.00     0.270 C 
HETATM    9  O   UNL     1       7.287  26.047  56.505  1.00  0.00    -0.266 OA
HETATM   10  H   UNL     1       4.479  25.044  55.374  1.00  0.00     0.190 HD
BRANCH   8  11
HETATM   11  C   UNL     1       6.965  24.079  55.218  1.00  0.00     0.033 A 
HETATM   12  C   UNL     1       7.385  22.901  55.850  1.00  0.00     0.017 A 
HETATM   13  C   UNL     1       7.820  21.812  55.087  1.00  0.00     0.007 A 
HETATM   14  C   UNL     1       7.843  21.883  53.690  1.00  0.00    -0.062 A 
HETATM   15  C   UNL     1       8.342  20.728  52.872  1.00  0.00     0.048 C 
HETATM   16  C   UNL     1       7.447  23.069  53.062  1.00  0.00     0.007 A 
HETATM   17  C   UNL     1       7.010  24.158  53.820  1.00  0.00     0.017 A 
ENDBRANCH   8  11
ENDBRANCH   4   7
ENDBRANCH   2   3
ENDBRANCH   1   2
BRANCH   1  18
HETATM   18  C   UNL     1       6.758  30.086  57.274  1.00  0.00     0.185 A 
HETATM   19  N   UNL     1       7.074  30.923  58.226  1.00  0.00    -0.204 NA
HETATM   20  C   UNL     1       7.968  30.194  58.984  1.00  0.00     0.166 A 
HETATM   21  N   UNL     1       8.190  28.944  58.541  1.00  0.00    -0.155 NA
HETATM   22  N   UNL     1       7.422  28.911  57.438  1.00  0.00    -0.254 N 
HETATM   23  H   UNL     1       7.338  28.061  56.888  1.00  0.00     0.191 HD
BRANCH  20  24
HETATM   24  C   UNL     1       8.659  30.775  60.193  1.00  0.00     0.202 C 
BRANCH  24  25
HETATM   25  N   UNL     1       7.931  30.662  61.463  1.00  0.00    -0.383 N 
HETATM   26  H   UNL     1       8.428  30.075  62.128  1.00  0.00     0.160 HD
BRANCH  25  27
HETATM   27  C   UNL     1       7.348  31.782  62.053  1.00  0.00     0.028 A 
HETATM   28  C   UNL     1       7.643  32.220  63.351  1.00  0.00     0.036 A 
HETATM   29  C   UNL     1       7.085  33.399  63.876  1.00  0.00    -0.060 A 
HETATM   30  C   UNL     1       7.406  33.847  65.271  1.00  0.00     0.048 C 
HETATM   31  C   UNL     1       6.250  34.176  63.070  1.00  0.00     0.007 A 
HETATM   32  C   UNL     1       5.980  33.783  61.763  1.00  0.00     0.003 A 
HETATM   33  C   UNL     1       6.535  32.604  61.261  1.00  0.00     0.029 A 
ENDBRANCH  25  27
ENDBRANCH  24  25
ENDBRANCH  20  24
ENDBRANCH   1  18
TORSDOF 8
ENDMDL
MODEL 3
REMARK VINA RESULT:     -10.0      1.799      2.231
REMARK  8 active torsions:
REMARK  status: ('A' for Active; 'I' for Inactive)
REMARK    1  A    between atoms: C_5  and  C_6 
REMARK       I    between atoms: C_6  and  N_7 
REMARK    2  A    between atoms: N_7  and  N_8 
REMARK       I    between atoms: N_8  and  C_9 
REMARK    3  A    between atoms: C_9  and  C_10 
REMARK    4  A    between atoms: C_10  and  S_11 
REMARK    5  A    between atoms: S_11  and  C_12 
REMARK    6  A    between atoms: C_14  and  C_15 
REMARK    7  A    between atoms: C_15  and  N_16 
REMARK    8  A    between atoms: N_16  and  C_17 
ROOT
HETATM    1  S   UNL     1       8.715  29.361  56.015  1.00  0.00    -0.081 SA
ENDROOT
BRANCH   1   2
HETATM    2  C   UNL     1       8.743  28.985  57.792  1.00  0.00     0.187 C 
BRANCH   2   3
HETATM    3  C   UNL     1       7.920  29.967  58.613  1.00  0.00     0.245 C 
HETATM    4  N   UNL     1       8.361  30.086  59.919  1.00  0.00    -0.267 N 
HETATM    5  H   UNL     1       8.968  29.388  60.352  1.00  0.00     0.190 HD
HETATM    6  O   UNL     1       6.953  30.604  58.192  1.00  0.00    -0.271 OA
BRANCH   4   7
HETATM    7  N   UNL     1       7.527  30.775  60.820  1.00  0.00    -0.263 N 
HETATM    8  C   UNL     1       8.138  31.682  61.665  1.00  0.00     0.270 C 
HETATM    9  O   UNL     1       9.326  31.979  61.543  1.00  0.00    -0.266 OA
HETATM   10  H   UNL     1       6.652  30.309  61.056  1.00  0.00     0.190 HD
BRANCH   8  11
HETATM   11  C   UNL     1       7.306  32.262  62.758  1.00  0.00     0.033 A 
HETATM   12  C   UNL     1       5.905  32.241  62.735  1.00  0.00     0.017 A 
HETATM   13  C   UNL     1       5.177  32.802  63.789  1.00  0.00     0.007 A 
HETATM   14  C   UNL     1       5.834  33.390  64.876  1.00  0.00    -0.062 A 
HETATM   15  C   UNL     1       5.055  34.024  65.992  1.00  0.00     0.048 C 
HETATM   16  C   UNL     1       7.233  33.432  64.884  1.00  0.00     0.007 A 
HETATM   17  C   UNL     1       7.963  32.871  63.834  1.00  0.00     0.017 A 
ENDBRANCH   8  11
ENDBRANCH   4   7
ENDBRANCH   2   3
ENDBRANCH   1   2
BRANCH   1  18
HETATM   18  C   UNL     1       7.364  28.417  55.519  1.00  0.00     0.185 A 
HETATM   19  N   UNL     1       7.374  27.224  54.985  1.00  0.00    -0.204 NA
HETATM   20  C   UNL     1       6.030  26.957  54.820  1.00  0.00     0.166 A 
HETATM   21  N   UNL     1       5.207  27.929  55.251  1.00  0.00    -0.155 NA
HETATM   22  N   UNL     1       6.086  28.856  55.671  1.00  0.00    -0.254 N 
HETATM   23  H   UNL     1       5.767  29.718  56.104  1.00  0.00     0.191 HD
BRANCH  20  24
HETATM   24  C   UNL     1       5.536  25.684  54.177  1.00  0.00     0.202 C 
BRANCH  24  25
HETATM   25  N   UNL     1       6.538  24.910  53.435  1.00  0.00    -0.383 N 
HETATM   26  H   UNL     1       7.281  25.506  53.079  1.00  0.00     0.160 HD
BRANCH  25  27
HETATM   27  C   UNL     1       7.005  23.692  53.926  1.00  0.00     0.028 A 
HETATM   28  C   UNL     1       7.481  22.655  53.112  1.00  0.00     0.036 A 
HETATM   29  C   UNL     1       8.011  21.473  53.657  1.00  0.00    -0.060 A 
HETATM   30  C   UNL     1       8.508  20.371  52.769  1.00  0.00     0.048 C 
HETATM   31  C   UNL     1       8.106  21.344  55.045  1.00  0.00     0.007 A 
HETATM   32  C   UNL     1       7.681  22.380  55.872  1.00  0.00     0.003 A 
HETATM   33  C   UNL     1       7.148  23.544  55.312  1.00  0.00     0.029 A 
ENDBRANCH  25  27
ENDBRANCH  24  25
ENDBRANCH  20  24
ENDBRANCH   1  18
TORSDOF 8
ENDMDL
MODEL 4
REMARK VINA RESULT:      -9.9      2.720     11.110
REMARK  8 active torsions:
REMARK  status: ('A' for Active; 'I' for Inactive)
REMARK    1  A    between atoms: C_5  and  C_6 
REMARK       I    between atoms: C_6  and  N_7 
REMARK    2  A    between atoms: N_7  and  N_8 
REMARK       I    between atoms: N_8  and  C_9 
REMARK    3  A    between atoms: C_9  and  C_10 
REMARK    4  A    between atoms: C_10  and  S_11 
REMARK    5  A    between atoms: S_11  and  C_12 
REMARK    6  A    between atoms: C_14  and  C_15 
REMARK    7  A    between atoms: C_15  and  N_16 
REMARK    8  A    between atoms: N_16  and  C_17 
ROOT
HETATM    1  S   UNL     1       5.577  30.531  56.909  1.00  0.00    -0.081 SA
ENDROOT
BRANCH   1   2
HETATM    2  C   UNL     1       7.118  30.054  57.745  1.00  0.00     0.187 C 
BRANCH   2   3
HETATM    3  C   UNL     1       7.640  28.701  57.287  1.00  0.00     0.245 C 
HETATM    4  N   UNL     1       6.790  28.061  56.402  1.00  0.00    -0.267 N 
HETATM    5  H   UNL     1       5.809  28.329  56.304  1.00  0.00     0.190 HD
HETATM    6  O   UNL     1       8.704  28.194  57.649  1.00  0.00    -0.271 OA
BRANCH   4   7
HETATM    7  N   UNL     1       7.059  26.711  56.112  1.00  0.00    -0.263 N 
HETATM    8  C   UNL     1       7.476  26.421  54.826  1.00  0.00     0.270 C 
HETATM    9  O   UNL     1       7.736  27.309  54.016  1.00  0.00    -0.266 OA
HETATM   10  H   UNL     1       6.582  26.030  56.700  1.00  0.00     0.190 HD
BRANCH   8  11
HETATM   11  C   UNL     1       7.564  24.982  54.448  1.00  0.00     0.033 A 
HETATM   12  C   UNL     1       7.470  23.945  55.386  1.00  0.00     0.017 A 
HETATM   13  C   UNL     1       7.561  22.612  54.971  1.00  0.00     0.007 A 
HETATM   14  C   UNL     1       7.746  22.296  53.620  1.00  0.00    -0.062 A 
HETATM   15  C   UNL     1       7.879  20.868  53.177  1.00  0.00     0.048 C 
HETATM   16  C   UNL     1       7.864  23.334  52.689  1.00  0.00     0.007 A 
HETATM   17  C   UNL     1       7.772  24.666  53.099  1.00  0.00     0.017 A 
ENDBRANCH   8  11
ENDBRANCH   4   7
ENDBRANCH   2   3
ENDBRANCH   1   2
BRANCH   1  18
HETATM   18  C   UNL     1       4.620  30.994  58.262  1.00  0.00     0.185 A 
HETATM   19  N   UNL     1       4.880  31.920  59.147  1.00  0.00    -0.204 NA
HETATM   20  C   UNL     1       3.774  31.870  59.970  1.00  0.00     0.166 A 
HETATM   21  N   UNL     1       2.846  30.966  59.609  1.00  0.00    -0.155 NA
HETATM   22  N   UNL     1       3.423  30.408  58.530  1.00  0.00    -0.254 N 
HETATM   23  H   UNL     1       2.937  29.699  57.989  1.00  0.00     0.191 HD
BRANCH  20  24
HETATM   24  C   UNL     1       3.641  32.742  61.195  1.00  0.00     0.202 C 
BRANCH  24  25
HETATM   25  N   UNL     1       4.055  32.131  62.464  1.00  0.00    -0.383 N 
HETATM   26  H   UNL     1       3.752  31.163  62.528  1.00  0.00     0.160 HD
BRANCH  25  27
HETATM   27  C   UNL     1       5.337  32.337  62.970  1.00  0.00     0.028 A 
HETATM   28  C   UNL     1       6.509  31.986  62.287  1.00  0.00     0.036 A 
HETATM   29  C   UNL     1       7.782  32.281  62.806  1.00  0.00    -0.060 A 
HETATM   30  C   UNL     1       9.026  31.890  62.064  1.00  0.00     0.048 C 
HETATM   31  C   UNL     1       7.881  32.979  64.013  1.00  0.00     0.007 A 
HETATM   32  C   UNL     1       6.730  33.376  64.685  1.00  0.00     0.003 A 
HETATM   33  C   UNL     1       5.473  33.066  64.159  1.00  0.00     0.029 A 
ENDBRANCH  25  27
ENDBRANCH  24  25
ENDBRANCH  20  24
ENDBRANCH   1  18
TORSDOF 8
ENDMDL
MODEL 5
REMARK VINA RESULT:      -9.8      1.352      2.313
REMARK  8 active torsions:
REMARK  status: ('A' for Active; 'I' for Inactive)
REMARK    1  A    between atoms: C_5  and  C_6 
REMARK       I    between atoms: C_6  and  N_7 
REMARK    2  A    between atoms: N_7  and  N_8 
REMARK       I    between atoms: N_8  and  C_9 
REMARK    3  A    between atoms: C_9  and  C_10 
REMARK    4  A    between atoms: C_10  and  S_11 
REMARK    5  A    between atoms: S_11  and  C_12 
REMARK    6  A    between atoms: C_14  and  C_15 
REMARK    7  A    between atoms: C_15  and  N_16 
REMARK    8  A    between atoms: N_16  and  C_17 
ROOT
HETATM    1  S   UNL     1       7.720  30.771  58.293  1.00  0.00    -0.081 SA
ENDROOT
BRANCH   1   2
HETATM    2  C   UNL     1       9.157  30.388  59.335  1.00  0.00     0.187 C 
BRANCH   2   3
HETATM    3  C   UNL     1       8.892  30.632  60.813  1.00  0.00     0.245 C 
HETATM    4  N   UNL     1       7.546  30.723  61.117  1.00  0.00    -0.267 N 
HETATM    5  H   UNL     1       6.840  30.901  60.399  1.00  0.00     0.190 HD
HETATM    6  O   UNL     1       9.763  30.745  61.679  1.00  0.00    -0.271 OA
BRANCH   4   7
HETATM    7  N   UNL     1       7.204  31.189  62.400  1.00  0.00    -0.263 N 
HETATM    8  C   UNL     1       6.423  32.328  62.462  1.00  0.00     0.270 C 
HETATM    9  O   UNL     1       5.933  32.830  61.452  1.00  0.00    -0.266 OA
HETATM   10  H   UNL     1       7.835  30.915  63.151  1.00  0.00     0.190 HD
BRANCH   8  11
HETATM   11  C   UNL     1       6.228  32.947  63.804  1.00  0.00     0.033 A 
HETATM   12  C   UNL     1       7.297  33.274  64.649  1.00  0.00     0.017 A 
HETATM   13  C   UNL     1       7.052  33.852  65.900  1.00  0.00     0.007 A 
HETATM   14  C   UNL     1       5.743  34.110  66.322  1.00  0.00    -0.062 A 
HETATM   15  C   UNL     1       5.477  34.698  67.677  1.00  0.00     0.048 C 
HETATM   16  C   UNL     1       4.677  33.760  65.487  1.00  0.00     0.007 A 
HETATM   17  C   UNL     1       4.918  33.184  64.237  1.00  0.00     0.017 A 
ENDBRANCH   8  11
ENDBRANCH   4   7
ENDBRANCH   2   3
ENDBRANCH   1   2
BRANCH   1  18
HETATM   18  C   UNL     1       7.259  29.187  57.806  1.00  0.00     0.185 A 
HETATM   19  N   UNL     1       8.036  28.159  57.586  1.00  0.00    -0.204 NA
HETATM   20  C   UNL     1       7.137  27.166  57.252  1.00  0.00     0.166 A 
HETATM   21  N   UNL     1       5.847  27.546  57.280  1.00  0.00    -0.155 NA
HETATM   22  N   UNL     1       5.957  28.844  57.614  1.00  0.00    -0.254 N 
HETATM   23  H   UNL     1       5.130  29.415  57.762  1.00  0.00     0.191 HD
BRANCH  20  24
HETATM   24  C   UNL     1       7.578  25.779  56.858  1.00  0.00     0.202 C 
BRANCH  24  25
HETATM   25  N   UNL     1       6.755  25.109  55.844  1.00  0.00    -0.383 N 
HETATM   26  H   UNL     1       6.294  25.779  55.234  1.00  0.00     0.160 HD
BRANCH  25  27
HETATM   27  C   UNL     1       7.231  23.989  55.164  1.00  0.00     0.028 A 
HETATM   28  C   UNL     1       7.507  22.762  55.781  1.00  0.00     0.036 A 
HETATM   29  C   UNL     1       7.915  21.639  55.040  1.00  0.00    -0.060 A 
HETATM   30  C   UNL     1       8.214  20.336  55.719  1.00  0.00     0.048 C 
HETATM   31  C   UNL     1       8.008  21.736  53.649  1.00  0.00     0.007 A 
HETATM   32  C   UNL     1       7.695  22.933  53.011  1.00  0.00     0.003 A 
HETATM   33  C   UNL     1       7.300  24.042  53.765  1.00  0.00     0.029 A 
ENDBRANCH  25  27
ENDBRANCH  24  25
ENDBRANCH  20  24
ENDBRANCH   1  18
TORSDOF 8
ENDMDL
MODEL 6
REMARK VINA RESULT:      -9.8      2.218      2.989
REMARK  8 active torsions:
REMARK  status: ('A' for Active; 'I' for Inactive)
REMARK    1  A    between atoms: C_5  and  C_6 
REMARK       I    between atoms: C_6  and  N_7 
REMARK    2  A    between atoms: N_7  and  N_8 
REMARK       I    between atoms: N_8  and  C_9 
REMARK    3  A    between atoms: C_9  and  C_10 
REMARK    4  A    between atoms: C_10  and  S_11 
REMARK    5  A    between atoms: S_11  and  C_12 
REMARK    6  A    between atoms: C_14  and  C_15 
REMARK    7  A    between atoms: C_15  and  N_16 
REMARK    8  A    between atoms: N_16  and  C_17 
ROOT
HETATM    1  S   UNL     1       3.880  29.577  56.134  1.00  0.00    -0.081 SA
ENDROOT
BRANCH   1   2
HETATM    2  C   UNL     1       5.264  30.750  56.042  1.00  0.00     0.187 C 
BRANCH   2   3
HETATM    3  C   UNL     1       5.399  31.598  57.298  1.00  0.00     0.245 C 
HETATM    4  N   UNL     1       6.028  30.935  58.337  1.00  0.00    -0.267 N 
HETATM    5  H   UNL     1       6.119  29.917  58.353  1.00  0.00     0.190 HD
HETATM    6  O   UNL     1       4.999  32.758  57.416  1.00  0.00    -0.271 OA
BRANCH   4   7
HETATM    7  N   UNL     1       5.983  31.537  59.608  1.00  0.00    -0.263 N 
HETATM    8  C   UNL     1       7.139  32.156  60.045  1.00  0.00     0.270 C 
HETATM    9  O   UNL     1       8.114  32.298  59.308  1.00  0.00    -0.266 OA
HETATM   10  H   UNL     1       5.285  31.164  60.249  1.00  0.00     0.190 HD
BRANCH   8  11
HETATM   11  C   UNL     1       7.171  32.614  61.464  1.00  0.00     0.033 A 
HETATM   12  C   UNL     1       8.125  32.160  62.384  1.00  0.00     0.017 A 
HETATM   13  C   UNL     1       8.103  32.624  63.704  1.00  0.00     0.007 A 
HETATM   14  C   UNL     1       7.134  33.544  64.122  1.00  0.00    -0.062 A 
HETATM   15  C   UNL     1       7.089  34.016  65.545  1.00  0.00     0.048 C 
HETATM   16  C   UNL     1       6.168  33.976  63.206  1.00  0.00     0.007 A 
HETATM   17  C   UNL     1       6.187  33.516  61.888  1.00  0.00     0.017 A 
ENDBRANCH   8  11
ENDBRANCH   4   7
ENDBRANCH   2   3
ENDBRANCH   1   2
BRANCH   1  18
HETATM   18  C   UNL     1       4.704  28.101  55.811  1.00  0.00     0.185 A 
HETATM   19  N   UNL     1       5.534  27.844  54.835  1.00  0.00    -0.204 NA
HETATM   20  C   UNL     1       5.898  26.536  55.084  1.00  0.00     0.166 A 
HETATM   21  N   UNL     1       5.336  25.997  56.181  1.00  0.00    -0.155 NA
HETATM   22  N   UNL     1       4.564  27.010  56.611  1.00  0.00    -0.254 N 
HETATM   23  H   UNL     1       4.030  26.928  57.472  1.00  0.00     0.191 HD
BRANCH  20  24
HETATM   24  C   UNL     1       6.825  25.771  54.173  1.00  0.00     0.202 C 
BRANCH  24  25
HETATM   25  N   UNL     1       7.835  24.940  54.839  1.00  0.00    -0.383 N 
HETATM   26  H   UNL     1       7.886  25.140  55.835  1.00  0.00     0.160 HD
BRANCH  25  27
HETATM   27  C   UNL     1       7.945  23.581  54.550  1.00  0.00     0.028 A 
HETATM   28  C   UNL     1       8.034  22.582  55.529  1.00  0.00     0.036 A 
HETATM   29  C   UNL     1       8.067  21.218  55.190  1.00  0.00    -0.060 A 
HETATM   30  C   UNL     1       8.172  20.163  56.251  1.00  0.00     0.048 C 
HETATM   31  C   UNL     1       7.967  20.846  53.846  1.00  0.00     0.007 A 
HETATM   32  C   UNL     1       7.832  21.821  52.862  1.00  0.00     0.003 A 
HETATM   33  C   UNL     1       7.810  23.172  53.217  1.00  0.00     0.029 A 
ENDBRANCH  25  27
ENDBRANCH  24  25
ENDBRANCH  20  24
ENDBRANCH   1  18
TORSDOF 8
ENDMDL
MODEL 7
REMARK VINA RESULT:      -9.6      2.927     11.296
REMARK  8 active torsions:
REMARK  status: ('A' for Active; 'I' for Inactive)
REMARK    1  A    between atoms: C_5  and  C_6 
REMARK       I    between atoms: C_6  and  N_7 
REMARK    2  A    between atoms: N_7  and  N_8 
REMARK       I    between atoms: N_8  and  C_9 
REMARK    3  A    between atoms: C_9  and  C_10 
REMARK    4  A    between atoms: C_10  and  S_11 
REMARK    5  A    between atoms: S_11  and  C_12 
REMARK    6  A    between atoms: C_14  and  C_15 
REMARK    7  A    between atoms: C_15  and  N_16 
REMARK    8  A    between atoms: N_16  and  C_17 
ROOT
HETATM    1  S   UNL     1       5.312  30.556  56.725  1.00  0.00    -0.081 SA
ENDROOT
BRANCH   1   2
HETATM    2  C   UNL     1       6.434  29.338  57.471  1.00  0.00     0.187 C 
BRANCH   2   3
HETATM    3  C   UNL     1       6.257  27.943  56.891  1.00  0.00     0.245 C 
HETATM    4  N   UNL     1       7.440  27.390  56.435  1.00  0.00    -0.267 N 
HETATM    5  H   UNL     1       8.266  27.960  56.243  1.00  0.00     0.190 HD
HETATM    6  O   UNL     1       5.185  27.339  56.816  1.00  0.00    -0.271 OA
BRANCH   4   7
HETATM    7  N   UNL     1       7.348  26.216  55.664  1.00  0.00    -0.263 N 
HETATM    8  C   UNL     1       7.749  25.040  56.269  1.00  0.00     0.270 C 
HETATM    9  O   UNL     1       8.039  24.995  57.464  1.00  0.00    -0.266 OA
HETATM   10  H   UNL     1       7.370  26.348  54.654  1.00  0.00     0.190 HD
BRANCH   8  11
HETATM   11  C   UNL     1       7.853  23.830  55.404  1.00  0.00     0.033 A 
HETATM   12  C   UNL     1       7.891  22.529  55.923  1.00  0.00     0.017 A 
HETATM   13  C   UNL     1       7.992  21.432  55.060  1.00  0.00     0.007 A 
HETATM   14  C   UNL     1       8.055  21.617  53.675  1.00  0.00    -0.062 A 
HETATM   15  C   UNL     1       8.197  20.444  52.750  1.00  0.00     0.048 C 
HETATM   16  C   UNL     1       8.042  22.919  53.161  1.00  0.00     0.007 A 
HETATM   17  C   UNL     1       7.940  24.016  54.019  1.00  0.00     0.017 A 
ENDBRANCH   8  11
ENDBRANCH   4   7
ENDBRANCH   2   3
ENDBRANCH   1   2
BRANCH   1  18
HETATM   18  C   UNL     1       4.512  31.143  58.132  1.00  0.00     0.185 A 
HETATM   19  N   UNL     1       4.770  32.234  58.802  1.00  0.00    -0.204 NA
HETATM   20  C   UNL     1       3.817  32.209  59.800  1.00  0.00     0.166 A 
HETATM   21  N   UNL     1       2.980  31.157  59.748  1.00  0.00    -0.155 NA
HETATM   22  N   UNL     1       3.461  30.484  58.688  1.00  0.00    -0.254 N 
HETATM   23  H   UNL     1       3.003  29.640  58.356  1.00  0.00     0.191 HD
BRANCH  20  24
HETATM   24  C   UNL     1       3.748  33.264  60.876  1.00  0.00     0.202 C 
BRANCH  24  25
HETATM   25  N   UNL     1       4.984  34.022  61.109  1.00  0.00    -0.383 N 
HETATM   26  H   UNL     1       4.793  35.007  61.272  1.00  0.00     0.160 HD
BRANCH  25  27
HETATM   27  C   UNL     1       5.985  33.516  61.936  1.00  0.00     0.028 A 
HETATM   28  C   UNL     1       7.126  32.855  61.463  1.00  0.00     0.036 A 
HETATM   29  C   UNL     1       8.146  32.429  62.333  1.00  0.00    -0.060 A 
HETATM   30  C   UNL     1       9.356  31.715  61.809  1.00  0.00     0.048 C 
HETATM   31  C   UNL     1       8.039  32.708  63.698  1.00  0.00     0.007 A 
HETATM   32  C   UNL     1       6.935  33.403  64.183  1.00  0.00     0.003 A 
HETATM   33  C   UNL     1       5.927  33.811  63.305  1.00  0.00     0.029 A 
ENDBRANCH  25  27
ENDBRANCH  24  25
ENDBRANCH  20  24
ENDBRANCH   1  18
TORSDOF 8
ENDMDL
MODEL 8
REMARK VINA RESULT:      -9.6      3.167     11.676
REMARK  8 active torsions:
REMARK  status: ('A' for Active; 'I' for Inactive)
REMARK    1  A    between atoms: C_5  and  C_6 
REMARK       I    between atoms: C_6  and  N_7 
REMARK    2  A    between atoms: N_7  and  N_8 
REMARK       I    between atoms: N_8  and  C_9 
REMARK    3  A    between atoms: C_9  and  C_10 
REMARK    4  A    between atoms: C_10  and  S_11 
REMARK    5  A    between atoms: S_11  and  C_12 
REMARK    6  A    between atoms: C_14  and  C_15 
REMARK    7  A    between atoms: C_15  and  N_16 
REMARK    8  A    between atoms: N_16  and  C_17 
ROOT
HETATM    1  S   UNL     1       5.785  29.965  56.042  1.00  0.00    -0.081 SA
ENDROOT
BRANCH   1   2
HETATM    2  C   UNL     1       4.288  29.384  55.193  1.00  0.00     0.187 C 
BRANCH   2   3
HETATM    3  C   UNL     1       4.459  28.001  54.583  1.00  0.00     0.245 C 
HETATM    4  N   UNL     1       4.813  27.038  55.511  1.00  0.00    -0.267 N 
HETATM    5  H   UNL     1       5.199  27.282  56.425  1.00  0.00     0.190 HD
HETATM    6  O   UNL     1       4.308  27.730  53.390  1.00  0.00    -0.271 OA
BRANCH   4   7
HETATM    7  N   UNL     1       5.232  25.789  55.016  1.00  0.00    -0.263 N 
HETATM    8  C   UNL     1       6.461  25.327  55.449  1.00  0.00     0.270 C 
HETATM    9  O   UNL     1       7.095  25.907  56.328  1.00  0.00    -0.266 OA
HETATM   10  H   UNL     1       4.822  25.506  54.127  1.00  0.00     0.190 HD
BRANCH   8  11
HETATM   11  C   UNL     1       7.007  24.114  54.777  1.00  0.00     0.033 A 
HETATM   12  C   UNL     1       7.197  24.036  53.391  1.00  0.00     0.017 A 
HETATM   13  C   UNL     1       7.711  22.869  52.816  1.00  0.00     0.007 A 
HETATM   14  C   UNL     1       8.042  21.767  53.613  1.00  0.00    -0.062 A 
HETATM   15  C   UNL     1       8.562  20.502  52.995  1.00  0.00     0.048 C 
HETATM   16  C   UNL     1       7.828  21.839  54.994  1.00  0.00     0.007 A 
HETATM   17  C   UNL     1       7.316  23.003  55.571  1.00  0.00     0.017 A 
ENDBRANCH   8  11
ENDBRANCH   4   7
ENDBRANCH   2   3
ENDBRANCH   1   2
BRANCH   1  18
HETATM   18  C   UNL     1       5.082  30.820  57.360  1.00  0.00     0.185 A 
HETATM   19  N   UNL     1       5.687  31.316  58.407  1.00  0.00    -0.204 NA
HETATM   20  C   UNL     1       4.651  31.902  59.105  1.00  0.00     0.166 A 
HETATM   21  N   UNL     1       3.447  31.797  58.516  1.00  0.00    -0.155 NA
HETATM   22  N   UNL     1       3.749  31.084  57.416  1.00  0.00    -0.254 N 
HETATM   23  H   UNL     1       3.038  30.871  56.722  1.00  0.00     0.191 HD
BRANCH  20  24
HETATM   24  C   UNL     1       4.859  32.574  60.440  1.00  0.00     0.202 C 
BRANCH  24  25
HETATM   25  N   UNL     1       5.837  31.939  61.332  1.00  0.00    -0.383 N 
HETATM   26  H   UNL     1       6.648  31.604  60.819  1.00  0.00     0.160 HD
BRANCH  25  27
HETATM   27  C   UNL     1       6.167  32.519  62.556  1.00  0.00     0.028 A 
HETATM   28  C   UNL     1       5.222  32.912  63.512  1.00  0.00     0.036 A 
HETATM   29  C   UNL     1       5.607  33.423  64.764  1.00  0.00    -0.060 A 
HETATM   30  C   UNL     1       4.580  33.846  65.771  1.00  0.00     0.048 C 
HETATM   31  C   UNL     1       6.966  33.502  65.080  1.00  0.00     0.007 A 
HETATM   32  C   UNL     1       7.921  33.075  64.162  1.00  0.00     0.003 A 
HETATM   33  C   UNL     1       7.520  32.578  62.919  1.00  0.00     0.029 A 
ENDBRANCH  25  27
ENDBRANCH  24  25
ENDBRANCH  20  24
ENDBRANCH   1  18
TORSDOF 8
ENDMDL
MODEL 9
REMARK VINA RESULT:      -9.5      2.255     11.843
REMARK  8 active torsions:
REMARK  status: ('A' for Active; 'I' for Inactive)
REMARK    1  A    between atoms: C_5  and  C_6 
REMARK       I    between atoms: C_6  and  N_7 
REMARK    2  A    between atoms: N_7  and  N_8 
REMARK       I    between atoms: N_8  and  C_9 
REMARK    3  A    between atoms: C_9  and  C_10 
REMARK    4  A    between atoms: C_10  and  S_11 
REMARK    5  A    between atoms: S_11  and  C_12 
REMARK    6  A    between atoms: C_14  and  C_15 
REMARK    7  A    between atoms: C_15  and  N_16 
REMARK    8  A    between atoms: N_16  and  C_17 
ROOT
HETATM    1  S   UNL     1       8.462  29.388  57.555  1.00  0.00    -0.081 SA
ENDROOT
BRANCH   1   2
HETATM    2  C   UNL     1       6.696  28.989  57.408  1.00  0.00     0.187 C 
BRANCH   2   3
HETATM    3  C   UNL     1       6.438  27.787  56.511  1.00  0.00     0.245 C 
HETATM    4  N   UNL     1       6.543  26.579  57.178  1.00  0.00    -0.267 N 
HETATM    5  H   UNL     1       7.021  26.497  58.077  1.00  0.00     0.190 HD
HETATM    6  O   UNL     1       6.164  27.846  55.311  1.00  0.00    -0.271 OA
BRANCH   4   7
HETATM    7  N   UNL     1       6.566  25.411  56.394  1.00  0.00    -0.263 N 
HETATM    8  C   UNL     1       7.651  24.570  56.560  1.00  0.00     0.270 C 
HETATM    9  O   UNL     1       8.483  24.759  57.446  1.00  0.00    -0.266 OA
HETATM   10  H   UNL     1       6.029  25.448  55.529  1.00  0.00     0.190 HD
BRANCH   8  11
HETATM   11  C   UNL     1       7.792  23.443  55.595  1.00  0.00     0.033 A 
HETATM   12  C   UNL     1       7.956  22.113  56.004  1.00  0.00     0.017 A 
HETATM   13  C   UNL     1       8.086  21.096  55.051  1.00  0.00     0.007 A 
HETATM   14  C   UNL     1       8.054  21.392  53.683  1.00  0.00    -0.062 A 
HETATM   15  C   UNL     1       8.228  20.308  52.660  1.00  0.00     0.048 C 
HETATM   16  C   UNL     1       7.916  22.724  53.279  1.00  0.00     0.007 A 
HETATM   17  C   UNL     1       7.785  23.741  54.227  1.00  0.00     0.017 A 
ENDBRANCH   8  11
ENDBRANCH   4   7
ENDBRANCH   2   3
ENDBRANCH   1   2
BRANCH   1  18
HETATM   18  C   UNL     1       8.388  30.729  58.630  1.00  0.00     0.185 A 
HETATM   19  N   UNL     1       7.417  31.051  59.443  1.00  0.00    -0.204 NA
HETATM   20  C   UNL     1       7.905  32.182  60.064  1.00  0.00     0.166 A 
HETATM   21  N   UNL     1       9.140  32.548  59.674  1.00  0.00    -0.155 NA
HETATM   22  N   UNL     1       9.413  31.616  58.744  1.00  0.00    -0.254 N 
HETATM   23  H   UNL     1      10.317  31.592  58.281  1.00  0.00     0.191 HD
BRANCH  20  24
HETATM   24  C   UNL     1       7.097  32.959  61.074  1.00  0.00     0.202 C 
BRANCH  24  25
HETATM   25  N   UNL     1       6.798  32.258  62.329  1.00  0.00    -0.383 N 
HETATM   26  H   UNL     1       7.473  31.522  62.516  1.00  0.00     0.160 HD
BRANCH  25  27
HETATM   27  C   UNL     1       6.434  32.968  63.473  1.00  0.00     0.028 A 
HETATM   28  C   UNL     1       5.125  33.387  63.745  1.00  0.00     0.036 A 
HETATM   29  C   UNL     1       4.793  34.035  64.948  1.00  0.00    -0.060 A 
HETATM   30  C   UNL     1       3.388  34.484  65.218  1.00  0.00     0.048 C 
HETATM   31  C   UNL     1       5.784  34.228  65.915  1.00  0.00     0.007 A 
HETATM   32  C   UNL     1       7.081  33.779  65.683  1.00  0.00     0.003 A 
HETATM   33  C   UNL     1       7.394  33.146  64.478  1.00  0.00     0.029 A 
ENDBRANCH  25  27
ENDBRANCH  24  25
ENDBRANCH  20  24
ENDBRANCH   1  18
TORSDOF 8
ENDMDL
MODEL 10
REMARK VINA RESULT:      -9.4      2.593     11.129
REMARK  8 active torsions:
REMARK  status: ('A' for Active; 'I' for Inactive)
REMARK    1  A    between atoms: C_5  and  C_6 
REMARK       I    between atoms: C_6  and  N_7 
REMARK    2  A    between atoms: N_7  and  N_8 
REMARK       I    between atoms: N_8  and  C_9 
REMARK    3  A    between atoms: C_9  and  C_10 
REMARK    4  A    between atoms: C_10  and  S_11 
REMARK    5  A    between atoms: S_11  and  C_12 
REMARK    6  A    between atoms: C_14  and  C_15 
REMARK    7  A    between atoms: C_15  and  N_16 
REMARK    8  A    between atoms: N_16  and  C_17 
ROOT
HETATM    1  S   UNL     1       9.601  29.753  57.134  1.00  0.00    -0.081 SA
ENDROOT
BRANCH   1   2
HETATM    2  C   UNL     1       7.863  29.613  56.625  1.00  0.00     0.187 C 
BRANCH   2   3
HETATM    3  C   UNL     1       7.622  28.455  55.669  1.00  0.00     0.245 C 
HETATM    4  N   UNL     1       6.994  27.377  56.268  1.00  0.00    -0.267 N 
HETATM    5  H   UNL     1       6.966  27.262  57.282  1.00  0.00     0.190 HD
HETATM    6  O   UNL     1       7.943  28.441  54.479  1.00  0.00    -0.271 OA
BRANCH   4   7
HETATM    7  N   UNL     1       6.947  26.173  55.541  1.00  0.00    -0.263 N 
HETATM    8  C   UNL     1       7.742  25.138  55.999  1.00  0.00     0.270 C 
HETATM    9  O   UNL     1       8.351  25.215  57.065  1.00  0.00    -0.266 OA
HETATM   10  H   UNL     1       6.663  26.256  54.567  1.00  0.00     0.190 HD
BRANCH   8  11
HETATM   11  C   UNL     1       7.861  23.935  55.127  1.00  0.00     0.033 A 
HETATM   12  C   UNL     1       7.940  24.017  53.730  1.00  0.00     0.017 A 
HETATM   13  C   UNL     1       8.049  22.852  52.963  1.00  0.00     0.007 A 
HETATM   14  C   UNL     1       8.080  21.594  53.576  1.00  0.00    -0.062 A 
HETATM   15  C   UNL     1       8.162  20.342  52.754  1.00  0.00     0.048 C 
HETATM   16  C   UNL     1       7.976  21.514  54.970  1.00  0.00     0.007 A 
HETATM   17  C   UNL     1       7.868  22.675  55.739  1.00  0.00     0.017 A 
ENDBRANCH   8  11
ENDBRANCH   4   7
ENDBRANCH   2   3
ENDBRANCH   1   2
BRANCH   1  18
HETATM   18  C   UNL     1       9.417  30.528  58.659  1.00  0.00     0.185 A 
HETATM   19  N   UNL     1       8.840  30.055  59.732  1.00  0.00    -0.204 NA
HETATM   20  C   UNL     1       9.006  31.081  60.641  1.00  0.00     0.166 A 
HETATM   21  N   UNL     1       9.676  32.146  60.167  1.00  0.00    -0.155 NA
HETATM   22  N   UNL     1       9.906  31.774  58.895  1.00  0.00    -0.254 N 
HETATM   23  H   UNL     1      10.447  32.364  58.270  1.00  0.00     0.191 HD
BRANCH  20  24
HETATM   24  C   UNL     1       8.448  31.015  62.041  1.00  0.00     0.202 C 
BRANCH  24  25
HETATM   25  N   UNL     1       6.990  31.148  62.155  1.00  0.00    -0.383 N 
HETATM   26  H   UNL     1       6.642  30.716  63.007  1.00  0.00     0.160 HD
BRANCH  25  27
HETATM   27  C   UNL     1       6.358  32.354  61.857  1.00  0.00     0.028 A 
HETATM   28  C   UNL     1       5.375  32.494  60.868  1.00  0.00     0.036 A 
HETATM   29  C   UNL     1       4.712  33.715  60.655  1.00  0.00    -0.060 A 
HETATM   30  C   UNL     1       3.668  33.848  59.586  1.00  0.00     0.048 C 
HETATM   31  C   UNL     1       5.010  34.806  61.476  1.00  0.00     0.007 A 
HETATM   32  C   UNL     1       5.951  34.676  62.493  1.00  0.00     0.003 A 
HETATM   33  C   UNL     1       6.607  33.457  62.685  1.00  0.00     0.029 A 
ENDBRANCH  25  27
ENDBRANCH  24  25
ENDBRANCH  20  24
ENDBRANCH   1  18
TORSDOF 8
ENDMDL
