MODEL 1
REMARK VINA RESULT:      -9.8      0.000      0.000
REMARK  7 active torsions:
REMARK  status: ('A' for Active; 'I' for Inactive)
REMARK    1  A    between atoms: O_2  and  C_3 
REMARK    2  A    between atoms: C_6  and  C_7 
REMARK    3  A    between atoms: C_7  and  C_8 
REMARK       I    between atoms: C_8  and  N_9 
REMARK    4  A    between atoms: N_9  and  C_10 
REMARK    5  A    between atoms: C_10  and  C_11 
REMARK    6  A    between atoms: C_14  and  N_15 
REMARK       I    between atoms: N_15  and  C_16 
REMARK    7  A    between atoms: C_16  and  C_17 
ROOT
HETATM    1  C   UNL     1       7.306  29.371  57.863  1.00  0.00    -0.040 A 
HETATM    2  C   UNL     1       6.132  28.759  57.405  1.00  0.00     0.011 A 
HETATM    3  C   UNL     1       6.177  27.527  56.738  1.00  0.00     0.030 A 
HETATM    4  C   UNL     1       7.396  26.895  56.497  1.00  0.00     0.035 A 
HETATM    5  C   UNL     1       8.572  27.509  56.940  1.00  0.00     0.030 A 
HETATM    6  C   UNL     1       8.528  28.732  57.617  1.00  0.00     0.011 A 
ENDROOT
BRANCH   1   7
HETATM    7  C   UNL     1       7.291  30.717  58.545  1.00  0.00     0.161 C 
BRANCH   7   8
HETATM    8  N   UNL     1       7.821  30.675  59.891  1.00  0.00    -0.357 N 
HETATM    9  C   UNL     1       8.539  31.734  60.403  1.00  0.00     0.222 C 
HETATM   10  O   UNL     1       8.897  32.693  59.723  1.00  0.00    -0.273 OA
HETATM   11  H   UNL     1       7.421  30.008  60.535  1.00  0.00     0.162 HD
BRANCH   9  12
HETATM   12  C   UNL     1       8.828  31.643  61.893  1.00  0.00     0.141 C 
BRANCH  12  13
HETATM   13  C   UNL     1       7.726  32.150  62.802  1.00  0.00    -0.049 A 
HETATM   14  C   UNL     1       7.966  32.935  63.938  1.00  0.00     0.010 A 
HETATM   15  C   UNL     1       6.913  33.350  64.765  1.00  0.00     0.037 A 
HETATM   16  C   UNL     1       5.602  32.977  64.478  1.00  0.00     0.068 A 
HETATM   17  C   UNL     1       5.355  32.191  63.353  1.00  0.00     0.037 A 
HETATM   18  C   UNL     1       6.402  31.779  62.524  1.00  0.00     0.010 A 
BRANCH  16  19
HETATM   19  O   UNL     1       4.494  33.307  65.207  1.00  0.00    -0.356 OA
HETATM   20  C   UNL     1       4.692  34.172  66.318  1.00  0.00     0.210 C 
ENDBRANCH  16  19
ENDBRANCH  12  13
ENDBRANCH   9  12
ENDBRANCH   7   8
ENDBRANCH   1   7
BRANCH   4  21
HETATM   21  N   UNL     1       7.532  25.669  55.820  1.00  0.00    -0.321 N 
HETATM   22  C   UNL     1       7.414  25.414  54.465  1.00  0.00     0.279 C 
HETATM   23  O   UNL     1       7.146  26.245  53.603  1.00  0.00    -0.265 OA
HETATM   24  H   UNL     1       7.742  24.853  56.383  1.00  0.00     0.169 HD
BRANCH  22  25
HETATM   25  C   UNL     1       7.642  24.015  54.143  1.00  0.00     0.142 A 
HETATM   26  O   UNL     1       7.464  23.061  55.116  1.00  0.00    -0.317 OA
HETATM   27  C   UNL     1       7.745  21.858  54.551  1.00  0.00     0.143 A 
HETATM   28  C   UNL     1       8.098  22.013  53.232  1.00  0.00     0.027 A 
HETATM   29  C   UNL     1       8.033  23.403  52.967  1.00  0.00     0.045 A 
ENDBRANCH  22  25
ENDBRANCH   4  21
TORSDOF 7
ENDMDL
MODEL 2
REMARK VINA RESULT:      -9.4      1.759     10.824
REMARK  7 active torsions:
REMARK  status: ('A' for Active; 'I' for Inactive)
REMARK    1  A    between atoms: O_2  and  C_3 
REMARK    2  A    between atoms: C_6  and  C_7 
REMARK    3  A    between atoms: C_7  and  C_8 
REMARK       I    between atoms: C_8  and  N_9 
REMARK    4  A    between atoms: N_9  and  C_10 
REMARK    5  A    between atoms: C_10  and  C_11 
REMARK    6  A    between atoms: C_14  and  N_15 
REMARK       I    between atoms: N_15  and  C_16 
REMARK    7  A    between atoms: C_16  and  C_17 
ROOT
HETATM    1  C   UNL     1       7.841  28.916  56.025  1.00  0.00    -0.040 A 
HETATM    2  C   UNL     1       9.001  29.029  56.802  1.00  0.00     0.011 A 
HETATM    3  C   UNL     1       8.972  29.671  58.048  1.00  0.00     0.030 A 
HETATM    4  C   UNL     1       7.789  30.230  58.531  1.00  0.00     0.035 A 
HETATM    5  C   UNL     1       6.631  30.131  57.752  1.00  0.00     0.030 A 
HETATM    6  C   UNL     1       6.656  29.480  56.515  1.00  0.00     0.011 A 
ENDROOT
BRANCH   1   7
HETATM    7  C   UNL     1       7.852  28.269  54.662  1.00  0.00     0.161 C 
BRANCH   7   8
HETATM    8  N   UNL     1       7.080  27.046  54.609  1.00  0.00    -0.357 N 
HETATM    9  C   UNL     1       6.324  26.733  53.500  1.00  0.00     0.222 C 
HETATM   10  O   UNL     1       6.140  27.516  52.572  1.00  0.00    -0.273 OA
HETATM   11  H   UNL     1       7.326  26.305  55.250  1.00  0.00     0.162 HD
BRANCH   9  12
HETATM   12  C   UNL     1       5.760  25.320  53.496  1.00  0.00     0.141 C 
BRANCH  12  13
HETATM   13  C   UNL     1       6.745  24.225  53.851  1.00  0.00    -0.049 A 
HETATM   14  C   UNL     1       7.563  23.590  52.907  1.00  0.00     0.010 A 
HETATM   15  C   UNL     1       8.434  22.558  53.281  1.00  0.00     0.037 A 
HETATM   16  C   UNL     1       8.495  22.133  54.606  1.00  0.00     0.068 A 
HETATM   17  C   UNL     1       7.680  22.756  55.553  1.00  0.00     0.037 A 
HETATM   18  C   UNL     1       6.814  23.788  55.182  1.00  0.00     0.010 A 
BRANCH  16  19
HETATM   19  O   UNL     1       9.291  21.136  55.097  1.00  0.00    -0.356 OA
HETATM   20  C   UNL     1       8.936  20.598  56.364  1.00  0.00     0.210 C 
ENDBRANCH  16  19
ENDBRANCH  12  13
ENDBRANCH   9  12
ENDBRANCH   7   8
ENDBRANCH   1   7
BRANCH   4  21
HETATM   21  N   UNL     1       7.677  30.906  59.759  1.00  0.00    -0.321 N 
HETATM   22  C   UNL     1       8.325  32.056  60.173  1.00  0.00     0.279 C 
HETATM   23  O   UNL     1       9.147  32.688  59.517  1.00  0.00    -0.265 OA
HETATM   24  H   UNL     1       7.044  30.511  60.446  1.00  0.00     0.169 HD
BRANCH  22  25
HETATM   25  C   UNL     1       7.932  32.461  61.513  1.00  0.00     0.142 A 
HETATM   26  O   UNL     1       6.918  33.374  61.671  1.00  0.00    -0.317 OA
HETATM   27  C   UNL     1       6.763  33.572  63.007  1.00  0.00     0.143 A 
HETATM   28  C   UNL     1       7.654  32.802  63.715  1.00  0.00     0.027 A 
HETATM   29  C   UNL     1       8.409  32.086  62.754  1.00  0.00     0.045 A 
ENDBRANCH  22  25
ENDBRANCH   4  21
TORSDOF 7
ENDMDL
MODEL 3
REMARK VINA RESULT:      -9.3      3.191      9.936
REMARK  7 active torsions:
REMARK  status: ('A' for Active; 'I' for Inactive)
REMARK    1  A    between atoms: O_2  and  C_3 
REMARK    2  A    between atoms: C_6  and  C_7 
REMARK    3  A    between atoms: C_7  and  C_8 
REMARK       I    between atoms: C_8  and  N_9 
REMARK    4  A    between atoms: N_9  and  C_10 
REMARK    5  A    between atoms: C_10  and  C_11 
REMARK    6  A    between atoms: C_14  and  N_15 
REMARK       I    between atoms: N_15  and  C_16 
REMARK    7  A    between atoms: C_16  and  C_17 
ROOT
HETATM    1  C   UNL     1       4.449  28.770  54.951  1.00  0.00    -0.040 A 
HETATM    2  C   UNL     1       4.780  27.852  55.956  1.00  0.00     0.011 A 
HETATM    3  C   UNL     1       5.569  28.235  57.049  1.00  0.00     0.030 A 
HETATM    4  C   UNL     1       6.059  29.537  57.148  1.00  0.00     0.035 A 
HETATM    5  C   UNL     1       5.742  30.454  56.141  1.00  0.00     0.030 A 
HETATM    6  C   UNL     1       4.945  30.076  55.056  1.00  0.00     0.011 A 
ENDROOT
BRANCH   1   7
HETATM    7  C   UNL     1       3.639  28.373  53.742  1.00  0.00     0.161 C 
BRANCH   7   8
HETATM    8  N   UNL     1       3.819  26.987  53.370  1.00  0.00    -0.357 N 
HETATM    9  C   UNL     1       4.885  26.596  52.588  1.00  0.00     0.222 C 
HETATM   10  O   UNL     1       5.646  27.392  52.045  1.00  0.00    -0.273 OA
HETATM   11  H   UNL     1       3.339  26.285  53.916  1.00  0.00     0.162 HD
BRANCH   9  12
HETATM   12  C   UNL     1       5.070  25.090  52.475  1.00  0.00     0.141 C 
BRANCH  12  13
HETATM   13  C   UNL     1       6.108  24.491  53.401  1.00  0.00    -0.049 A 
HETATM   14  C   UNL     1       7.159  23.678  52.956  1.00  0.00     0.010 A 
HETATM   15  C   UNL     1       8.075  23.119  53.858  1.00  0.00     0.037 A 
HETATM   16  C   UNL     1       7.949  23.354  55.225  1.00  0.00     0.068 A 
HETATM   17  C   UNL     1       6.903  24.157  55.679  1.00  0.00     0.037 A 
HETATM   18  C   UNL     1       5.990  24.718  54.780  1.00  0.00     0.010 A 
BRANCH  16  19
HETATM   19  O   UNL     1       8.766  22.862  56.205  1.00  0.00    -0.356 OA
HETATM   20  C   UNL     1       8.516  21.532  56.639  1.00  0.00     0.210 C 
ENDBRANCH  16  19
ENDBRANCH  12  13
ENDBRANCH   9  12
ENDBRANCH   7   8
ENDBRANCH   1   7
BRANCH   4  21
HETATM   21  N   UNL     1       6.871  30.000  58.200  1.00  0.00    -0.321 N 
HETATM   22  C   UNL     1       8.239  30.200  58.209  1.00  0.00     0.279 C 
HETATM   23  O   UNL     1       8.999  29.984  57.271  1.00  0.00    -0.265 OA
HETATM   24  H   UNL     1       6.409  30.217  59.077  1.00  0.00     0.169 HD
BRANCH  22  25
HETATM   25  C   UNL     1       8.716  30.707  59.486  1.00  0.00     0.142 A 
HETATM   26  O   UNL     1       8.689  29.889  60.589  1.00  0.00    -0.317 OA
HETATM   27  C   UNL     1       9.179  30.609  61.632  1.00  0.00     0.143 A 
HETATM   28  C   UNL     1       9.528  31.874  61.225  1.00  0.00     0.027 A 
HETATM   29  C   UNL     1       9.229  31.940  59.842  1.00  0.00     0.045 A 
ENDBRANCH  22  25
ENDBRANCH   4  21
TORSDOF 7
ENDMDL
MODEL 4
REMARK VINA RESULT:      -8.6      1.743     10.867
REMARK  7 active torsions:
REMARK  status: ('A' for Active; 'I' for Inactive)
REMARK    1  A    between atoms: O_2  and  C_3 
REMARK    2  A    between atoms: C_6  and  C_7 
REMARK    3  A    between atoms: C_7  and  C_8 
REMARK       I    between atoms: C_8  and  N_9 
REMARK    4  A    between atoms: N_9  and  C_10 
REMARK    5  A    between atoms: C_10  and  C_11 
REMARK    6  A    between atoms: C_14  and  N_15 
REMARK       I    between atoms: N_15  and  C_16 
REMARK    7  A    between atoms: C_16  and  C_17 
ROOT
HETATM    1  C   UNL     1       8.398  29.841  57.324  1.00  0.00    -0.040 A 
HETATM    2  C   UNL     1       7.053  30.157  57.559  1.00  0.00     0.011 A 
HETATM    3  C   UNL     1       6.661  30.791  58.747  1.00  0.00     0.030 A 
HETATM    4  C   UNL     1       7.600  31.101  59.729  1.00  0.00     0.035 A 
HETATM    5  C   UNL     1       8.942  30.775  59.505  1.00  0.00     0.030 A 
HETATM    6  C   UNL     1       9.336  30.154  58.316  1.00  0.00     0.011 A 
ENDROOT
BRANCH   1   7
HETATM    7  C   UNL     1       8.842  29.120  56.076  1.00  0.00     0.161 C 
BRANCH   7   8
HETATM    8  N   UNL     1       7.960  28.035  55.704  1.00  0.00    -0.357 N 
HETATM    9  C   UNL     1       7.904  26.879  56.453  1.00  0.00     0.222 C 
HETATM   10  O   UNL     1       8.684  26.636  57.370  1.00  0.00    -0.273 OA
HETATM   11  H   UNL     1       7.192  28.243  55.081  1.00  0.00     0.162 HD
BRANCH   9  12
HETATM   12  C   UNL     1       6.773  25.934  56.076  1.00  0.00     0.141 C 
BRANCH  12  13
HETATM   13  C   UNL     1       7.198  24.533  55.686  1.00  0.00    -0.049 A 
HETATM   14  C   UNL     1       7.750  23.616  56.590  1.00  0.00     0.010 A 
HETATM   15  C   UNL     1       8.159  22.343  56.171  1.00  0.00     0.037 A 
HETATM   16  C   UNL     1       8.033  21.967  54.835  1.00  0.00     0.068 A 
HETATM   17  C   UNL     1       7.489  22.875  53.926  1.00  0.00     0.037 A 
HETATM   18  C   UNL     1       7.077  24.144  54.343  1.00  0.00     0.010 A 
BRANCH  16  19
HETATM   19  O   UNL     1       8.401  20.764  54.299  1.00  0.00    -0.356 OA
HETATM   20  C   UNL     1       8.134  20.571  52.917  1.00  0.00     0.210 C 
ENDBRANCH  16  19
ENDBRANCH  12  13
ENDBRANCH   9  12
ENDBRANCH   7   8
ENDBRANCH   1   7
BRANCH   4  21
HETATM   21  N   UNL     1       7.289  31.719  60.954  1.00  0.00    -0.321 N 
HETATM   22  C   UNL     1       7.681  31.351  62.229  1.00  0.00     0.279 C 
HETATM   23  O   UNL     1       8.376  30.380  62.511  1.00  0.00    -0.265 OA
HETATM   24  H   UNL     1       6.699  32.543  60.918  1.00  0.00     0.169 HD
BRANCH  22  25
HETATM   25  C   UNL     1       7.169  32.254  63.247  1.00  0.00     0.142 A 
HETATM   26  O   UNL     1       5.813  32.350  63.444  1.00  0.00    -0.317 OA
HETATM   27  C   UNL     1       5.617  33.256  64.437  1.00  0.00     0.143 A 
HETATM   28  C   UNL     1       6.818  33.746  64.889  1.00  0.00     0.027 A 
HETATM   29  C   UNL     1       7.820  33.102  64.123  1.00  0.00     0.045 A 
ENDBRANCH  22  25
ENDBRANCH   4  21
TORSDOF 7
ENDMDL
MODEL 5
REMARK VINA RESULT:      -8.6      2.063     11.109
REMARK  7 active torsions:
REMARK  status: ('A' for Active; 'I' for Inactive)
REMARK    1  A    between atoms: O_2  and  C_3 
REMARK    2  A    between atoms: C_6  and  C_7 
REMARK    3  A    between atoms: C_7  and  C_8 
REMARK       I    between atoms: C_8  and  N_9 
REMARK    4  A    between atoms: N_9  and  C_10 
REMARK    5  A    between atoms: C_10  and  C_11 
REMARK    6  A    between atoms: C_14  and  N_15 
REMARK       I    between atoms: N_15  and  C_16 
REMARK    7  A    between atoms: C_16  and  C_17 
ROOT
HETATM    1  C   UNL     1       8.418  30.980  60.020  1.00  0.00    -0.040 A 
HETATM    2  C   UNL     1       7.323  31.837  59.848  1.00  0.00     0.011 A 
HETATM    3  C   UNL     1       6.759  32.512  60.939  1.00  0.00     0.030 A 
HETATM    4  C   UNL     1       7.267  32.328  62.225  1.00  0.00     0.035 A 
HETATM    5  C   UNL     1       8.352  31.464  62.404  1.00  0.00     0.030 A 
HETATM    6  C   UNL     1       8.922  30.799  61.314  1.00  0.00     0.011 A 
ENDROOT
BRANCH   1   7
HETATM    7  C   UNL     1       9.016  30.207  58.871  1.00  0.00     0.161 C 
BRANCH   7   8
HETATM    8  N   UNL     1       8.035  29.440  58.133  1.00  0.00    -0.357 N 
HETATM    9  C   UNL     1       8.344  28.884  56.910  1.00  0.00     0.222 C 
HETATM   10  O   UNL     1       9.391  29.119  56.312  1.00  0.00    -0.273 OA
HETATM   11  H   UNL     1       7.240  29.077  58.640  1.00  0.00     0.162 HD
BRANCH   9  12
HETATM   12  C   UNL     1       7.298  27.921  56.370  1.00  0.00     0.141 C 
BRANCH  12  13
HETATM   13  C   UNL     1       7.695  26.459  56.375  1.00  0.00    -0.049 A 
HETATM   14  C   UNL     1       8.389  25.853  57.431  1.00  0.00     0.010 A 
HETATM   15  C   UNL     1       8.763  24.504  57.372  1.00  0.00     0.037 A 
HETATM   16  C   UNL     1       8.461  23.738  56.249  1.00  0.00     0.068 A 
HETATM   17  C   UNL     1       7.775  24.333  55.190  1.00  0.00     0.037 A 
HETATM   18  C   UNL     1       7.398  25.678  55.248  1.00  0.00     0.010 A 
BRANCH  16  19
HETATM   19  O   UNL     1       8.777  22.420  56.064  1.00  0.00    -0.356 OA
HETATM   20  C   UNL     1       9.294  22.059  54.790  1.00  0.00     0.210 C 
ENDBRANCH  16  19
ENDBRANCH  12  13
ENDBRANCH   9  12
ENDBRANCH   7   8
ENDBRANCH   1   7
BRANCH   4  21
HETATM   21  N   UNL     1       6.750  32.952  63.376  1.00  0.00    -0.321 N 
HETATM   22  C   UNL     1       5.550  32.713  64.022  1.00  0.00     0.279 C 
HETATM   23  O   UNL     1       4.701  31.899  63.673  1.00  0.00    -0.265 OA
HETATM   24  H   UNL     1       7.318  33.677  63.801  1.00  0.00     0.169 HD
BRANCH  22  25
HETATM   25  C   UNL     1       5.377  33.552  65.196  1.00  0.00     0.142 A 
HETATM   26  O   UNL     1       6.427  33.722  66.065  1.00  0.00    -0.317 OA
HETATM   27  C   UNL     1       5.994  34.537  67.061  1.00  0.00     0.143 A 
HETATM   28  C   UNL     1       4.686  34.902  66.852  1.00  0.00     0.027 A 
HETATM   29  C   UNL     1       4.286  34.268  65.651  1.00  0.00     0.045 A 
ENDBRANCH  22  25
ENDBRANCH   4  21
TORSDOF 7
ENDMDL
MODEL 6
REMARK VINA RESULT:      -8.1      7.077     10.485
REMARK  7 active torsions:
REMARK  status: ('A' for Active; 'I' for Inactive)
REMARK    1  A    between atoms: O_2  and  C_3 
REMARK    2  A    between atoms: C_6  and  C_7 
REMARK    3  A    between atoms: C_7  and  C_8 
REMARK       I    between atoms: C_8  and  N_9 
REMARK    4  A    between atoms: N_9  and  C_10 
REMARK    5  A    between atoms: C_10  and  C_11 
REMARK    6  A    between atoms: C_14  and  N_15 
REMARK       I    between atoms: N_15  and  C_16 
REMARK    7  A    between atoms: C_16  and  C_17 
ROOT
HETATM    1  C   UNL     1       4.550  27.827  54.063  1.00  0.00    -0.040 A 
HETATM    2  C   UNL     1       4.467  26.971  52.957  1.00  0.00     0.011 A 
HETATM    3  C   UNL     1       5.060  25.701  52.984  1.00  0.00     0.030 A 
HETATM    4  C   UNL     1       5.763  25.271  54.109  1.00  0.00     0.035 A 
HETATM    5  C   UNL     1       5.860  26.127  55.211  1.00  0.00     0.030 A 
HETATM    6  C   UNL     1       5.259  27.389  55.189  1.00  0.00     0.011 A 
ENDROOT
BRANCH   1   7
HETATM    7  C   UNL     1       3.960  29.215  54.045  1.00  0.00     0.161 C 
BRANCH   7   8
HETATM    8  N   UNL     1       3.049  29.429  52.941  1.00  0.00    -0.357 N 
HETATM    9  C   UNL     1       3.257  30.451  52.040  1.00  0.00     0.222 C 
HETATM   10  O   UNL     1       4.116  31.315  52.192  1.00  0.00    -0.273 OA
HETATM   11  H   UNL     1       2.444  28.666  52.673  1.00  0.00     0.162 HD
BRANCH   9  12
HETATM   12  C   UNL     1       2.357  30.407  50.814  1.00  0.00     0.141 C 
BRANCH  12  13
HETATM   13  C   UNL     1       2.700  29.340  49.793  1.00  0.00    -0.049 A 
HETATM   14  C   UNL     1       3.990  29.154  49.278  1.00  0.00     0.010 A 
HETATM   15  C   UNL     1       4.248  28.174  48.309  1.00  0.00     0.037 A 
HETATM   16  C   UNL     1       3.217  27.370  47.829  1.00  0.00     0.068 A 
HETATM   17  C   UNL     1       1.928  27.552  48.331  1.00  0.00     0.037 A 
HETATM   18  C   UNL     1       1.669  28.526  49.301  1.00  0.00     0.010 A 
BRANCH  16  19
HETATM   19  O   UNL     1       3.334  26.390  46.883  1.00  0.00    -0.356 OA
HETATM   20  C   UNL     1       2.848  25.101  47.232  1.00  0.00     0.210 C 
ENDBRANCH  16  19
ENDBRANCH  12  13
ENDBRANCH   9  12
ENDBRANCH   7   8
ENDBRANCH   1   7
BRANCH   4  21
HETATM   21  N   UNL     1       6.402  24.022  54.212  1.00  0.00    -0.321 N 
HETATM   22  C   UNL     1       7.344  23.462  53.368  1.00  0.00     0.279 C 
HETATM   23  O   UNL     1       7.780  23.977  52.343  1.00  0.00    -0.265 OA
HETATM   24  H   UNL     1       6.149  23.439  55.003  1.00  0.00     0.169 HD
BRANCH  22  25
HETATM   25  C   UNL     1       7.785  22.153  53.820  1.00  0.00     0.142 A 
HETATM   26  O   UNL     1       7.592  21.792  55.132  1.00  0.00    -0.317 OA
HETATM   27  C   UNL     1       8.095  20.539  55.279  1.00  0.00     0.143 A 
HETATM   28  C   UNL     1       8.605  20.079  54.089  1.00  0.00     0.027 A 
HETATM   29  C   UNL     1       8.407  21.118  53.147  1.00  0.00     0.045 A 
ENDBRANCH  22  25
ENDBRANCH   4  21
TORSDOF 7
ENDMDL
MODEL 7
REMARK VINA RESULT:      -7.9      3.162     10.952
REMARK  7 active torsions:
REMARK  status: ('A' for Active; 'I' for Inactive)
REMARK    1  A    between atoms: O_2  and  C_3 
REMARK    2  A    between atoms: C_6  and  C_7 
REMARK    3  A    between atoms: C_7  and  C_8 
REMARK       I    between atoms: C_8  and  N_9 
REMARK    4  A    between atoms: N_9  and  C_10 
REMARK    5  A    between atoms: C_10  and  C_11 
REMARK    6  A    between atoms: C_14  and  N_15 
REMARK       I    between atoms: N_15  and  C_16 
REMARK    7  A    between atoms: C_16  and  C_17 
ROOT
HETATM    1  C   UNL     1       4.254  28.651  54.247  1.00  0.00    -0.040 A 
HETATM    2  C   UNL     1       3.729  29.950  54.252  1.00  0.00     0.011 A 
HETATM    3  C   UNL     1       3.685  30.704  55.433  1.00  0.00     0.030 A 
HETATM    4  C   UNL     1       4.145  30.166  56.635  1.00  0.00     0.035 A 
HETATM    5  C   UNL     1       4.658  28.865  56.638  1.00  0.00     0.030 A 
HETATM    6  C   UNL     1       4.713  28.117  55.458  1.00  0.00     0.011 A 
ENDROOT
BRANCH   1   7
HETATM    7  C   UNL     1       4.274  27.802  53.001  1.00  0.00     0.161 C 
BRANCH   7   8
HETATM    8  N   UNL     1       5.534  27.120  52.801  1.00  0.00    -0.357 N 
HETATM    9  C   UNL     1       5.582  25.751  52.646  1.00  0.00     0.222 C 
HETATM   10  O   UNL     1       4.607  25.023  52.813  1.00  0.00    -0.273 OA
HETATM   11  H   UNL     1       6.324  27.667  52.488  1.00  0.00     0.162 HD
BRANCH   9  12
HETATM   12  C   UNL     1       6.936  25.209  52.216  1.00  0.00     0.141 C 
BRANCH  12  13
HETATM   13  C   UNL     1       7.540  24.163  53.132  1.00  0.00    -0.049 A 
HETATM   14  C   UNL     1       7.755  22.834  52.745  1.00  0.00     0.010 A 
HETATM   15  C   UNL     1       8.285  21.896  53.642  1.00  0.00     0.037 A 
HETATM   16  C   UNL     1       8.600  22.269  54.947  1.00  0.00     0.068 A 
HETATM   17  C   UNL     1       8.383  23.589  55.343  1.00  0.00     0.037 A 
HETATM   18  C   UNL     1       7.858  24.527  54.448  1.00  0.00     0.010 A 
BRANCH  16  19
HETATM   19  O   UNL     1       9.111  21.452  55.917  1.00  0.00    -0.356 OA
HETATM   20  C   UNL     1       8.564  20.144  56.006  1.00  0.00     0.210 C 
ENDBRANCH  16  19
ENDBRANCH  12  13
ENDBRANCH   9  12
ENDBRANCH   7   8
ENDBRANCH   1   7
BRANCH   4  21
HETATM   21  N   UNL     1       4.120  30.845  57.867  1.00  0.00    -0.321 N 
HETATM   22  C   UNL     1       4.966  31.842  58.319  1.00  0.00     0.279 C 
HETATM   23  O   UNL     1       5.922  32.301  57.703  1.00  0.00    -0.265 OA
HETATM   24  H   UNL     1       3.394  30.581  58.524  1.00  0.00     0.169 HD
BRANCH  22  25
HETATM   25  C   UNL     1       4.608  32.311  59.648  1.00  0.00     0.142 A 
HETATM   26  O   UNL     1       5.494  33.091  60.350  1.00  0.00    -0.317 OA
HETATM   27  C   UNL     1       4.914  33.379  61.544  1.00  0.00     0.143 A 
HETATM   28  C   UNL     1       3.668  32.804  61.627  1.00  0.00     0.027 A 
HETATM   29  C   UNL     1       3.469  32.115  60.406  1.00  0.00     0.045 A 
ENDBRANCH  22  25
ENDBRANCH   4  21
TORSDOF 7
ENDMDL
MODEL 8
REMARK VINA RESULT:      -7.8      4.508     11.537
REMARK  7 active torsions:
REMARK  status: ('A' for Active; 'I' for Inactive)
REMARK    1  A    between atoms: O_2  and  C_3 
REMARK    2  A    between atoms: C_6  and  C_7 
REMARK    3  A    between atoms: C_7  and  C_8 
REMARK       I    between atoms: C_8  and  N_9 
REMARK    4  A    between atoms: N_9  and  C_10 
REMARK    5  A    between atoms: C_10  and  C_11 
REMARK    6  A    between atoms: C_14  and  N_15 
REMARK       I    between atoms: N_15  and  C_16 
REMARK    7  A    between atoms: C_16  and  C_17 
ROOT
HETATM    1  C   UNL     1       7.264  26.919  55.294  1.00  0.00    -0.040 A 
HETATM    2  C   UNL     1       7.498  26.336  56.546  1.00  0.00     0.011 A 
HETATM    3  C   UNL     1       7.626  27.128  57.696  1.00  0.00     0.030 A 
HETATM    4  C   UNL     1       7.544  28.517  57.612  1.00  0.00     0.035 A 
HETATM    5  C   UNL     1       7.323  29.105  56.362  1.00  0.00     0.030 A 
HETATM    6  C   UNL     1       7.183  28.316  55.217  1.00  0.00     0.011 A 
ENDROOT
BRANCH   1   7
HETATM    7  C   UNL     1       7.166  26.095  54.034  1.00  0.00     0.161 C 
BRANCH   7   8
HETATM    8  N   UNL     1       6.804  26.878  52.872  1.00  0.00    -0.357 N 
HETATM    9  C   UNL     1       5.496  26.950  52.446  1.00  0.00     0.222 C 
HETATM   10  O   UNL     1       4.598  26.256  52.917  1.00  0.00    -0.273 OA
HETATM   11  H   UNL     1       7.452  27.587  52.560  1.00  0.00     0.162 HD
BRANCH   9  12
HETATM   12  C   UNL     1       5.238  27.986  51.363  1.00  0.00     0.141 C 
BRANCH  12  13
HETATM   13  C   UNL     1       4.349  27.531  50.224  1.00  0.00    -0.049 A 
HETATM   14  C   UNL     1       4.576  26.358  49.491  1.00  0.00     0.010 A 
HETATM   15  C   UNL     1       3.742  25.999  48.424  1.00  0.00     0.037 A 
HETATM   16  C   UNL     1       2.671  26.812  48.062  1.00  0.00     0.068 A 
HETATM   17  C   UNL     1       2.440  27.985  48.781  1.00  0.00     0.037 A 
HETATM   18  C   UNL     1       3.269  28.343  49.849  1.00  0.00     0.010 A 
BRANCH  16  19
HETATM   19  O   UNL     1       1.794  26.580  47.039  1.00  0.00    -0.356 OA
HETATM   20  C   UNL     1       0.703  27.483  46.914  1.00  0.00     0.210 C 
ENDBRANCH  16  19
ENDBRANCH  12  13
ENDBRANCH   9  12
ENDBRANCH   7   8
ENDBRANCH   1   7
BRANCH   4  21
HETATM   21  N   UNL     1       7.679  29.385  58.711  1.00  0.00    -0.321 N 
HETATM   22  C   UNL     1       8.743  30.207  59.036  1.00  0.00     0.279 C 
HETATM   23  O   UNL     1       9.789  30.304  58.402  1.00  0.00    -0.265 OA
HETATM   24  H   UNL     1       6.904  29.425  59.365  1.00  0.00     0.169 HD
BRANCH  22  25
HETATM   25  C   UNL     1       8.502  30.973  60.247  1.00  0.00     0.142 A 
HETATM   26  O   UNL     1       8.709  30.383  61.470  1.00  0.00    -0.317 OA
HETATM   27  C   UNL     1       8.406  31.310  62.417  1.00  0.00     0.143 A 
HETATM   28  C   UNL     1       8.013  32.489  61.831  1.00  0.00     0.027 A 
HETATM   29  C   UNL     1       8.073  32.274  60.432  1.00  0.00     0.045 A 
ENDBRANCH  22  25
ENDBRANCH   4  21
TORSDOF 7
ENDMDL
MODEL 9
REMARK VINA RESULT:      -7.7      2.880      4.208
REMARK  7 active torsions:
REMARK  status: ('A' for Active; 'I' for Inactive)
REMARK    1  A    between atoms: O_2  and  C_3 
REMARK    2  A    between atoms: C_6  and  C_7 
REMARK    3  A    between atoms: C_7  and  C_8 
REMARK       I    between atoms: C_8  and  N_9 
REMARK    4  A    between atoms: N_9  and  C_10 
REMARK    5  A    between atoms: C_10  and  C_11 
REMARK    6  A    between atoms: C_14  and  N_15 
REMARK       I    between atoms: N_15  and  C_16 
REMARK    7  A    between atoms: C_16  and  C_17 
ROOT
HETATM    1  C   UNL     1       4.553  28.274  55.090  1.00  0.00    -0.040 A 
HETATM    2  C   UNL     1       4.890  27.474  56.189  1.00  0.00     0.011 A 
HETATM    3  C   UNL     1       5.466  26.209  56.008  1.00  0.00     0.030 A 
HETATM    4  C   UNL     1       5.698  25.712  54.725  1.00  0.00     0.035 A 
HETATM    5  C   UNL     1       5.351  26.503  53.625  1.00  0.00     0.030 A 
HETATM    6  C   UNL     1       4.787  27.769  53.804  1.00  0.00     0.011 A 
ENDROOT
BRANCH   1   7
HETATM    7  C   UNL     1       3.892  29.620  55.254  1.00  0.00     0.161 C 
BRANCH   7   8
HETATM    8  N   UNL     1       4.123  30.209  56.556  1.00  0.00    -0.357 N 
HETATM    9  C   UNL     1       4.635  31.483  56.676  1.00  0.00     0.222 C 
HETATM   10  O   UNL     1       5.057  32.129  55.720  1.00  0.00    -0.273 OA
HETATM   11  H   UNL     1       3.645  29.805  57.349  1.00  0.00     0.162 HD
BRANCH   9  12
HETATM   12  C   UNL     1       4.604  32.048  58.088  1.00  0.00     0.141 C 
BRANCH  12  13
HETATM   13  C   UNL     1       5.882  31.881  58.884  1.00  0.00    -0.049 A 
HETATM   14  C   UNL     1       6.943  31.063  58.473  1.00  0.00     0.010 A 
HETATM   15  C   UNL     1       8.091  30.916  59.264  1.00  0.00     0.037 A 
HETATM   16  C   UNL     1       8.194  31.576  60.486  1.00  0.00     0.068 A 
HETATM   17  C   UNL     1       7.140  32.387  60.907  1.00  0.00     0.037 A 
HETATM   18  C   UNL     1       5.996  32.539  60.118  1.00  0.00     0.010 A 
BRANCH  16  19
HETATM   19  O   UNL     1       9.251  31.508  61.351  1.00  0.00    -0.356 OA
HETATM   20  C   UNL     1       9.464  30.265  62.006  1.00  0.00     0.210 C 
ENDBRANCH  16  19
ENDBRANCH  12  13
ENDBRANCH   9  12
ENDBRANCH   7   8
ENDBRANCH   1   7
BRANCH   4  21
HETATM   21  N   UNL     1       6.254  24.449  54.455  1.00  0.00    -0.321 N 
HETATM   22  C   UNL     1       7.493  23.955  54.822  1.00  0.00     0.279 C 
HETATM   23  O   UNL     1       8.348  24.569  55.453  1.00  0.00    -0.265 OA
HETATM   24  H   UNL     1       5.687  23.801  53.918  1.00  0.00     0.169 HD
BRANCH  22  25
HETATM   25  C   UNL     1       7.701  22.590  54.369  1.00  0.00     0.142 A 
HETATM   26  O   UNL     1       7.757  21.574  55.291  1.00  0.00    -0.317 OA
HETATM   27  C   UNL     1       7.962  20.420  54.603  1.00  0.00     0.143 A 
HETATM   28  C   UNL     1       8.036  20.669  53.253  1.00  0.00     0.027 A 
HETATM   29  C   UNL     1       7.869  22.067  53.100  1.00  0.00     0.045 A 
ENDBRANCH  22  25
ENDBRANCH   4  21
TORSDOF 7
ENDMDL
MODEL 10
REMARK VINA RESULT:      -7.7      4.489     10.371
REMARK  7 active torsions:
REMARK  status: ('A' for Active; 'I' for Inactive)
REMARK    1  A    between atoms: O_2  and  C_3 
REMARK    2  A    between atoms: C_6  and  C_7 
REMARK    3  A    between atoms: C_7  and  C_8 
REMARK       I    between atoms: C_8  and  N_9 
REMARK    4  A    between atoms: N_9  and  C_10 
REMARK    5  A    between atoms: C_10  and  C_11 
REMARK    6  A    between atoms: C_14  and  N_15 
REMARK       I    between atoms: N_15  and  C_16 
REMARK    7  A    between atoms: C_16  and  C_17 
ROOT
HETATM    1  C   UNL     1       7.193  27.378  57.391  1.00  0.00    -0.040 A 
HETATM    2  C   UNL     1       7.670  28.579  57.931  1.00  0.00     0.011 A 
HETATM    3  C   UNL     1       6.981  29.783  57.729  1.00  0.00     0.030 A 
HETATM    4  C   UNL     1       5.813  29.812  56.968  1.00  0.00     0.035 A 
HETATM    5  C   UNL     1       5.339  28.618  56.416  1.00  0.00     0.030 A 
HETATM    6  C   UNL     1       6.020  27.415  56.626  1.00  0.00     0.011 A 
ENDROOT
BRANCH   1   7
HETATM    7  C   UNL     1       7.937  26.077  57.555  1.00  0.00     0.161 C 
BRANCH   7   8
HETATM    8  N   UNL     1       7.995  25.300  56.335  1.00  0.00    -0.357 N 
HETATM    9  C   UNL     1       8.130  23.929  56.374  1.00  0.00     0.222 C 
HETATM   10  O   UNL     1       8.354  23.307  57.409  1.00  0.00    -0.273 OA
HETATM   11  H   UNL     1       7.649  25.727  55.487  1.00  0.00     0.162 HD
BRANCH   9  12
HETATM   12  C   UNL     1       7.943  23.236  55.033  1.00  0.00     0.141 C 
BRANCH  12  13
HETATM   13  C   UNL     1       7.244  24.056  53.968  1.00  0.00    -0.049 A 
HETATM   14  C   UNL     1       5.905  24.461  54.064  1.00  0.00     0.010 A 
HETATM   15  C   UNL     1       5.295  25.190  53.034  1.00  0.00     0.037 A 
HETATM   16  C   UNL     1       6.008  25.518  51.884  1.00  0.00     0.068 A 
HETATM   17  C   UNL     1       7.340  25.115  51.777  1.00  0.00     0.037 A 
HETATM   18  C   UNL     1       7.952  24.391  52.805  1.00  0.00     0.010 A 
BRANCH  16  19
HETATM   19  O   UNL     1       5.528  26.214  50.809  1.00  0.00    -0.356 OA
HETATM   20  C   UNL     1       5.322  27.608  50.990  1.00  0.00     0.210 C 
ENDBRANCH  16  19
ENDBRANCH  12  13
ENDBRANCH   9  12
ENDBRANCH   7   8
ENDBRANCH   1   7
BRANCH   4  21
HETATM   21  N   UNL     1       5.071  30.978  56.702  1.00  0.00    -0.321 N 
HETATM   22  C   UNL     1       3.885  31.395  57.278  1.00  0.00     0.279 C 
HETATM   23  O   UNL     1       3.255  30.786  58.137  1.00  0.00    -0.265 OA
HETATM   24  H   UNL     1       5.437  31.605  55.994  1.00  0.00     0.169 HD
BRANCH  22  25
HETATM   25  C   UNL     1       3.432  32.671  56.750  1.00  0.00     0.142 A 
HETATM   26  O   UNL     1       2.194  32.756  56.160  1.00  0.00    -0.317 OA
HETATM   27  C   UNL     1       2.031  34.043  55.756  1.00  0.00     0.143 A 
HETATM   28  C   UNL     1       3.137  34.794  56.077  1.00  0.00     0.027 A 
HETATM   29  C   UNL     1       4.041  33.912  56.717  1.00  0.00     0.045 A 
ENDBRANCH  22  25
ENDBRANCH   4  21
TORSDOF 7
ENDMDL
